# DDEC6 charges by PACMAN v1.1 (https://github.com/mtap-research/PACMAN-charge/)
data_IDEWIA_ASR_pacman
_symmetry_space_group_name_H-M   'P 1'
_cell_length_a   18.53060000
_cell_length_b   18.53060000
_cell_length_c   24.24160000
_cell_angle_alpha   90.00000000
_cell_angle_beta   90.00000000
_cell_angle_gamma   120.00000000
_symmetry_Int_Tables_number   1
_chemical_formula_structural   Zn2H10C27(NO5)2
_chemical_formula_sum   'Zn12 H60 C162 N12 O60'
_cell_volume   7208.93111392
_cell_formula_units_Z   6
loop_
 _symmetry_equiv_pos_site_id
 _symmetry_equiv_pos_as_xyz
  1  'x, y, z'
loop_
 _atom_site_type_symbol
 _atom_site_label
 _atom_site_symmetry_multiplicity
 _atom_site_fract_x
 _atom_site_fract_y
 _atom_site_fract_z
 _atom_site_occupancy
 _atom_site_charge
Zn  Zn1  1  0.47282000  0.94564000  0.04988000  1.0 0.9588431093
Zn  Zn2  1  0.47282000  0.52718000  0.04988000  1.0 0.9588431093
Zn  Zn3  1  0.05436000  0.52718000  0.04988000  1.0 0.9588431093
Zn  Zn4  1  0.52718000  0.05436000  0.54988000  1.0 0.9588431093
Zn  Zn5  1  0.52718000  0.47282000  0.54988000  1.0 0.9588431093
Zn  Zn6  1  0.94564000  0.47282000  0.54988000  1.0 0.9588431093
Zn  Zn7  1  0.52718000  0.05436000  0.95012000  1.0 0.9588431093
Zn  Zn8  1  0.94564000  0.47282000  0.95012000  1.0 0.9588431093
Zn  Zn9  1  0.52718000  0.47282000  0.95012000  1.0 0.9588431093
Zn  Zn10  1  0.47282000  0.94564000  0.45012000  1.0 0.9588431093
Zn  Zn11  1  0.05436000  0.52718000  0.45012000  1.0 0.9588431093
Zn  Zn12  1  0.47282000  0.52718000  0.45012000  1.0 0.9588431093
H  H1  1  0.63468000  0.92582000  0.86155000  1.0 0.130099803
H  H2  1  0.78273000  0.95645000  0.83721000  1.0 0.1189064784
H  H3  1  0.29114000  0.36532000  0.86155000  1.0 0.130099803
H  H4  1  0.17372000  0.21727000  0.83721000  1.0 0.1189064784
H  H5  1  0.07418000  0.70886000  0.86155000  1.0 0.130099803
H  H6  1  0.04355000  0.82628000  0.83721000  1.0 0.1189064784
H  H7  1  0.36532000  0.07418000  0.36155000  1.0 0.130099803
H  H8  1  0.21727000  0.04355000  0.33721000  1.0 0.1189064784
H  H9  1  0.70886000  0.63468000  0.36155000  1.0 0.130099803
H  H10  1  0.82628000  0.78273000  0.33721000  1.0 0.1189064784
H  H11  1  0.92582000  0.29114000  0.36155000  1.0 0.130099803
H  H12  1  0.95645000  0.17372000  0.33721000  1.0 0.1189064784
H  H13  1  0.70886000  0.07418000  0.13845000  1.0 0.130099803
H  H14  1  0.82628000  0.04355000  0.16279000  1.0 0.1189064784
H  H15  1  0.92582000  0.63468000  0.13845000  1.0 0.130099803
H  H16  1  0.95645000  0.78273000  0.16279000  1.0 0.1189064784
H  H17  1  0.36532000  0.29114000  0.13845000  1.0 0.130099803
H  H18  1  0.21727000  0.17372000  0.16279000  1.0 0.1189064784
H  H19  1  0.29114000  0.92582000  0.63845000  1.0 0.130099803
H  H20  1  0.17372000  0.95645000  0.66279000  1.0 0.1189064784
H  H21  1  0.07418000  0.36532000  0.63845000  1.0 0.130099803
H  H22  1  0.04355000  0.21727000  0.66279000  1.0 0.1189064784
H  H23  1  0.63468000  0.70886000  0.63845000  1.0 0.130099803
H  H24  1  0.78273000  0.82628000  0.66279000  1.0 0.1189064784
H  H25  1  0.36532000  0.07418000  0.13845000  1.0 0.130099803
H  H26  1  0.21727000  0.04355000  0.16279000  1.0 0.1189064784
H  H27  1  0.70886000  0.63468000  0.13845000  1.0 0.130099803
H  H28  1  0.82628000  0.78273000  0.16279000  1.0 0.1189064784
H  H29  1  0.92582000  0.29114000  0.13845000  1.0 0.130099803
H  H30  1  0.95645000  0.17372000  0.16279000  1.0 0.1189064784
H  H31  1  0.63468000  0.92582000  0.63845000  1.0 0.130099803
H  H32  1  0.78273000  0.95645000  0.66279000  1.0 0.1189064784
H  H33  1  0.29114000  0.36532000  0.63845000  1.0 0.130099803
H  H34  1  0.17372000  0.21727000  0.66279000  1.0 0.1189064784
H  H35  1  0.07418000  0.70886000  0.63845000  1.0 0.130099803
H  H36  1  0.04355000  0.82628000  0.66279000  1.0 0.1189064784
H  H37  1  0.29114000  0.92582000  0.86155000  1.0 0.130099803
H  H38  1  0.17372000  0.95645000  0.83721000  1.0 0.1189064784
H  H39  1  0.07418000  0.36532000  0.86155000  1.0 0.130099803
H  H40  1  0.04355000  0.21727000  0.83721000  1.0 0.1189064784
H  H41  1  0.63468000  0.70886000  0.86155000  1.0 0.130099803
H  H42  1  0.78273000  0.82628000  0.83721000  1.0 0.1189064784
H  H43  1  0.70886000  0.07418000  0.36155000  1.0 0.130099803
H  H44  1  0.82628000  0.04355000  0.33721000  1.0 0.1189064784
H  H45  1  0.92582000  0.63468000  0.36155000  1.0 0.130099803
H  H46  1  0.95645000  0.78273000  0.33721000  1.0 0.1189064784
H  H47  1  0.36532000  0.29114000  0.36155000  1.0 0.130099803
H  H48  1  0.21727000  0.17372000  0.33721000  1.0 0.1189064784
H  H49  1  0.53085000  0.76543000  0.98926000  1.0 0.137658653
H  H50  1  0.23458000  0.46915000  0.98926000  1.0 0.137658653
H  H51  1  0.23458000  0.76543000  0.98926000  1.0 0.137658653
H  H52  1  0.46915000  0.23458000  0.48926000  1.0 0.137658653
H  H53  1  0.76543000  0.53085000  0.48926000  1.0 0.137658653
H  H54  1  0.76543000  0.23458000  0.48926000  1.0 0.137658653
H  H55  1  0.76543000  0.23458000  0.01074000  1.0 0.137658653
H  H56  1  0.76543000  0.53085000  0.01074000  1.0 0.137658653
H  H57  1  0.46915000  0.23458000  0.01074000  1.0 0.137658653
H  H58  1  0.23458000  0.76543000  0.51074000  1.0 0.137658653
H  H59  1  0.23458000  0.46915000  0.51074000  1.0 0.137658653
H  H60  1  0.53085000  0.76543000  0.51074000  1.0 0.137658653
C  C1  1  0.55170000  0.91020000  0.95370000  1.0 0.6039381596
C  C2  1  0.57790000  0.85370000  0.92790000  1.0 -0.0260372591
C  C3  1  0.62060000  0.87430000  0.87860000  1.0 -0.1381462553
C  C4  1  0.76700000  0.92180000  0.80290000  1.0 -0.1501461841
C  C5  1  0.35850000  0.44830000  0.95370000  1.0 0.6039381596
C  C6  1  0.27580000  0.42210000  0.92790000  1.0 -0.0260372591
C  C7  1  0.25370000  0.37940000  0.87860000  1.0 -0.1381462553
C  C8  1  0.15480000  0.23300000  0.80290000  1.0 -0.1501461841
C  C9  1  0.08980000  0.64150000  0.95370000  1.0 0.6039381596
C  C10  1  0.14630000  0.72420000  0.92790000  1.0 -0.0260372591
C  C11  1  0.12570000  0.74630000  0.87860000  1.0 -0.1381462553
C  C12  1  0.07820000  0.84520000  0.80290000  1.0 -0.1501461841
C  C13  1  0.44830000  0.08980000  0.45370000  1.0 0.6039381596
C  C14  1  0.42210000  0.14630000  0.42790000  1.0 -0.0260372591
C  C15  1  0.37940000  0.12570000  0.37860000  1.0 -0.1381462553
C  C16  1  0.23300000  0.07820000  0.30290000  1.0 -0.1501461841
C  C17  1  0.64150000  0.55170000  0.45370000  1.0 0.6039381596
C  C18  1  0.72420000  0.57790000  0.42790000  1.0 -0.0260372591
C  C19  1  0.74630000  0.62060000  0.37860000  1.0 -0.1381462553
C  C20  1  0.84520000  0.76700000  0.30290000  1.0 -0.1501461841
C  C21  1  0.91020000  0.35850000  0.45370000  1.0 0.6039381596
C  C22  1  0.85370000  0.27580000  0.42790000  1.0 -0.0260372591
C  C23  1  0.87430000  0.25370000  0.37860000  1.0 -0.1381462553
C  C24  1  0.92180000  0.15480000  0.30290000  1.0 -0.1501461841
C  C25  1  0.64150000  0.08980000  0.04630000  1.0 0.6039381596
C  C26  1  0.72420000  0.14630000  0.07210000  1.0 -0.0260372591
C  C27  1  0.74630000  0.12570000  0.12140000  1.0 -0.1381462553
C  C28  1  0.84520000  0.07820000  0.19710000  1.0 -0.1501461841
C  C29  1  0.91020000  0.55170000  0.04630000  1.0 0.6039381596
C  C30  1  0.85370000  0.57790000  0.07210000  1.0 -0.0260372591
C  C31  1  0.87430000  0.62060000  0.12140000  1.0 -0.1381462553
C  C32  1  0.92180000  0.76700000  0.19710000  1.0 -0.1501461841
C  C33  1  0.44830000  0.35850000  0.04630000  1.0 0.6039381596
C  C34  1  0.42210000  0.27580000  0.07210000  1.0 -0.0260372591
C  C35  1  0.37940000  0.25370000  0.12140000  1.0 -0.1381462553
C  C36  1  0.23300000  0.15480000  0.19710000  1.0 -0.1501461841
C  C37  1  0.35850000  0.91020000  0.54630000  1.0 0.6039381596
C  C38  1  0.27580000  0.85370000  0.57210000  1.0 -0.0260372591
C  C39  1  0.25370000  0.87430000  0.62140000  1.0 -0.1381462553
C  C40  1  0.15480000  0.92180000  0.69710000  1.0 -0.1501461841
C  C41  1  0.08980000  0.44830000  0.54630000  1.0 0.6039381596
C  C42  1  0.14630000  0.42210000  0.57210000  1.0 -0.0260372591
C  C43  1  0.12570000  0.37940000  0.62140000  1.0 -0.1381462553
C  C44  1  0.07820000  0.23300000  0.69710000  1.0 -0.1501461841
C  C45  1  0.55170000  0.64150000  0.54630000  1.0 0.6039381596
C  C46  1  0.57790000  0.72420000  0.57210000  1.0 -0.0260372591
C  C47  1  0.62060000  0.74630000  0.62140000  1.0 -0.1381462553
C  C48  1  0.76700000  0.84520000  0.69710000  1.0 -0.1501461841
C  C49  1  0.44830000  0.08980000  0.04630000  1.0 0.6039381596
C  C50  1  0.42210000  0.14630000  0.07210000  1.0 -0.0260372591
C  C51  1  0.37940000  0.12570000  0.12140000  1.0 -0.1381462553
C  C52  1  0.23300000  0.07820000  0.19710000  1.0 -0.1501461841
C  C53  1  0.64150000  0.55170000  0.04630000  1.0 0.6039381596
C  C54  1  0.72420000  0.57790000  0.07210000  1.0 -0.0260372591
C  C55  1  0.74630000  0.62060000  0.12140000  1.0 -0.1381462553
C  C56  1  0.84520000  0.76700000  0.19710000  1.0 -0.1501461841
C  C57  1  0.91020000  0.35850000  0.04630000  1.0 0.6039381596
C  C58  1  0.85370000  0.27580000  0.07210000  1.0 -0.0260372591
C  C59  1  0.87430000  0.25370000  0.12140000  1.0 -0.1381462553
C  C60  1  0.92180000  0.15480000  0.19710000  1.0 -0.1501461841
C  C61  1  0.55170000  0.91020000  0.54630000  1.0 0.6039381596
C  C62  1  0.57790000  0.85370000  0.57210000  1.0 -0.0260372591
C  C63  1  0.62060000  0.87430000  0.62140000  1.0 -0.1381462553
C  C64  1  0.76700000  0.92180000  0.69710000  1.0 -0.1501461841
C  C65  1  0.35850000  0.44830000  0.54630000  1.0 0.6039381596
C  C66  1  0.27580000  0.42210000  0.57210000  1.0 -0.0260372591
C  C67  1  0.25370000  0.37940000  0.62140000  1.0 -0.1381462553
C  C68  1  0.15480000  0.23300000  0.69710000  1.0 -0.1501461841
C  C69  1  0.08980000  0.64150000  0.54630000  1.0 0.6039381596
C  C70  1  0.14630000  0.72420000  0.57210000  1.0 -0.0260372591
C  C71  1  0.12570000  0.74630000  0.62140000  1.0 -0.1381462553
C  C72  1  0.07820000  0.84520000  0.69710000  1.0 -0.1501461841
C  C73  1  0.35850000  0.91020000  0.95370000  1.0 0.6039381596
C  C74  1  0.27580000  0.85370000  0.92790000  1.0 -0.0260372591
C  C75  1  0.25370000  0.87430000  0.87860000  1.0 -0.1381462553
C  C76  1  0.15480000  0.92180000  0.80290000  1.0 -0.1501461841
C  C77  1  0.08980000  0.44830000  0.95370000  1.0 0.6039381596
C  C78  1  0.14630000  0.42210000  0.92790000  1.0 -0.0260372591
C  C79  1  0.12570000  0.37940000  0.87860000  1.0 -0.1381462553
C  C80  1  0.07820000  0.23300000  0.80290000  1.0 -0.1501461841
C  C81  1  0.55170000  0.64150000  0.95370000  1.0 0.6039381596
C  C82  1  0.57790000  0.72420000  0.92790000  1.0 -0.0260372591
C  C83  1  0.62060000  0.74630000  0.87860000  1.0 -0.1381462553
C  C84  1  0.76700000  0.84520000  0.80290000  1.0 -0.1501461841
C  C85  1  0.64150000  0.08980000  0.45370000  1.0 0.6039381596
C  C86  1  0.72420000  0.14630000  0.42790000  1.0 -0.0260372591
C  C87  1  0.74630000  0.12570000  0.37860000  1.0 -0.1381462553
C  C88  1  0.84520000  0.07820000  0.30290000  1.0 -0.1501461841
C  C89  1  0.91020000  0.55170000  0.45370000  1.0 0.6039381596
C  C90  1  0.85370000  0.57790000  0.42790000  1.0 -0.0260372591
C  C91  1  0.87430000  0.62060000  0.37860000  1.0 -0.1381462553
C  C92  1  0.92180000  0.76700000  0.30290000  1.0 -0.1501461841
C  C93  1  0.44830000  0.35850000  0.45370000  1.0 0.6039381596
C  C94  1  0.42210000  0.27580000  0.42790000  1.0 -0.0260372591
C  C95  1  0.37940000  0.25370000  0.37860000  1.0 -0.1381462553
C  C96  1  0.23300000  0.15480000  0.30290000  1.0 -0.1501461841
C  C97  1  0.80850000  0.96020000  0.75000000  1.0 0.0199136012
C  C98  1  0.15170000  0.19150000  0.75000000  1.0 0.0199136012
C  C99  1  0.03980000  0.84830000  0.75000000  1.0 0.0199136012
C  C100  1  0.19150000  0.03980000  0.25000000  1.0 0.0199136012
C  C101  1  0.84830000  0.80850000  0.25000000  1.0 0.0199136012
C  C102  1  0.96020000  0.15170000  0.25000000  1.0 0.0199136012
C  C103  1  0.84830000  0.03980000  0.25000000  1.0 0.0199136012
C  C104  1  0.96020000  0.80850000  0.25000000  1.0 0.0199136012
C  C105  1  0.19150000  0.15170000  0.25000000  1.0 0.0199136012
C  C106  1  0.15170000  0.96020000  0.75000000  1.0 0.0199136012
C  C107  1  0.03980000  0.19150000  0.75000000  1.0 0.0199136012
C  C108  1  0.80850000  0.84830000  0.75000000  1.0 0.0199136012
C  C109  1  0.55760000  0.77880000  0.95430000  1.0 -0.1033669067
C  C110  1  0.64340000  0.82170000  0.85320000  1.0 0.0592171212
C  C111  1  0.68710000  0.84355000  0.80030000  1.0 0.0264290789
C  C112  1  0.22120000  0.44240000  0.95430000  1.0 -0.1033669067
C  C113  1  0.17830000  0.35660000  0.85320000  1.0 0.0592171212
C  C114  1  0.15645000  0.31290000  0.80030000  1.0 0.0264290789
C  C115  1  0.22120000  0.77880000  0.95430000  1.0 -0.1033669067
C  C116  1  0.17830000  0.82170000  0.85320000  1.0 0.0592171212
C  C117  1  0.15645000  0.84355000  0.80030000  1.0 0.0264290789
C  C118  1  0.44240000  0.22120000  0.45430000  1.0 -0.1033669067
C  C119  1  0.35660000  0.17830000  0.35320000  1.0 0.0592171212
C  C120  1  0.31290000  0.15645000  0.30030000  1.0 0.0264290789
C  C121  1  0.77880000  0.55760000  0.45430000  1.0 -0.1033669067
C  C122  1  0.82170000  0.64340000  0.35320000  1.0 0.0592171212
C  C123  1  0.84355000  0.68710000  0.30030000  1.0 0.0264290789
C  C124  1  0.77880000  0.22120000  0.45430000  1.0 -0.1033669067
C  C125  1  0.82170000  0.17830000  0.35320000  1.0 0.0592171212
C  C126  1  0.84355000  0.15645000  0.30030000  1.0 0.0264290789
C  C127  1  0.77880000  0.22120000  0.04570000  1.0 -0.1033669067
C  C128  1  0.82170000  0.17830000  0.14680000  1.0 0.0592171212
C  C129  1  0.84355000  0.15645000  0.19970000  1.0 0.0264290789
C  C130  1  0.77880000  0.55760000  0.04570000  1.0 -0.1033669067
C  C131  1  0.82170000  0.64340000  0.14680000  1.0 0.0592171212
C  C132  1  0.84355000  0.68710000  0.19970000  1.0 0.0264290789
C  C133  1  0.44240000  0.22120000  0.04570000  1.0 -0.1033669067
C  C134  1  0.35660000  0.17830000  0.14680000  1.0 0.0592171212
C  C135  1  0.31290000  0.15645000  0.19970000  1.0 0.0264290789
C  C136  1  0.22120000  0.77880000  0.54570000  1.0 -0.1033669067
C  C137  1  0.17830000  0.82170000  0.64680000  1.0 0.0592171212
C  C138  1  0.15645000  0.84355000  0.69970000  1.0 0.0264290789
C  C139  1  0.22120000  0.44240000  0.54570000  1.0 -0.1033669067
C  C140  1  0.17830000  0.35660000  0.64680000  1.0 0.0592171212
C  C141  1  0.15645000  0.31290000  0.69970000  1.0 0.0264290789
C  C142  1  0.55760000  0.77880000  0.54570000  1.0 -0.1033669067
C  C143  1  0.64340000  0.82170000  0.64680000  1.0 0.0592171212
C  C144  1  0.68710000  0.84355000  0.69970000  1.0 0.0264290789
C  C145  1  0.64560000  0.82280000  0.75000000  1.0 0.1189064784
C  C146  1  0.17720000  0.35440000  0.75000000  1.0 0.1189064784
C  C147  1  0.17720000  0.82280000  0.75000000  1.0 0.1189064784
C  C148  1  0.35440000  0.17720000  0.25000000  1.0 0.1189064784
C  C149  1  0.82280000  0.64560000  0.25000000  1.0 0.1189064784
C  C150  1  0.82280000  0.17720000  0.25000000  1.0 0.1189064784
C  C151  1  0.93300000  0.06700000  0.69540000  1.0 0.0592171212
C  C152  1  0.13400000  0.06700000  0.69540000  1.0 0.0592171212
C  C153  1  0.93300000  0.86600000  0.69540000  1.0 0.0592171212
C  C154  1  0.06700000  0.93300000  0.19540000  1.0 0.0592171212
C  C155  1  0.86600000  0.93300000  0.19540000  1.0 0.0592171212
C  C156  1  0.06700000  0.13400000  0.19540000  1.0 0.0592171212
C  C157  1  0.86600000  0.93300000  0.30460000  1.0 0.0592171212
C  C158  1  0.06700000  0.93300000  0.30460000  1.0 0.0592171212
C  C159  1  0.06700000  0.13400000  0.30460000  1.0 0.0592171212
C  C160  1  0.13400000  0.06700000  0.80460000  1.0 0.0592171212
C  C161  1  0.93300000  0.06700000  0.80460000  1.0 0.0592171212
C  C162  1  0.93300000  0.86600000  0.80460000  1.0 0.0592171212
N  N1  1  0.56190000  0.74980000  0.75000000  1.0 -0.0903651791
N  N2  1  0.18790000  0.43810000  0.75000000  1.0 -0.0903651791
N  N3  1  0.25020000  0.81210000  0.75000000  1.0 -0.0903651791
N  N4  1  0.43810000  0.25020000  0.25000000  1.0 -0.0903651791
N  N5  1  0.81210000  0.56190000  0.25000000  1.0 -0.0903651791
N  N6  1  0.74980000  0.18790000  0.25000000  1.0 -0.0903651791
N  N7  1  0.81210000  0.25020000  0.25000000  1.0 -0.0903651791
N  N8  1  0.74980000  0.56190000  0.25000000  1.0 -0.0903651791
N  N9  1  0.43810000  0.18790000  0.25000000  1.0 -0.0903651791
N  N10  1  0.18790000  0.74980000  0.75000000  1.0 -0.0903651791
N  N11  1  0.25020000  0.43810000  0.75000000  1.0 -0.0903651791
N  N12  1  0.56190000  0.81210000  0.75000000  1.0 -0.0903651791
O  O1  1  0.51950000  0.89020000  0.00168000  1.0 -0.5530815052
O  O2  1  0.56240000  0.97220000  0.92660000  1.0 -0.5405804492
O  O3  1  0.37070000  0.48050000  0.00168000  1.0 -0.5530815052
O  O4  1  0.40980000  0.43760000  0.92660000  1.0 -0.5405804492
O  O5  1  0.10980000  0.62930000  0.00168000  1.0 -0.5530815052
O  O6  1  0.02780000  0.59020000  0.92660000  1.0 -0.5405804492
O  O7  1  0.48050000  0.10980000  0.50168000  1.0 -0.5530815052
O  O8  1  0.43760000  0.02780000  0.42660000  1.0 -0.5405804492
O  O9  1  0.62930000  0.51950000  0.50168000  1.0 -0.5530815052
O  O10  1  0.59020000  0.56240000  0.42660000  1.0 -0.5405804492
O  O11  1  0.89020000  0.37070000  0.50168000  1.0 -0.5530815052
O  O12  1  0.97220000  0.40980000  0.42660000  1.0 -0.5405804492
O  O13  1  0.62930000  0.10980000  0.99832000  1.0 -0.5530815052
O  O14  1  0.59020000  0.02780000  0.07340000  1.0 -0.5405804492
O  O15  1  0.89020000  0.51950000  0.99832000  1.0 -0.5530815052
O  O16  1  0.97220000  0.56240000  0.07340000  1.0 -0.5405804492
O  O17  1  0.48050000  0.37070000  0.99832000  1.0 -0.5530815052
O  O18  1  0.43760000  0.40980000  0.07340000  1.0 -0.5405804492
O  O19  1  0.37070000  0.89020000  0.49832000  1.0 -0.5530815052
O  O20  1  0.40980000  0.97220000  0.57340000  1.0 -0.5405804492
O  O21  1  0.10980000  0.48050000  0.49832000  1.0 -0.5530815052
O  O22  1  0.02780000  0.43760000  0.57340000  1.0 -0.5405804492
O  O23  1  0.51950000  0.62930000  0.49832000  1.0 -0.5530815052
O  O24  1  0.56240000  0.59020000  0.57340000  1.0 -0.5405804492
O  O25  1  0.48050000  0.10980000  0.99832000  1.0 -0.5530815052
O  O26  1  0.43760000  0.02780000  0.07340000  1.0 -0.5405804492
O  O27  1  0.62930000  0.51950000  0.99832000  1.0 -0.5530815052
O  O28  1  0.59020000  0.56240000  0.07340000  1.0 -0.5405804492
O  O29  1  0.89020000  0.37070000  0.99832000  1.0 -0.5530815052
O  O30  1  0.97220000  0.40980000  0.07340000  1.0 -0.5405804492
O  O31  1  0.51950000  0.89020000  0.49832000  1.0 -0.5530815052
O  O32  1  0.56240000  0.97220000  0.57340000  1.0 -0.5405804492
O  O33  1  0.37070000  0.48050000  0.49832000  1.0 -0.5530815052
O  O34  1  0.40980000  0.43760000  0.57340000  1.0 -0.5405804492
O  O35  1  0.10980000  0.62930000  0.49832000  1.0 -0.5530815052
O  O36  1  0.02780000  0.59020000  0.57340000  1.0 -0.5405804492
O  O37  1  0.37070000  0.89020000  0.00168000  1.0 -0.5530815052
O  O38  1  0.40980000  0.97220000  0.92660000  1.0 -0.5405804492
O  O39  1  0.10980000  0.48050000  0.00168000  1.0 -0.5530815052
O  O40  1  0.02780000  0.43760000  0.92660000  1.0 -0.5405804492
O  O41  1  0.51950000  0.62930000  0.00168000  1.0 -0.5530815052
O  O42  1  0.56240000  0.59020000  0.92660000  1.0 -0.5405804492
O  O43  1  0.62930000  0.10980000  0.50168000  1.0 -0.5530815052
O  O44  1  0.59020000  0.02780000  0.42660000  1.0 -0.5405804492
O  O45  1  0.89020000  0.51950000  0.50168000  1.0 -0.5530815052
O  O46  1  0.97220000  0.56240000  0.42660000  1.0 -0.5405804492
O  O47  1  0.48050000  0.37070000  0.50168000  1.0 -0.5530815052
O  O48  1  0.43760000  0.40980000  0.42660000  1.0 -0.5405804492
O  O49  1  0.88720000  0.02560000  0.75000000  1.0 -0.0169054146
O  O50  1  0.13840000  0.11280000  0.75000000  1.0 -0.0169054146
O  O51  1  0.97440000  0.86160000  0.75000000  1.0 -0.0169054146
O  O52  1  0.11280000  0.97440000  0.25000000  1.0 -0.0169054146
O  O53  1  0.86160000  0.88720000  0.25000000  1.0 -0.0169054146
O  O54  1  0.02560000  0.13840000  0.25000000  1.0 -0.0169054146
O  O55  1  0.86160000  0.97440000  0.25000000  1.0 -0.0169054146
O  O56  1  0.02560000  0.88720000  0.25000000  1.0 -0.0169054146
O  O57  1  0.11280000  0.13840000  0.25000000  1.0 -0.0169054146
O  O58  1  0.13840000  0.02560000  0.75000000  1.0 -0.0169054146
O  O59  1  0.97440000  0.11280000  0.75000000  1.0 -0.0169054146
O  O60  1  0.88720000  0.86160000  0.75000000  1.0 -0.0169054146
