# DDEC6 charges by PACMAN v1.1 (https://github.com/mtap-research/PACMAN-charge/)
data_IDOKAR_ASR_pacman
_symmetry_space_group_name_H-M   'P 1'
_cell_length_a   24.21580000
_cell_length_b   24.26730000
_cell_length_c   24.67270000
_cell_angle_alpha   98.14300000
_cell_angle_beta   102.16700000
_cell_angle_gamma   100.88800000
_symmetry_Int_Tables_number   1
_chemical_formula_structural   Cu2H33C41(NO4)2
_chemical_formula_sum   'Cu12 H198 C246 N12 O48'
_cell_volume   13667.21794288
_cell_formula_units_Z   6
loop_
 _symmetry_equiv_pos_site_id
 _symmetry_equiv_pos_as_xyz
  1  'x, y, z'
loop_
 _atom_site_type_symbol
 _atom_site_label
 _atom_site_symmetry_multiplicity
 _atom_site_fract_x
 _atom_site_fract_y
 _atom_site_fract_z
 _atom_site_occupancy
 _atom_site_charge
Cu  Cu1  1  0.85827000  0.05330000  0.74261000  1.0 0.8490594992
Cu  Cu2  1  0.14173000  0.94670000  0.25739000  1.0 0.8490594992
Cu  Cu3  1  0.93555000  0.33694000  0.20069000  1.0 0.8563464929
Cu  Cu4  1  0.06445000  0.66306000  0.79931000  1.0 0.8563464929
Cu  Cu5  1  0.63893000  0.79083000  0.04521000  1.0 0.8690326084
Cu  Cu6  1  0.36107000  0.20917000  0.95479000  1.0 0.8690326084
Cu  Cu7  1  0.80337000  0.07689000  0.64805000  1.0 0.8690326084
Cu  Cu8  1  0.19663000  0.92311000  0.35195000  1.0 0.8690326084
Cu  Cu9  1  0.95314000  0.24252000  0.14812000  1.0 0.8563464929
Cu  Cu10  1  0.04686000  0.75748000  0.85188000  1.0 0.8490594992
Cu  Cu11  1  0.26184000  0.15002000  0.96488000  1.0 0.8563464929
Cu  Cu12  1  0.73816000  0.84998000  0.03512000  1.0 0.8563464929
H  H1  1  0.19545000  0.87538000  0.83380000  1.0 0.1395491778
H  H2  1  0.80455000  0.12462000  0.16620000  1.0 0.1395491778
H  H3  1  0.94425000  0.80612000  0.71042000  1.0 0.1395491778
H  H4  1  0.05575000  0.19388000  0.28958000  1.0 0.1395491778
H  H5  1  0.83593000  0.19217000  0.86244000  1.0 0.1395491778
H  H6  1  0.16407000  0.80783000  0.13756000  1.0 0.1395491778
H  H7  1  0.89428000  0.89502000  0.67657000  1.0 0.1395491778
H  H8  1  0.10572000  0.10498000  0.32343000  1.0 0.1395491778
H  H9  1  0.79736000  0.71486000  0.94676000  1.0 0.1395491778
H  H10  1  0.20264000  0.28514000  0.05324000  1.0 0.1395491778
H  H11  1  0.26126000  0.98798000  0.87069000  1.0 0.1395491778
H  H12  1  0.73874000  0.01202000  0.12931000  1.0 0.1395491778
H  H13  1  0.80992000  0.83911000  0.48049000  1.0 0.1300719134
H  H14  1  0.19008000  0.16089000  0.51951000  1.0 0.1300719134
H  H15  1  0.71330000  0.95627000  0.78788000  1.0 0.1395491778
H  H16  1  0.28670000  0.04373000  0.21212000  1.0 0.1395491778
H  H17  1  0.40835000  0.07970000  0.84467000  1.0 0.1300719134
H  H18  1  0.59165000  0.92030000  0.15533000  1.0 0.1300719134
H  H19  1  0.75011000  0.22267000  0.71362000  1.0 0.1395491778
H  H20  1  0.24989000  0.77733000  0.28638000  1.0 0.1395491778
H  H21  1  0.84942000  0.82788000  0.18596000  1.0 0.1395491778
H  H22  1  0.15058000  0.17212000  0.81404000  1.0 0.1395491778
H  H23  1  0.85774000  0.24315000  0.97870000  1.0 0.1395491778
H  H24  1  0.14226000  0.75685000  0.02130000  1.0 0.1395491778
H  H25  1  0.96692000  0.85663000  0.24909000  1.0 0.1395491778
H  H26  1  0.03308000  0.14337000  0.75091000  1.0 0.1395491778
H  H27  1  0.88800000  0.68742000  0.89851000  1.0 0.1395491778
H  H28  1  0.11200000  0.31258000  0.10149000  1.0 0.1395491778
H  H29  1  0.47624000  0.84254000  0.63595000  1.0 0.1900235247
H  H30  1  0.52376000  0.15746000  0.36405000  1.0 0.1900235247
H  H31  1  0.19829000  0.73667000  0.72227000  1.0 0.1300719134
H  H32  1  0.80171000  0.26333000  0.27773000  1.0 0.1300719134
H  H33  1  0.76095000  0.39476000  0.98437000  1.0 0.1300719134
H  H34  1  0.23905000  0.60524000  0.01563000  1.0 0.1300719134
H  H35  1  0.52938000  0.80938000  0.89496000  1.0 0.1215695545
H  H36  1  0.47062000  0.19062000  0.10504000  1.0 0.1300719134
H  H37  1  0.88079000  0.79548000  0.44284000  1.0 0.1215695545
H  H38  1  0.11921000  0.20452000  0.55716000  1.0 0.1215695545
H  H39  1  0.95579000  0.65136000  0.63469000  1.0 0.1300719134
H  H40  1  0.04421000  0.34864000  0.36531000  1.0 0.1300719134
H  H41  1  0.72022000  0.29809000  0.76135000  1.0 0.1395491778
H  H42  1  0.27978000  0.70191000  0.23865000  1.0 0.1395491778
H  H43  1  0.79171000  0.44207000  0.90223000  1.0 0.1215695545
H  H44  1  0.20829000  0.55793000  0.09777000  1.0 0.1215695545
H  H45  1  0.81680000  0.37758000  0.06588000  1.0 0.1300719134
H  H46  1  0.18320000  0.62242000  0.93412000  1.0 0.1300719134
H  H47  1  0.80405000  0.92632000  0.53116000  1.0 0.1300719134
H  H48  1  0.19595000  0.07368000  0.46884000  1.0 0.1300719134
H  H49  1  0.92305000  0.54439000  0.82199000  1.0 0.1215695545
H  H50  1  0.07695000  0.45561000  0.17801000  1.0 0.1300719134
H  H51  1  0.80326000  0.65230000  0.32860000  1.0 0.1803074076
H  H52  1  0.19674000  0.34770000  0.67140000  1.0 0.1803074076
H  H53  1  0.54034000  0.94179000  0.64934000  1.0 0.1586360429
H  H54  1  0.45966000  0.05821000  0.35066000  1.0 0.1586360429
H  H55  1  0.05361000  0.82550000  0.39719000  1.0 0.1300719134
H  H56  1  0.94639000  0.17450000  0.60281000  1.0 0.1300719134
H  H57  1  0.31334000  0.85706000  0.64038000  1.0 0.1803074076
H  H58  1  0.68666000  0.14294000  0.35962000  1.0 0.1803074076
H  H59  1  0.80060000  0.65587000  0.49128000  1.0 0.1803074076
H  H60  1  0.19940000  0.34413000  0.50872000  1.0 0.1803074076
H  H61  1  0.65938000  0.54124000  0.91973000  1.0 0.1505880126
H  H62  1  0.34062000  0.45876000  0.08027000  1.0 0.1505880126
H  H63  1  0.44332000  0.91404000  0.78035000  1.0 0.1215695545
H  H64  1  0.55668000  0.08596000  0.21965000  1.0 0.1215695545
H  H65  1  0.90289000  0.66329000  0.54660000  1.0 0.1505880126
H  H66  1  0.09711000  0.33671000  0.45340000  1.0 0.1505880126
H  H67  1  0.65430000  0.49118000  0.81423000  1.0 0.196967708
H  H68  1  0.34570000  0.50882000  0.18577000  1.0 0.2059631516
H  H69  1  0.47743000  0.82456000  0.80868000  1.0 0.1300719134
H  H70  1  0.52257000  0.17544000  0.19132000  1.0 0.1300719134
H  H71  1  0.41296000  0.00353000  0.77739000  1.0 0.1300719134
H  H72  1  0.58704000  0.99647000  0.22261000  1.0 0.1300719134
H  H73  1  0.68022000  0.89867000  0.87254000  1.0 0.1395491778
H  H74  1  0.31978000  0.10133000  0.12746000  1.0 0.1395491778
H  H75  1  0.64431000  0.62453000  0.96283000  1.0 0.1300719134
H  H76  1  0.35569000  0.37547000  0.03717000  1.0 0.1300719134
H  H77  1  0.62874000  0.99223000  0.64121000  1.0 0.1395491778
H  H78  1  0.37126000  0.00777000  0.35879000  1.0 0.1395491778
H  H79  1  0.83629000  0.48825000  0.83060000  1.0 0.1300719134
H  H80  1  0.16371000  0.51175000  0.16940000  1.0 0.1300719134
H  H81  1  0.27686000  0.78760000  0.69602000  1.0 0.1586360429
H  H82  1  0.72314000  0.21240000  0.30398000  1.0 0.1586360429
H  H83  1  0.96890000  0.77560000  0.41216000  1.0 0.1300719134
H  H84  1  0.03110000  0.22440000  0.58784000  1.0 0.1300719134
H  H85  1  0.69699000  0.73981000  0.20392000  1.0 0.1300719134
H  H86  1  0.30301000  0.26019000  0.79608000  1.0 0.1300719134
H  H87  1  0.74336000  0.71684000  0.28817000  1.0 0.1505880126
H  H88  1  0.25664000  0.28316000  0.71183000  1.0 0.1505880126
H  H89  1  0.64607000  0.32401000  0.81767000  1.0 0.1669219378
H  H90  1  0.35393000  0.67599000  0.18233000  1.0 0.1669219378
H  H91  1  0.55684000  0.31952000  0.80829000  1.0 0.0694629206
H  H92  1  0.44316000  0.68048000  0.19171000  1.0 0.0694629206
H  H93  1  0.50781000  0.32050000  0.75386000  1.0 0.089586528
H  H94  1  0.49219000  0.67950000  0.24614000  1.0 0.089586528
H  H95  1  0.56644000  0.30251000  0.74643000  1.0 -0.0109190622
H  H96  1  0.43356000  0.69749000  0.25357000  1.0 -0.0109190622
H  H97  1  0.54041000  0.41043000  0.84499000  1.0 0.0694629206
H  H98  1  0.45959000  0.58957000  0.15501000  1.0 0.0694629206
H  H99  1  0.56447000  0.46743000  0.82364000  1.0 0.0512794312
H  H100  1  0.43553000  0.53257000  0.17636000  1.0 0.0512794312
H  H101  1  0.50388000  0.42583000  0.78942000  1.0 0.0609023979
H  H102  1  0.49612000  0.57417000  0.21058000  1.0 0.0609023979
H  H103  1  0.59983000  0.46230000  0.73630000  1.0 0.0694629206
H  H104  1  0.40017000  0.53770000  0.26370000  1.0 0.0694629206
H  H105  1  0.59699000  0.40390000  0.69538000  1.0 0.0377681405
H  H106  1  0.40301000  0.59610000  0.30462000  1.0 0.0377681405
H  H107  1  0.53836000  0.42188000  0.70281000  1.0 -0.0487916215
H  H108  1  0.46164000  0.57812000  0.29719000  1.0 -0.0582100304
H  H109  1  0.81290000  0.55941000  0.46490000  1.0 0.1002962711
H  H110  1  0.18710000  0.44059000  0.53510000  1.0 0.1002962711
H  H111  1  0.78166000  0.50455000  0.41645000  1.0 -0.0208377219
H  H112  1  0.21834000  0.49545000  0.58355000  1.0 -0.0109190622
H  H113  1  0.83809000  0.54738000  0.41048000  1.0 0.0786639827
H  H114  1  0.16191000  0.45262000  0.58952000  1.0 0.0786639827
H  H115  1  0.72566000  0.51813000  0.32218000  1.0 0.0609023979
H  H116  1  0.27434000  0.48187000  0.67782000  1.0 0.0609023979
H  H117  1  0.72302000  0.58102000  0.31089000  1.0 0.0512794312
H  H118  1  0.27698000  0.41898000  0.68911000  1.0 0.0512794312
H  H119  1  0.78258000  0.56032000  0.31634000  1.0 0.0694629206
H  H120  1  0.21742000  0.43968000  0.68366000  1.0 0.0694629206
H  H121  1  0.73187000  0.58828000  0.46622000  1.0 0.0512794312
H  H122  1  0.26813000  0.41172000  0.53378000  1.0 0.0512794312
H  H123  1  0.68432000  0.59020000  0.41101000  1.0 0.1002962711
H  H124  1  0.31568000  0.40980000  0.58899000  1.0 0.1002962711
H  H125  1  0.69906000  0.53058000  0.42207000  1.0 0.0304976348
H  H126  1  0.30094000  0.46942000  0.57793000  1.0 0.0304976348
H  H127  1  0.45309000  0.84424000  0.54850000  1.0 -0.0109190622
H  H128  1  0.54691000  0.15576000  0.45150000  1.0 -0.0109190622
H  H129  1  0.40179000  0.82766000  0.49218000  1.0 -0.0582100304
H  H130  1  0.59821000  0.17234000  0.50782000  1.0 -0.0582100304
H  H131  1  0.41235000  0.88759000  0.53380000  1.0 0.0609023979
H  H132  1  0.58765000  0.11241000  0.46620000  1.0 0.0609023979
H  H133  1  0.30212000  0.80559000  0.49850000  1.0 0.0059832931
H  H134  1  0.69788000  0.19441000  0.50150000  1.0 0.0059832931
H  H135  1  0.28393000  0.80642000  0.55727000  1.0 -0.0801338386
H  H136  1  0.71607000  0.19358000  0.44273000  1.0 -0.0801338386
H  H137  1  0.31220000  0.86495000  0.54090000  1.0 0.1002962711
H  H138  1  0.68780000  0.13505000  0.45910000  1.0 0.1002962711
H  H139  1  0.41358000  0.75450000  0.58087000  1.0 0.0694629206
H  H140  1  0.58642000  0.24550000  0.41913000  1.0 0.0786639827
H  H141  1  0.34646000  0.73686000  0.58083000  1.0 0.0194417495
H  H142  1  0.65354000  0.26314000  0.41917000  1.0 0.0194417495
H  H143  1  0.36516000  0.73757000  0.52242000  1.0 0.1215695545
H  H144  1  0.63484000  0.26243000  0.47758000  1.0 0.1215695545
H  H145  1  0.72704000  0.59601000  0.31269000  1.0 0.0786639827
H  H146  1  0.27296000  0.40399000  0.68731000  1.0 0.0786639827
H  H147  1  0.70435000  0.53141000  0.31889000  1.0 -0.0208377219
H  H148  1  0.29565000  0.46859000  0.68111000  1.0 -0.0208377219
H  H149  1  0.67932000  0.58141000  0.34773000  1.0 0.1002962711
H  H150  1  0.32068000  0.41859000  0.65227000  1.0 0.1002962711
H  H151  1  0.73799000  0.51281000  0.42645000  1.0 0.0694629206
H  H152  1  0.26201000  0.48719000  0.57355000  1.0 0.0694629206
H  H153  1  0.79975000  0.55214000  0.46070000  1.0 0.1002962711
H  H154  1  0.20025000  0.44786000  0.53930000  1.0 0.1002962711
H  H155  1  0.74159000  0.57251000  0.46564000  1.0 -0.0295263614
H  H156  1  0.25841000  0.42749000  0.53436000  1.0 -0.0295263614
H  H157  1  0.58689000  0.45479000  0.72554000  1.0 0.0512794312
H  H158  1  0.41311000  0.54521000  0.27446000  1.0 0.0512794312
H  H159  1  0.52122000  0.43159000  0.72796000  1.0 0.1002962711
H  H160  1  0.47878000  0.56841000  0.27204000  1.0 0.1002962711
H  H161  1  0.56639000  0.47305000  0.78169000  1.0 0.0609023979
H  H162  1  0.43361000  0.52695000  0.21831000  1.0 0.0609023979
H  H163  1  0.54430000  0.34662000  0.82127000  1.0 0.0304976348
H  H164  1  0.45570000  0.65338000  0.17873000  1.0 0.0304976348
H  H165  1  0.54424000  0.41314000  0.83377000  1.0 0.0609023979
H  H166  1  0.45576000  0.58686000  0.16623000  1.0 0.0609023979
H  H167  1  0.49908000  0.37168000  0.78005000  1.0 0.0694629206
H  H168  1  0.50092000  0.62832000  0.21995000  1.0 0.0694629206
H  H169  1  0.81596000  0.55338000  0.34258000  1.0 0.0609023979
H  H170  1  0.18404000  0.44662000  0.65742000  1.0 0.0609023979
H  H171  1  0.83961000  0.55059000  0.40756000  1.0 0.0786639827
H  H172  1  0.16039000  0.44941000  0.59244000  1.0 0.0786639827
H  H173  1  0.78520000  0.50299000  0.36900000  1.0 0.111399978
H  H174  1  0.21480000  0.49701000  0.63100000  1.0 0.111399978
H  H175  1  0.60506000  0.35272000  0.70214000  1.0 0.0694629206
H  H176  1  0.39494000  0.64728000  0.29786000  1.0 0.0694629206
H  H177  1  0.58274000  0.30707000  0.73810000  1.0 0.0512794312
H  H178  1  0.41726000  0.69293000  0.26190000  1.0 0.0512794312
H  H179  1  0.53704000  0.33096000  0.69617000  1.0 0.1002962711
H  H180  1  0.46296000  0.66904000  0.30383000  1.0 0.1002962711
H  H181  1  0.43815000  0.79416000  0.55287000  1.0 0.0694629206
H  H182  1  0.56185000  0.20584000  0.44713000  1.0 0.0609023979
H  H183  1  0.39486000  0.80215000  0.49733000  1.0 0.0194417495
H  H184  1  0.60514000  0.19785000  0.50267000  1.0 0.0194417495
H  H185  1  0.43487000  0.85697000  0.54171000  1.0 0.0194417495
H  H186  1  0.56513000  0.14303000  0.45829000  1.0 0.0194417495
H  H187  1  0.31171000  0.86250000  0.54391000  1.0 0.1002962711
H  H188  1  0.68829000  0.13750000  0.45609000  1.0 0.1002962711
H  H189  1  0.37461000  0.89005000  0.53673000  1.0 0.1002962711
H  H190  1  0.62539000  0.10995000  0.46327000  1.0 0.1002962711
H  H191  1  0.33460000  0.83522000  0.49235000  1.0 0.111399978
H  H192  1  0.66540000  0.16478000  0.50765000  1.0 0.111399978
H  H193  1  0.29209000  0.78473000  0.58488000  1.0 0.0786639827
H  H194  1  0.70791000  0.21527000  0.41512000  1.0 0.0786639827
H  H195  1  0.29029000  0.76623000  0.51953000  1.0 0.0194417495
H  H196  1  0.70971000  0.23377000  0.48047000  1.0 0.0194417495
H  H197  1  0.32406000  0.73610000  0.56553000  1.0 -0.0487916215
H  H198  1  0.67594000  0.26390000  0.43447000  1.0 -0.0487916215
C  C1  1  0.95600000  0.72796000  0.68027000  1.0 -0.0416636889
C  C2  1  0.04400000  0.27204000  0.31973000  1.0 -0.0416636889
C  C3  1  0.85350000  0.81480000  0.55158000  1.0 0.111399978
C  C4  1  0.14650000  0.18520000  0.44842000  1.0 0.111399978
C  C5  1  0.21216000  0.85768000  0.80644000  1.0 -0.1220496783
C  C6  1  0.78784000  0.14232000  0.19356000  1.0 -0.1220496783
C  C7  1  0.18925000  0.80060000  0.78093000  1.0 -0.0582100304
C  C8  1  0.81075000  0.19940000  0.21907000  1.0 -0.0582100304
C  C9  1  0.93610000  0.77740000  0.67756000  1.0 -0.1275836382
C  C10  1  0.06390000  0.22260000  0.32244000  1.0 -0.1275836382
C  C11  1  0.29492000  0.94573000  0.81340000  1.0 -0.0208377219
C  C12  1  0.70508000  0.05427000  0.18660000  1.0 -0.0208377219
C  C13  1  0.78000000  0.33078000  0.93136000  1.0 0.1215695545
C  C14  1  0.22000000  0.66922000  0.06864000  1.0 0.1215695545
C  C15  1  0.79530000  0.19976000  0.78308000  1.0 -0.0582100304
C  C16  1  0.20470000  0.80024000  0.21692000  1.0 -0.0582100304
C  C17  1  0.34050000  0.95151000  0.78540000  1.0 0.111399978
C  C18  1  0.65950000  0.04849000  0.21460000  1.0 0.111399978
C  C19  1  0.91330000  0.62000000  0.85790000  1.0 -0.0416636889
C  C20  1  0.08670000  0.38000000  0.14210000  1.0 -0.0487916215
C  C21  1  0.62584000  0.92240000  0.76589000  1.0 -0.0208377219
C  C22  1  0.37416000  0.07760000  0.23411000  1.0 -0.0208377219
C  C23  1  0.81260000  0.21351000  0.84213000  1.0 -0.1275836382
C  C24  1  0.18740000  0.78649000  0.15787000  1.0 -0.1275836382
C  C25  1  0.80790000  0.28464000  0.92934000  1.0 -0.0208377219
C  C26  1  0.19210000  0.71536000  0.07066000  1.0 -0.0208377219
C  C27  1  0.91608000  0.80870000  0.28960000  1.0 -0.0208377219
C  C28  1  0.08392000  0.19130000  0.71040000  1.0 -0.0208377219
C  C29  1  0.61015000  0.85286000  0.89232000  1.0 -0.0487916215
C  C30  1  0.38985000  0.14714000  0.10768000  1.0 -0.0487916215
C  C31  1  0.99159000  0.71965000  0.73395000  1.0 0.5707551084
C  C32  1  0.00841000  0.28035000  0.26605000  1.0 0.5707551084
C  C33  1  0.87674000  0.88366000  0.63728000  1.0 -0.1103682403
C  C34  1  0.12326000  0.11634000  0.36272000  1.0 -0.1103682403
C  C35  1  0.14073000  0.76689000  0.79777000  1.0 0.5707551084
C  C36  1  0.85927000  0.23311000  0.20223000  1.0 0.5707551084
C  C37  1  0.77000000  0.67960000  0.94120000  1.0 -0.148876246
C  C38  1  0.23000000  0.32040000  0.05880000  1.0 -0.148876246
C  C39  1  0.29180000  0.99120000  0.85190000  1.0 -0.1220496783
C  C40  1  0.70820000  0.00880000  0.14810000  1.0 -0.1220496783
C  C41  1  0.84392000  0.97465000  0.63872000  1.0 0.5707551084
C  C42  1  0.15608000  0.02535000  0.36128000  1.0 0.5707551084
C  C43  1  0.64044000  0.84263000  0.94688000  1.0 0.5707551084
C  C44  1  0.35956000  0.15737000  0.05312000  1.0 0.5707551084
C  C45  1  0.79570000  0.25838000  0.87103000  1.0 -0.0208377219
C  C46  1  0.20430000  0.74162000  0.12897000  1.0 -0.0208377219
C  C47  1  0.84472000  0.72710000  0.37953000  1.0 0.1215695545
C  C48  1  0.15528000  0.27290000  0.62047000  1.0 0.1215695545
C  C49  1  0.76170000  0.28963000  0.84008000  1.0 0.1215695545
C  C50  1  0.23830000  0.71037000  0.15992000  1.0 0.1215695545
C  C51  1  0.82600000  0.85000000  0.52010000  1.0 -0.2095314692
C  C52  1  0.17400000  0.15000000  0.47990000  1.0 -0.2095314692
C  C53  1  0.87920000  0.83184000  0.60922000  1.0 -0.0208377219
C  C54  1  0.12080000  0.16816000  0.39078000  1.0 -0.0208377219
C  C55  1  0.01800000  0.84660000  0.32210000  1.0 -0.0295263614
C  C56  1  0.98200000  0.15340000  0.67790000  1.0 -0.0295263614
C  C57  1  0.60891000  0.89315000  0.80886000  1.0 -0.0208377219
C  C58  1  0.39109000  0.10685000  0.19114000  1.0 -0.0208377219
C  C59  1  0.33360000  0.04210000  0.86310000  1.0 -0.0295263614
C  C60  1  0.66640000  0.95790000  0.13690000  1.0 -0.0295263614
C  C61  1  0.37303000  0.88634000  0.71510000  1.0 0.111399978
C  C62  1  0.62697000  0.11366000  0.28490000  1.0 0.111399978
C  C63  1  0.84890000  0.91970000  0.60878000  1.0 -0.0487916215
C  C64  1  0.15110000  0.08030000  0.39122000  1.0 -0.0487916215
C  C65  1  0.67850000  0.95269000  0.76000000  1.0 -0.1429266315
C  C66  1  0.32150000  0.04731000  0.24000000  1.0 -0.148876246
C  C67  1  0.54829000  0.87270000  0.79160000  1.0 0.1215695545
C  C68  1  0.45171000  0.12730000  0.20840000  1.0 0.111399978
C  C69  1  0.37900000  0.04550000  0.83580000  1.0 -0.0801338386
C  C70  1  0.62100000  0.95450000  0.16420000  1.0 -0.0801338386
C  C71  1  0.70780000  0.73080000  0.98921000  1.0 0.5707551084
C  C72  1  0.29220000  0.26920000  0.01079000  1.0 0.5707551084
C  C73  1  0.25920000  0.88867000  0.79200000  1.0 -0.0208377219
C  C74  1  0.74080000  0.11133000  0.20800000  1.0 -0.0208377219
C  C75  1  0.90400000  0.78494000  0.62659000  1.0 -0.0208377219
C  C76  1  0.09600000  0.21506000  0.37341000  1.0 -0.0208377219
C  C77  1  0.76140000  0.23180000  0.75370000  1.0 -0.0701582059
C  C78  1  0.23860000  0.76820000  0.24630000  1.0 -0.0701582059
C  C79  1  0.71923000  0.67733000  0.95990000  1.0 -0.0295263614
C  C80  1  0.28077000  0.32267000  0.04010000  1.0 -0.0295263614
C  C81  1  0.46813000  0.87870000  0.71162000  1.0 0.111399978
C  C82  1  0.53187000  0.12130000  0.28838000  1.0 0.111399978
C  C83  1  0.85630000  0.79390000  0.25656000  1.0 -0.0208377219
C  C84  1  0.14370000  0.20610000  0.74344000  1.0 -0.0208377219
C  C85  1  0.91674000  0.78450000  0.33853000  1.0 0.1215695545
C  C86  1  0.08326000  0.21550000  0.66147000  1.0 0.1215695545
C  C87  1  0.82820000  0.80570000  0.20677000  1.0 -0.1275836382
C  C88  1  0.17180000  0.19430000  0.79323000  1.0 -0.1275836382
C  C89  1  0.07330000  0.87930000  0.31440000  1.0 0.5707551084
C  C90  1  0.92670000  0.12070000  0.68560000  1.0 0.5707551084
C  C91  1  0.81180000  0.15184000  0.75189000  1.0 0.5707551084
C  C92  1  0.18820000  0.84816000  0.24811000  1.0 0.5707551084
C  C93  1  0.81090000  0.55590000  0.87020000  1.0 0.1215695545
C  C94  1  0.18910000  0.44410000  0.12980000  1.0 0.1215695545
C  C95  1  0.73810000  0.57720000  0.90590000  1.0 0.1300719134
C  C96  1  0.26190000  0.42280000  0.09410000  1.0 0.1300719134
C  C97  1  0.76880000  0.78540000  0.18678000  1.0 -0.0487916215
C  C98  1  0.23120000  0.21460000  0.81322000  1.0 -0.0416636889
C  C99  1  0.83930000  0.27442000  0.97934000  1.0 -0.1220496783
C  C100  1  0.16070000  0.72558000  0.02066000  1.0 -0.1275836382
C  C101  1  0.77980000  0.62930000  0.91430000  1.0 -0.0208377219
C  C102  1  0.22020000  0.37070000  0.08570000  1.0 -0.0109190622
C  C103  1  0.96711000  0.84000000  0.28174000  1.0 -0.1220496783
C  C104  1  0.03289000  0.16000000  0.71826000  1.0 -0.1220496783
C  C105  1  0.82339000  0.76000000  0.28716000  1.0 0.1300719134
C  C106  1  0.17661000  0.24000000  0.71284000  1.0 0.1300719134
C  C107  1  0.87730000  0.64740000  0.88470000  1.0 -0.1103682403
C  C108  1  0.12270000  0.35260000  0.11530000  1.0 -0.1220496783
C  C109  1  0.32810000  0.09198000  0.90320000  1.0 0.5707551084
C  C110  1  0.67190000  0.90802000  0.09680000  1.0 0.5707551084
C  C111  1  0.89160000  0.74200000  0.57822000  1.0 0.1300719134
C  C112  1  0.10840000  0.25800000  0.42178000  1.0 0.1300719134
C  C113  1  0.44940000  0.85400000  0.65580000  1.0 -0.3012167644
C  C114  1  0.55060000  0.14600000  0.34420000  1.0 -0.3012167644
C  C115  1  0.84380000  0.73000000  0.47584000  1.0 0.1395491778
C  C116  1  0.15620000  0.27000000  0.52416000  1.0 0.1395491778
C  C117  1  0.21420000  0.77550000  0.73980000  1.0 -0.0701582059
C  C118  1  0.78580000  0.22450000  0.26020000  1.0 -0.0701582059
C  C119  1  0.78160000  0.36520000  0.98290000  1.0 -0.1999683957
C  C120  1  0.21840000  0.63480000  0.01710000  1.0 -0.1999683957
C  C121  1  0.54930000  0.83090000  0.87270000  1.0 -0.0701582059
C  C122  1  0.45070000  0.16910000  0.12730000  1.0 -0.0701582059
C  C123  1  0.85970000  0.75680000  0.43401000  1.0 -0.2800270673
C  C124  1  0.14030000  0.24320000  0.56599000  1.0 -0.2800270673
C  C125  1  0.94280000  0.68570000  0.63200000  1.0 -0.0701582059
C  C126  1  0.05720000  0.31430000  0.36800000  1.0 -0.0701582059
C  C127  1  0.28383000  0.86250000  0.75130000  1.0 0.1395491778
C  C128  1  0.71617000  0.13750000  0.24870000  1.0 0.1395491778
C  C129  1  0.82630000  0.61510000  0.89060000  1.0 -0.0295263614
C  C130  1  0.17370000  0.38490000  0.10940000  1.0 -0.0295263614
C  C131  1  0.57460000  0.91820000  0.72430000  1.0 0.1300719134
C  C132  1  0.42540000  0.08180000  0.27570000  1.0 0.1300719134
C  C133  1  0.72690000  0.47490000  0.86180000  1.0 0.1395491778
C  C134  1  0.27310000  0.52510000  0.13820000  1.0 0.1395491778
C  C135  1  0.74370000  0.27690000  0.78160000  1.0 -0.1689146012
C  C136  1  0.25630000  0.72310000  0.21840000  1.0 -0.1689146012
C  C137  1  0.75340000  0.43280000  0.87886000  1.0 -0.2800270673
C  C138  1  0.24660000  0.56720000  0.12114000  1.0 -0.2800270673
C  C139  1  0.84390000  0.30940000  0.02987000  1.0 -0.0295263614
C  C140  1  0.15610000  0.69060000  0.97013000  1.0 -0.0295263614
C  C141  1  0.88030000  0.30080000  0.08360000  1.0 0.5707551084
C  C142  1  0.11970000  0.69920000  0.91640000  1.0 0.5707551084
C  C143  1  0.81410000  0.35420000  0.03067000  1.0 -0.0801338386
C  C144  1  0.18590000  0.64580000  0.96933000  1.0 -0.0801338386
C  C145  1  0.96670000  0.65370000  0.84846000  1.0 0.5707551084
C  C146  1  0.03330000  0.34630000  0.15154000  1.0 0.5707551084
C  C147  1  0.82370000  0.90170000  0.55060000  1.0 -0.0701582059
C  C148  1  0.17630000  0.09830000  0.44940000  1.0 -0.0701582059
C  C149  1  0.89780000  0.56230000  0.83920000  1.0 -0.0701582059
C  C150  1  0.10220000  0.43770000  0.16080000  1.0 -0.0701582059
C  C151  1  0.81390000  0.67190000  0.36670000  1.0 -0.3012167644
C  C152  1  0.18610000  0.32810000  0.63330000  1.0 -0.3012167644
C  C153  1  0.57500000  0.94440000  0.67700000  1.0 -0.160065094
C  C154  1  0.42500000  0.05560000  0.32300000  1.0 -0.160065094
C  C155  1  0.01800000  0.82140000  0.37020000  1.0 -0.0801338386
C  C156  1  0.98200000  0.17860000  0.62980000  1.0 -0.0801338386
C  C157  1  0.35320000  0.86220000  0.65840000  1.0 -0.3098553788
C  C158  1  0.64680000  0.13780000  0.34160000  1.0 -0.3098553788
C  C159  1  0.81220000  0.67370000  0.46232000  1.0 -0.3098553788
C  C160  1  0.18780000  0.32630000  0.53768000  1.0 -0.3171160153
C  C161  1  0.67927000  0.97770000  0.71246000  1.0 -0.0416636889
C  C162  1  0.32073000  0.02230000  0.28754000  1.0 -0.0416636889
C  C163  1  0.68720000  0.57600000  0.92490000  1.0 -0.148876246
C  C164  1  0.31280000  0.42400000  0.07510000  1.0 -0.148876246
C  C165  1  0.42985000  0.89590000  0.74176000  1.0 -0.270679472
C  C166  1  0.57015000  0.10410000  0.25824000  1.0 -0.270679472
C  C167  1  0.91080000  0.69190000  0.57950000  1.0 -0.160065094
C  C168  1  0.08920000  0.30810000  0.42050000  1.0 -0.160065094
C  C169  1  0.72320000  0.37696000  0.86125000  1.0 0.1395491778
C  C170  1  0.27680000  0.62304000  0.13875000  1.0 0.1395491778
C  C171  1  0.67120000  0.46160000  0.82690000  1.0 -0.3171160153
C  C172  1  0.32880000  0.53840000  0.17310000  1.0 -0.3171160153
C  C173  1  0.51800000  0.84010000  0.82190000  1.0 -0.1999683957
C  C174  1  0.48200000  0.15990000  0.17810000  1.0 -0.1999683957
C  C175  1  0.38240000  0.00040000  0.79620000  1.0 -0.1920192769
C  C176  1  0.61760000  0.99960000  0.20380000  1.0 -0.1920192769
C  C177  1  0.63950000  0.88385000  0.85999000  1.0 -0.1103682403
C  C178  1  0.36050000  0.11615000  0.14001000  1.0 -0.1103682403
C  C179  1  0.73820000  0.79750000  0.13281000  1.0 0.5707551084
C  C180  1  0.26180000  0.20250000  0.86719000  1.0 0.5707551084
C  C181  1  0.67900000  0.62510000  0.95050000  1.0 -0.0801338386
C  C182  1  0.32100000  0.37490000  0.04950000  1.0 -0.0801338386
C  C183  1  0.62750000  0.97380000  0.67260000  1.0 -0.0801338386
C  C184  1  0.37250000  0.02620000  0.32740000  1.0 -0.0801338386
C  C185  1  0.79740000  0.64330000  0.40810000  1.0 0.1300719134
C  C186  1  0.20260000  0.35670000  0.59190000  1.0 0.1300719134
C  C187  1  0.84640000  0.52830000  0.84430000  1.0 -0.2095314692
C  C188  1  0.15360000  0.47170000  0.15570000  1.0 -0.2095314692
C  C189  1  0.39100000  0.84550000  0.62750000  1.0 0.1669219378
C  C190  1  0.60900000  0.15450000  0.37250000  1.0 0.1669219378
C  C191  1  0.64040000  0.40580000  0.81060000  1.0 0.1395491778
C  C192  1  0.35960000  0.59420000  0.18940000  1.0 0.1300719134
C  C193  1  0.26090000  0.80510000  0.72410000  1.0 -0.1689146012
C  C194  1  0.73910000  0.19490000  0.27590000  1.0 -0.1689146012
C  C195  1  0.73540000  0.00980000  0.70540000  1.0 0.5630657841
C  C196  1  0.26460000  0.99020000  0.29460000  1.0 0.5630657841
C  C197  1  0.96840000  0.79140000  0.37900000  1.0 -0.1920192769
C  C198  1  0.03160000  0.20860000  0.62100000  1.0 -0.1920192769
C  C199  1  0.73780000  0.75300000  0.21770000  1.0 -0.0701582059
C  C200  1  0.26220000  0.24700000  0.78230000  1.0 -0.0701582059
C  C201  1  0.76480000  0.73950000  0.26790000  1.0 -0.1689146012
C  C202  1  0.23520000  0.26050000  0.73210000  1.0 -0.1689146012
C  C203  1  0.66666667  0.36280000  0.82820000  1.0 -0.3098553788
C  C204  1  0.33333333  0.63720000  0.17180000  1.0 -0.3098553788
C  C205  1  0.37030000  0.81820000  0.56560000  1.0 0.1900235247
C  C206  1  0.62970000  0.18180000  0.43440000  1.0 0.1900235247
C  C207  1  0.76330000  0.58060000  0.39320000  1.0 0.2701062728
C  C208  1  0.23670000  0.41940000  0.60680000  1.0 0.2701062728
C  C209  1  0.57810000  0.39080000  0.77170000  1.0 0.2443031687
C  C210  1  0.42190000  0.60920000  0.22830000  1.0 0.2443031687
C  C211  1  0.54970000  0.32750000  0.76990000  1.0 -0.1814793553
C  C212  1  0.45030000  0.67250000  0.23010000  1.0 -0.1814793553
C  C213  1  0.54300000  0.42750000  0.81170000  1.0 -0.1999683957
C  C214  1  0.45700000  0.57250000  0.18830000  1.0 -0.1999683957
C  C215  1  0.57830000  0.42260000  0.72200000  1.0 -0.1689146012
C  C216  1  0.42170000  0.57740000  0.27800000  1.0 -0.1689146012
C  C217  1  0.80270000  0.54460000  0.42410000  1.0 -0.1920192769
C  C218  1  0.19730000  0.45540000  0.57590000  1.0 -0.1920192769
C  C219  1  0.74720000  0.55800000  0.33010000  1.0 -0.1999683957
C  C220  1  0.25280000  0.44200000  0.66990000  1.0 -0.1999683957
C  C221  1  0.71520000  0.57160000  0.42620000  1.0 -0.2095314692
C  C222  1  0.28480000  0.42840000  0.57380000  1.0 -0.2095314692
C  C223  1  0.41360000  0.84720000  0.53180000  1.0 -0.0582100304
C  C224  1  0.58640000  0.15280000  0.46820000  1.0 -0.0582100304
C  C225  1  0.31230000  0.82430000  0.53830000  1.0 -0.1275836382
C  C226  1  0.68770000  0.17570000  0.46170000  1.0 -0.1220496783
C  C227  1  0.37420000  0.75630000  0.56210000  1.0 -0.2182626929
C  C228  1  0.62580000  0.24370000  0.43790000  1.0 -0.2182626929
C  C229  1  0.71390000  0.57150000  0.33790000  1.0 -0.2507600318
C  C230  1  0.28610000  0.42850000  0.66210000  1.0 -0.2507600318
C  C231  1  0.76040000  0.55230000  0.44020000  1.0 -0.1429266315
C  C232  1  0.23960000  0.44770000  0.55980000  1.0 -0.148876246
C  C233  1  0.56170000  0.44210000  0.74980000  1.0 -0.2095314692
C  C234  1  0.43830000  0.55790000  0.25020000  1.0 -0.2095314692
C  C235  1  0.53850000  0.37970000  0.80400000  1.0 -0.1920192769
C  C236  1  0.46150000  0.62030000  0.19600000  1.0 -0.1920192769
C  C237  1  0.80480000  0.54350000  0.37650000  1.0 -0.1920192769
C  C238  1  0.19520000  0.45650000  0.62350000  1.0 -0.1920192769
C  C239  1  0.57550000  0.34060000  0.72240000  1.0 -0.2625907343
C  C240  1  0.42450000  0.65940000  0.27760000  1.0 -0.2625907343
C  C241  1  0.41200000  0.81800000  0.53700000  1.0 -0.1275836382
C  C242  1  0.58800000  0.18200000  0.46300000  1.0 -0.1275836382
C  C243  1  0.34600000  0.85400000  0.53210000  1.0 -0.1920192769
C  C244  1  0.65400000  0.14600000  0.46790000  1.0 -0.1920192769
C  C245  1  0.31400000  0.77200000  0.55820000  1.0 -0.148876246
C  C246  1  0.68600000  0.22800000  0.44180000  1.0 -0.148876246
N  N1  1  0.33196000  0.90104000  0.74737000  1.0 -0.091753203
N  N2  1  0.66804000  0.09896000  0.25263000  1.0 -0.091753203
N  N3  1  0.86014000  0.76015000  0.53287000  1.0 -0.091753203
N  N4  1  0.13986000  0.23985000  0.46713000  1.0 -0.091753203
N  N5  1  0.86088000  0.75518000  0.33616000  1.0 -0.091753203
N  N6  1  0.13912000  0.24482000  0.66384000  1.0 -0.091753203
N  N7  1  0.75137000  0.33281000  0.87749000  1.0 -0.091753203
N  N8  1  0.24863000  0.66719000  0.12251000  1.0 -0.091753203
N  N9  1  0.52815000  0.88786000  0.73996000  1.0 -0.091753203
N  N10  1  0.47185000  0.11214000  0.26004000  1.0 -0.091753203
N  N11  1  0.75772000  0.53347000  0.87887000  1.0 -0.1103682403
N  N12  1  0.24228000  0.46653000  0.12113000  1.0 -0.1103682403
O  O1  1  0.12583000  0.71362000  0.77756000  1.0 -0.5280772942
O  O2  1  0.87417000  0.28638000  0.22244000  1.0 -0.5280772942
O  O3  1  0.00840000  0.67392000  0.73398000  1.0 -0.5130314063
O  O4  1  0.99160000  0.32608000  0.26602000  1.0 -0.5130314063
O  O5  1  0.00289000  0.76010000  0.77620000  1.0 -0.5207681153
O  O6  1  0.99711000  0.23990000  0.22380000  1.0 -0.5280772942
O  O7  1  0.86693000  0.98711000  0.69194000  1.0 -0.5392079285
O  O8  1  0.13307000  0.01289000  0.30806000  1.0 -0.5392079285
O  O9  1  0.84064000  0.12237000  0.77938000  1.0 -0.5207681153
O  O10  1  0.15936000  0.87763000  0.22062000  1.0 -0.5207681153
O  O11  1  0.60981000  0.81380000  0.97376000  1.0 -0.5392079285
O  O12  1  0.39019000  0.18620000  0.02624000  1.0 -0.5392079285
O  O13  1  0.79535000  0.14305000  0.69826000  1.0 -0.5280772942
O  O14  1  0.20465000  0.85695000  0.30174000  1.0 -0.5280772942
O  O15  1  0.36837000  0.13715000  0.91301000  1.0 -0.5392079285
O  O16  1  0.63163000  0.86285000  0.08699000  1.0 -0.5392079285
O  O17  1  0.74601000  0.77679000  0.99617000  1.0 -0.5280772942
O  O18  1  0.25399000  0.22321000  0.00383000  1.0 -0.5280772942
O  O19  1  0.69467000  0.86267000  0.96355000  1.0 -0.5207681153
O  O20  1  0.30533000  0.13733000  0.03645000  1.0 -0.5207681153
O  O21  1  0.66124000  0.72704000  0.00447000  1.0 -0.5280772942
O  O22  1  0.33876000  0.27296000  0.99553000  1.0 -0.5280772942
O  O23  1  0.28492000  0.08654000  0.92361000  1.0 -0.5207681153
O  O24  1  0.71508000  0.91346000  0.07639000  1.0 -0.5207681153
O  O25  1  0.11760000  0.79281000  0.83189000  1.0 -0.5280772942
O  O26  1  0.88240000  0.20719000  0.16811000  1.0 -0.5207681153
O  O27  1  0.88233000  0.33500000  0.12860000  1.0 -0.5392079285
O  O28  1  0.11767000  0.66500000  0.87140000  1.0 -0.5392079285
O  O29  1  0.81669000  0.00538000  0.61152000  1.0 -0.5207681153
O  O30  1  0.18331000  0.99462000  0.38848000  1.0 -0.5207681153
O  O31  1  0.97742000  0.70856000  0.86286000  1.0 -0.5392079285
O  O32  1  0.02258000  0.29144000  0.13714000  1.0 -0.5392079285
O  O33  1  0.99914000  0.62655000  0.82724000  1.0 -0.5280772942
O  O34  1  0.00086000  0.37345000  0.17276000  1.0 -0.5280772942
O  O35  1  0.07167000  0.90079000  0.27096000  1.0 -0.5207681153
O  O36  1  0.92833000  0.09921000  0.72904000  1.0 -0.5207681153
O  O37  1  0.78086000  0.01114000  0.74223000  1.0 -0.5280772942
O  O38  1  0.21914000  0.98886000  0.25777000  1.0 -0.5280772942
O  O39  1  0.73312000  0.03333000  0.66221000  1.0 -0.5207681153
O  O40  1  0.26688000  0.96667000  0.33779000  1.0 -0.5207681153
O  O41  1  0.76810000  0.82860000  0.10756000  1.0 -0.5280772942
O  O42  1  0.23190000  0.17140000  0.89244000  1.0 -0.5280772942
O  O43  1  0.90640000  0.26084000  0.08092000  1.0 -0.5207681153
O  O44  1  0.09360000  0.73916000  0.91908000  1.0 -0.5207681153
O  O45  1  0.11885000  0.88312000  0.35342000  1.0 -0.5392079285
O  O46  1  0.88115000  0.11688000  0.64658000  1.0 -0.5392079285
O  O47  1  0.68389000  0.77714000  0.11581000  1.0 -0.5280772942
O  O48  1  0.31611000  0.22286000  0.88419000  1.0 -0.5280772942
