# DDEC6 charges by PACMAN v1.1 (https://github.com/mtap-research/PACMAN-charge/)
data_IDORAW_FSR_pacman
_symmetry_space_group_name_H-M   'P 1'
_cell_length_a   20.46700000
_cell_length_b   20.46700000
_cell_length_c   34.34400000
_cell_angle_alpha   90.00000000
_cell_angle_beta   90.00000000
_cell_angle_gamma   90.00000000
_symmetry_Int_Tables_number   1
_chemical_formula_structural   MnCuH4C11N2O9
_chemical_formula_sum   'Mn16 Cu16 H64 C176 N32 O144'
_cell_volume   14386.63596862
_cell_formula_units_Z   16
loop_
 _symmetry_equiv_pos_site_id
 _symmetry_equiv_pos_as_xyz
  1  'x, y, z'
loop_
 _atom_site_type_symbol
 _atom_site_label
 _atom_site_symmetry_multiplicity
 _atom_site_fract_x
 _atom_site_fract_y
 _atom_site_fract_z
 _atom_site_occupancy
 _atom_site_charge
Mn  Mn1  1  0.31852000  0.13038000  0.19785000  1.0 0.9990816587
Mn  Mn2  1  0.68148000  0.86962000  0.69785000  1.0 0.9990816587
Mn  Mn3  1  0.36962000  0.81852000  0.44785000  1.0 0.9990816587
Mn  Mn4  1  0.63038000  0.18148000  0.94785000  1.0 0.9990816587
Mn  Mn5  1  0.18148000  0.63038000  0.05215000  1.0 0.9990816587
Mn  Mn6  1  0.81852000  0.36962000  0.55215000  1.0 0.9990816587
Mn  Mn7  1  0.13038000  0.31852000  0.80215000  1.0 0.9990816587
Mn  Mn8  1  0.86962000  0.68148000  0.30215000  1.0 0.9990816587
Mn  Mn9  1  0.11302000  0.31028000  0.21380000  1.0 0.9945128514
Mn  Mn10  1  0.88698000  0.68972000  0.71380000  1.0 0.9990816587
Mn  Mn11  1  0.18972000  0.61302000  0.46380000  1.0 0.9945128514
Mn  Mn12  1  0.81028000  0.38698000  0.96380000  1.0 0.9945128514
Mn  Mn13  1  0.38698000  0.81028000  0.03620000  1.0 0.9945128514
Mn  Mn14  1  0.61302000  0.18972000  0.53620000  1.0 0.9945128514
Mn  Mn15  1  0.31028000  0.11302000  0.78620000  1.0 0.9945128514
Mn  Mn16  1  0.68972000  0.88698000  0.28620000  1.0 0.9990816587
Cu  Cu1  1  0.31323000  0.97107000  0.92029000  1.0 0.7816366457
Cu  Cu2  1  0.68677000  0.02893000  0.42029000  1.0 0.7816366457
Cu  Cu3  1  0.52893000  0.81323000  0.17029000  1.0 0.7816366457
Cu  Cu4  1  0.47107000  0.18677000  0.67029000  1.0 0.7816366457
Cu  Cu5  1  0.18677000  0.47107000  0.32971000  1.0 0.7816366457
Cu  Cu6  1  0.81323000  0.52893000  0.82971000  1.0 0.7816366457
Cu  Cu7  1  0.97107000  0.31323000  0.07971000  1.0 0.7816366457
Cu  Cu8  1  0.02893000  0.68677000  0.57971000  1.0 0.7816366457
Cu  Cu9  1  0.45192000  0.17063000  0.06390000  1.0 0.7721820825
Cu  Cu10  1  0.54808000  0.82937000  0.56390000  1.0 0.7721820825
Cu  Cu11  1  0.32937000  0.95192000  0.31390000  1.0 0.7721820825
Cu  Cu12  1  0.67063000  0.04808000  0.81390000  1.0 0.7721820825
Cu  Cu13  1  0.04808000  0.67063000  0.18610000  1.0 0.7721820825
Cu  Cu14  1  0.95192000  0.32937000  0.68610000  1.0 0.7721820825
Cu  Cu15  1  0.17063000  0.45192000  0.93610000  1.0 0.7721820825
Cu  Cu16  1  0.82937000  0.54808000  0.43610000  1.0 0.7721820825
H  H1  1  0.38820000  0.03810000  0.03160000  1.0 0.1667541636
H  H2  1  0.61180000  0.96190000  0.53160000  1.0 0.1667541636
H  H3  1  0.46190000  0.88820000  0.28160000  1.0 0.1667541636
H  H4  1  0.53810000  0.11180000  0.78160000  1.0 0.1667541636
H  H5  1  0.11180000  0.53810000  0.21840000  1.0 0.1667541636
H  H6  1  0.88820000  0.46190000  0.71840000  1.0 0.1667541636
H  H7  1  0.03810000  0.38820000  0.96840000  1.0 0.1667541636
H  H8  1  0.96190000  0.61180000  0.46840000  1.0 0.1667541636
H  H9  1  0.20960000  0.02580000  0.98240000  1.0 0.1480677013
H  H10  1  0.79040000  0.97420000  0.48240000  1.0 0.1480677013
H  H11  1  0.47420000  0.70960000  0.23240000  1.0 0.1480677013
H  H12  1  0.52580000  0.29040000  0.73240000  1.0 0.1480677013
H  H13  1  0.29040000  0.52580000  0.26760000  1.0 0.1480677013
H  H14  1  0.70960000  0.47420000  0.76760000  1.0 0.1480677013
H  H15  1  0.02580000  0.20960000  0.01760000  1.0 0.1480677013
H  H16  1  0.97420000  0.79040000  0.51760000  1.0 0.1480677013
H  H17  1  0.17110000  0.10440000  0.02440000  1.0 0.1193937954
H  H18  1  0.82890000  0.89560000  0.52440000  1.0 0.1193937954
H  H19  1  0.39560000  0.67110000  0.27440000  1.0 0.1193937954
H  H20  1  0.60440000  0.32890000  0.77440000  1.0 0.1193937954
H  H21  1  0.32890000  0.60440000  0.22560000  1.0 0.1193937954
H  H22  1  0.67110000  0.39560000  0.72560000  1.0 0.1193937954
H  H23  1  0.10440000  0.17110000  0.97560000  1.0 0.1193937954
H  H24  1  0.89560000  0.82890000  0.47560000  1.0 0.1193937954
H  H25  1  0.23950000  0.15080000  0.07080000  1.0 0.1480677013
H  H26  1  0.76050000  0.84920000  0.57080000  1.0 0.1480677013
H  H27  1  0.34920000  0.73950000  0.32080000  1.0 0.1480677013
H  H28  1  0.65080000  0.26050000  0.82080000  1.0 0.1480677013
H  H29  1  0.26050000  0.65080000  0.17920000  1.0 0.1480677013
H  H30  1  0.73950000  0.34920000  0.67920000  1.0 0.1480677013
H  H31  1  0.15080000  0.23950000  0.92920000  1.0 0.1480677013
H  H32  1  0.84920000  0.76050000  0.42920000  1.0 0.1480677013
H  H33  1  0.41830000  0.08480000  0.95220000  1.0 0.1667541636
H  H34  1  0.58170000  0.91520000  0.45220000  1.0 0.1667541636
H  H35  1  0.41520000  0.91830000  0.20220000  1.0 0.1667541636
H  H36  1  0.58480000  0.08170000  0.70220000  1.0 0.1667541636
H  H37  1  0.08170000  0.58480000  0.29780000  1.0 0.1667541636
H  H38  1  0.91830000  0.41520000  0.79780000  1.0 0.1667541636
H  H39  1  0.08480000  0.41830000  0.04780000  1.0 0.1667541636
H  H40  1  0.91520000  0.58170000  0.54780000  1.0 0.1667541636
H  H41  1  0.25130000  0.17000000  0.91820000  1.0 0.1480677013
H  H42  1  0.74870000  0.83000000  0.41820000  1.0 0.1480677013
H  H43  1  0.33000000  0.75130000  0.16820000  1.0 0.1480677013
H  H44  1  0.67000000  0.24870000  0.66820000  1.0 0.1480677013
H  H45  1  0.24870000  0.67000000  0.33180000  1.0 0.1480677013
H  H46  1  0.75130000  0.33000000  0.83180000  1.0 0.1480677013
H  H47  1  0.17000000  0.25130000  0.08180000  1.0 0.1480677013
H  H48  1  0.83000000  0.74870000  0.58180000  1.0 0.1480677013
H  H49  1  0.26840000  0.25420000  0.96090000  1.0 0.1193937954
H  H50  1  0.73160000  0.74580000  0.46090000  1.0 0.1193937954
H  H51  1  0.24580000  0.76840000  0.21090000  1.0 0.1193937954
H  H52  1  0.75420000  0.23160000  0.71090000  1.0 0.1193937954
H  H53  1  0.23160000  0.75420000  0.28910000  1.0 0.1193937954
H  H54  1  0.76840000  0.24580000  0.78910000  1.0 0.1193937954
H  H55  1  0.25420000  0.26840000  0.03910000  1.0 0.1193937954
H  H56  1  0.74580000  0.73160000  0.53910000  1.0 0.1193937954
H  H57  1  0.36100000  0.25270000  0.00200000  1.0 0.1480677013
H  H58  1  0.63900000  0.74730000  0.50200000  1.0 0.1480677013
H  H59  1  0.24730000  0.86100000  0.25200000  1.0 0.1480677013
H  H60  1  0.75270000  0.13900000  0.75200000  1.0 0.1480677013
H  H61  1  0.13900000  0.75270000  0.24800000  1.0 0.1480677013
H  H62  1  0.86100000  0.24730000  0.74800000  1.0 0.1480677013
H  H63  1  0.25270000  0.36100000  0.99800000  1.0 0.1480677013
H  H64  1  0.74730000  0.63900000  0.49800000  1.0 0.1480677013
C  C1  1  0.34480000  0.05130000  0.03046000  1.0 -0.2383081711
C  C2  1  0.65520000  0.94870000  0.53046000  1.0 -0.2383081711
C  C3  1  0.44870000  0.84480000  0.28046000  1.0 -0.2383081711
C  C4  1  0.55130000  0.15520000  0.78046000  1.0 -0.2383081711
C  C5  1  0.15520000  0.55130000  0.21954000  1.0 -0.2383081711
C  C6  1  0.84480000  0.44870000  0.71954000  1.0 -0.2383081711
C  C7  1  0.05130000  0.34480000  0.96954000  1.0 -0.2383081711
C  C8  1  0.94870000  0.65520000  0.46954000  1.0 -0.2383081711
C  C9  1  0.30140000  0.02190000  0.00379000  1.0 0.2626952309
C  C10  1  0.69860000  0.97810000  0.50379000  1.0 0.2626952309
C  C11  1  0.47810000  0.80140000  0.25379000  1.0 0.2626952309
C  C12  1  0.52190000  0.19860000  0.75379000  1.0 0.2626952309
C  C13  1  0.19860000  0.52190000  0.24621000  1.0 0.2626952309
C  C14  1  0.80140000  0.47810000  0.74621000  1.0 0.2626952309
C  C15  1  0.02190000  0.30140000  0.99621000  1.0 0.2626952309
C  C16  1  0.97810000  0.69860000  0.49621000  1.0 0.2626952309
C  C17  1  0.23720000  0.04350000  0.00110000  1.0 -0.1819880976
C  C18  1  0.76280000  0.95650000  0.50110000  1.0 -0.1819880976
C  C19  1  0.45650000  0.73720000  0.25110000  1.0 -0.1819880976
C  C20  1  0.54350000  0.26280000  0.75110000  1.0 -0.1819880976
C  C21  1  0.26280000  0.54350000  0.24890000  1.0 -0.1819880976
C  C22  1  0.73720000  0.45650000  0.74890000  1.0 -0.1819880976
C  C23  1  0.04350000  0.23720000  0.99890000  1.0 -0.1819880976
C  C24  1  0.95650000  0.76280000  0.49890000  1.0 -0.1819880976
C  C25  1  0.21440000  0.09110000  0.02598000  1.0 -0.0601584183
C  C26  1  0.78560000  0.90890000  0.52598000  1.0 -0.0601584183
C  C27  1  0.40890000  0.71440000  0.27598000  1.0 -0.0601584183
C  C28  1  0.59110000  0.28560000  0.77598000  1.0 -0.0601584183
C  C29  1  0.28560000  0.59110000  0.22402000  1.0 -0.0601584183
C  C30  1  0.71440000  0.40890000  0.72402000  1.0 -0.0601584183
C  C31  1  0.09110000  0.21440000  0.97402000  1.0 -0.0601584183
C  C32  1  0.90890000  0.78560000  0.47402000  1.0 -0.0601584183
C  C33  1  0.25560000  0.11960000  0.05362000  1.0 -0.1602818168
C  C34  1  0.74440000  0.88040000  0.55362000  1.0 -0.1602818168
C  C35  1  0.38040000  0.75560000  0.30362000  1.0 -0.1602818168
C  C36  1  0.61960000  0.24440000  0.80362000  1.0 -0.1602818168
C  C37  1  0.24440000  0.61960000  0.19638000  1.0 -0.1602818168
C  C38  1  0.75560000  0.38040000  0.69638000  1.0 -0.1602818168
C  C39  1  0.11960000  0.25560000  0.94638000  1.0 -0.1602818168
C  C40  1  0.88040000  0.74440000  0.44638000  1.0 -0.1602818168
C  C41  1  0.32190000  0.10050000  0.05521000  1.0 0.2626952309
C  C42  1  0.67810000  0.89950000  0.55521000  1.0 0.2626952309
C  C43  1  0.39950000  0.82190000  0.30521000  1.0 0.2626952309
C  C44  1  0.60050000  0.17810000  0.80521000  1.0 0.2626952309
C  C45  1  0.17810000  0.60050000  0.19479000  1.0 0.2626952309
C  C46  1  0.82190000  0.39950000  0.69479000  1.0 0.2626952309
C  C47  1  0.10050000  0.32190000  0.94479000  1.0 0.2626952309
C  C48  1  0.89950000  0.67810000  0.44479000  1.0 0.2626952309
C  C49  1  0.35600000  0.92360000  0.99052000  1.0 0.3913702329
C  C50  1  0.64400000  0.07640000  0.49052000  1.0 0.3913702329
C  C51  1  0.57640000  0.85600000  0.24052000  1.0 0.3913702329
C  C52  1  0.42360000  0.14400000  0.74052000  1.0 0.3913702329
C  C53  1  0.14400000  0.42360000  0.25948000  1.0 0.3913702329
C  C54  1  0.85600000  0.57640000  0.75948000  1.0 0.3913702329
C  C55  1  0.92360000  0.35600000  0.00948000  1.0 0.3913702329
C  C56  1  0.07640000  0.64400000  0.50948000  1.0 0.3913702329
C  C57  1  0.37310000  0.87190000  0.96085000  1.0 0.5008848829
C  C58  1  0.62690000  0.12810000  0.46085000  1.0 0.5008848829
C  C59  1  0.62810000  0.87310000  0.21085000  1.0 0.5008848829
C  C60  1  0.37190000  0.12690000  0.71085000  1.0 0.5008848829
C  C61  1  0.12690000  0.37190000  0.28915000  1.0 0.5008848829
C  C62  1  0.87310000  0.62810000  0.78915000  1.0 0.5008848829
C  C63  1  0.87190000  0.37310000  0.03915000  1.0 0.5008848829
C  C64  1  0.12810000  0.62690000  0.53915000  1.0 0.5008848829
C  C65  1  0.35820000  0.13630000  0.11685000  1.0 0.3913702329
C  C66  1  0.64180000  0.86370000  0.61685000  1.0 0.3913702329
C  C67  1  0.36370000  0.85820000  0.36685000  1.0 0.3913702329
C  C68  1  0.63630000  0.14180000  0.86685000  1.0 0.3913702329
C  C69  1  0.14180000  0.63630000  0.13315000  1.0 0.3913702329
C  C70  1  0.85820000  0.36370000  0.63315000  1.0 0.3913702329
C  C71  1  0.13630000  0.35820000  0.88315000  1.0 0.3913702329
C  C72  1  0.86370000  0.64180000  0.38315000  1.0 0.3913702329
C  C73  1  0.41640000  0.16300000  0.13996000  1.0 0.5008848829
C  C74  1  0.58360000  0.83700000  0.63996000  1.0 0.5008848829
C  C75  1  0.33700000  0.91640000  0.38996000  1.0 0.5008848829
C  C76  1  0.66300000  0.08360000  0.88996000  1.0 0.5008848829
C  C77  1  0.08360000  0.66300000  0.11004000  1.0 0.5008848829
C  C78  1  0.91640000  0.33700000  0.61004000  1.0 0.5008848829
C  C79  1  0.16300000  0.41640000  0.86004000  1.0 0.5008848829
C  C80  1  0.83700000  0.58360000  0.36004000  1.0 0.5008848829
C  C81  1  0.38800000  0.11850000  0.95411000  1.0 -0.2227551381
C  C82  1  0.61200000  0.88150000  0.45411000  1.0 -0.2227551381
C  C83  1  0.38150000  0.88800000  0.20411000  1.0 -0.2227551381
C  C84  1  0.61850000  0.11200000  0.70411000  1.0 -0.2227551381
C  C85  1  0.11200000  0.61850000  0.29589000  1.0 -0.2227551381
C  C86  1  0.88800000  0.38150000  0.79589000  1.0 -0.2227551381
C  C87  1  0.11850000  0.38800000  0.04589000  1.0 -0.2227551381
C  C88  1  0.88150000  0.61200000  0.54589000  1.0 -0.2227551381
C  C89  1  0.33200000  0.11860000  0.93008000  1.0 0.2626952309
C  C90  1  0.66800000  0.88140000  0.43008000  1.0 0.2626952309
C  C91  1  0.38140000  0.83200000  0.18008000  1.0 0.2626952309
C  C92  1  0.61860000  0.16800000  0.68008000  1.0 0.2626952309
C  C93  1  0.16800000  0.61860000  0.31992000  1.0 0.2626952309
C  C94  1  0.83200000  0.38140000  0.81992000  1.0 0.2626952309
C  C95  1  0.11860000  0.33200000  0.06992000  1.0 0.2626952309
C  C96  1  0.88140000  0.66800000  0.56992000  1.0 0.2626952309
C  C97  1  0.28860000  0.16970000  0.93377000  1.0 -0.1542793217
C  C98  1  0.71140000  0.83030000  0.43377000  1.0 -0.1542793217
C  C99  1  0.33030000  0.78860000  0.18377000  1.0 -0.1542793217
C  C100  1  0.66970000  0.21140000  0.68377000  1.0 -0.1542793217
C  C101  1  0.21140000  0.66970000  0.31623000  1.0 -0.1542793217
C  C102  1  0.78860000  0.33030000  0.81623000  1.0 -0.1542793217
C  C103  1  0.16970000  0.28860000  0.06623000  1.0 -0.1542793217
C  C104  1  0.83030000  0.71140000  0.56623000  1.0 -0.1542793217
C  C105  1  0.29830000  0.22000000  0.95954000  1.0 -0.0601584183
C  C106  1  0.70170000  0.78000000  0.45954000  1.0 -0.0601584183
C  C107  1  0.28000000  0.79830000  0.20954000  1.0 -0.0601584183
C  C108  1  0.72000000  0.20170000  0.70954000  1.0 -0.0601584183
C  C109  1  0.20170000  0.72000000  0.29046000  1.0 -0.0601584183
C  C110  1  0.79830000  0.28000000  0.79046000  1.0 -0.0601584183
C  C111  1  0.22000000  0.29830000  0.04046000  1.0 -0.0601584183
C  C112  1  0.78000000  0.70170000  0.54046000  1.0 -0.0601584183
C  C113  1  0.35410000  0.21950000  0.98401000  1.0 -0.1819880976
C  C114  1  0.64590000  0.78050000  0.48401000  1.0 -0.1819880976
C  C115  1  0.28050000  0.85410000  0.23401000  1.0 -0.1819880976
C  C116  1  0.71950000  0.14590000  0.73401000  1.0 -0.1819880976
C  C117  1  0.14590000  0.71950000  0.26599000  1.0 -0.1819880976
C  C118  1  0.85410000  0.28050000  0.76599000  1.0 -0.1819880976
C  C119  1  0.21950000  0.35410000  0.01599000  1.0 -0.1819880976
C  C120  1  0.78050000  0.64590000  0.51599000  1.0 -0.1819880976
C  C121  1  0.39760000  0.16880000  0.98045000  1.0 0.2497928196
C  C122  1  0.60240000  0.83120000  0.48045000  1.0 0.2497928196
C  C123  1  0.33120000  0.89760000  0.23045000  1.0 0.2497928196
C  C124  1  0.66880000  0.10240000  0.73045000  1.0 0.2497928196
C  C125  1  0.10240000  0.66880000  0.26955000  1.0 0.2497928196
C  C126  1  0.89760000  0.33120000  0.76955000  1.0 0.2497928196
C  C127  1  0.16880000  0.39760000  0.01955000  1.0 0.2497928196
C  C128  1  0.83120000  0.60240000  0.51955000  1.0 0.2497928196
C  C129  1  0.31540000  0.07350000  0.86717000  1.0 0.4084667237
C  C130  1  0.68460000  0.92650000  0.36717000  1.0 0.4084667237
C  C131  1  0.42650000  0.81540000  0.11717000  1.0 0.4084667237
C  C132  1  0.57350000  0.18460000  0.61717000  1.0 0.4084667237
C  C133  1  0.18460000  0.57350000  0.38283000  1.0 0.4084667237
C  C134  1  0.81540000  0.42650000  0.88283000  1.0 0.4084667237
C  C135  1  0.07350000  0.31540000  0.13283000  1.0 0.4084667237
C  C136  1  0.92650000  0.68460000  0.63283000  1.0 0.4084667237
C  C137  1  0.30680000  0.00950000  0.84457000  1.0 0.5008848829
C  C138  1  0.69320000  0.99050000  0.34457000  1.0 0.5008848829
C  C139  1  0.49050000  0.80680000  0.09457000  1.0 0.5008848829
C  C140  1  0.50950000  0.19320000  0.59457000  1.0 0.5116532945
C  C141  1  0.19320000  0.50950000  0.40543000  1.0 0.5008848829
C  C142  1  0.80680000  0.49050000  0.90543000  1.0 0.5008848829
C  C143  1  0.00950000  0.30680000  0.15543000  1.0 0.5008848829
C  C144  1  0.99050000  0.69320000  0.65543000  1.0 0.5008848829
C  C145  1  0.51160000  0.16630000  0.99147000  1.0 0.4161220842
C  C146  1  0.48840000  0.83370000  0.49147000  1.0 0.4161220842
C  C147  1  0.33370000  0.01160000  0.24147000  1.0 0.4084667237
C  C148  1  0.66630000  0.98840000  0.74147000  1.0 0.4161220842
C  C149  1  0.98840000  0.66630000  0.25853000  1.0 0.4161220842
C  C150  1  0.01160000  0.33370000  0.75853000  1.0 0.4084667237
C  C151  1  0.16630000  0.51160000  0.00853000  1.0 0.4084667237
C  C152  1  0.83370000  0.48840000  0.50853000  1.0 0.4161220842
C  C153  1  0.56620000  0.16470000  0.02265000  1.0 0.5116532945
C  C154  1  0.43380000  0.83530000  0.52265000  1.0 0.5116532945
C  C155  1  0.33530000  0.06620000  0.27265000  1.0 0.5116532945
C  C156  1  0.66470000  0.93380000  0.77265000  1.0 0.5116532945
C  C157  1  0.93380000  0.66470000  0.22735000  1.0 0.5116532945
C  C158  1  0.06620000  0.33530000  0.72735000  1.0 0.5116532945
C  C159  1  0.16470000  0.56620000  0.97735000  1.0 0.5116532945
C  C160  1  0.83530000  0.43380000  0.47735000  1.0 0.5116532945
C  C161  1  0.18930000  0.18980000  0.21311000  1.0 0.5175354964
C  C162  1  0.81070000  0.81020000  0.71311000  1.0 0.5175354964
C  C163  1  0.31020000  0.68930000  0.46311000  1.0 0.5175354964
C  C164  1  0.68980000  0.31070000  0.96311000  1.0 0.5175354964
C  C165  1  0.31070000  0.68980000  0.03689000  1.0 0.5175354964
C  C166  1  0.68930000  0.31020000  0.53689000  1.0 0.5175354964
C  C167  1  0.18980000  0.18930000  0.78689000  1.0 0.5175354964
C  C168  1  0.81020000  0.81070000  0.28689000  1.0 0.5175354964
C  C169  1  0.24020000  0.24750000  0.21238000  1.0 0.5116532945
C  C170  1  0.75980000  0.75250000  0.71238000  1.0 0.5116532945
C  C171  1  0.25250000  0.74020000  0.46238000  1.0 0.5116532945
C  C172  1  0.74750000  0.25980000  0.96238000  1.0 0.5116532945
C  C173  1  0.25980000  0.74750000  0.03762000  1.0 0.5116532945
C  C174  1  0.74020000  0.25250000  0.53762000  1.0 0.5116532945
C  C175  1  0.24750000  0.24020000  0.78762000  1.0 0.5116532945
C  C176  1  0.75250000  0.75980000  0.28762000  1.0 0.5175354964
N  N1  1  0.32400000  0.97320000  0.97749000  1.0 -0.403751897
N  N2  1  0.67600000  0.02680000  0.47749000  1.0 -0.403751897
N  N3  1  0.52680000  0.82400000  0.22749000  1.0 -0.403751897
N  N4  1  0.47320000  0.17600000  0.72749000  1.0 -0.403751897
N  N5  1  0.17600000  0.47320000  0.27251000  1.0 -0.403751897
N  N6  1  0.82400000  0.52680000  0.77251000  1.0 -0.403751897
N  N7  1  0.97320000  0.32400000  0.02251000  1.0 -0.403751897
N  N8  1  0.02680000  0.67600000  0.52251000  1.0 -0.403751897
N  N9  1  0.36740000  0.13190000  0.07976000  1.0 -0.4200380056
N  N10  1  0.63260000  0.86810000  0.57976000  1.0 -0.4200380056
N  N11  1  0.36810000  0.86740000  0.32976000  1.0 -0.4200380056
N  N12  1  0.63190000  0.13260000  0.82976000  1.0 -0.4200380056
N  N13  1  0.13260000  0.63190000  0.17024000  1.0 -0.4200380056
N  N14  1  0.86740000  0.36810000  0.67024000  1.0 -0.4200380056
N  N15  1  0.13190000  0.36740000  0.92024000  1.0 -0.4200380056
N  N16  1  0.86810000  0.63260000  0.42024000  1.0 -0.4200380056
N  N17  1  0.32120000  0.06450000  0.90514000  1.0 -0.4508027253
N  N18  1  0.67880000  0.93550000  0.40514000  1.0 -0.4508027253
N  N19  1  0.43550000  0.82120000  0.15514000  1.0 -0.4508027253
N  N20  1  0.56450000  0.17880000  0.65514000  1.0 -0.4508027253
N  N21  1  0.17880000  0.56450000  0.34486000  1.0 -0.4508027253
N  N22  1  0.82120000  0.43550000  0.84486000  1.0 -0.4508027253
N  N23  1  0.06450000  0.32120000  0.09486000  1.0 -0.4508027253
N  N24  1  0.93550000  0.67880000  0.59486000  1.0 -0.4508027253
N  N25  1  0.45240000  0.16700000  0.00616000  1.0 -0.4302029854
N  N26  1  0.54760000  0.83300000  0.50616000  1.0 -0.4302029854
N  N27  1  0.33300000  0.95240000  0.25616000  1.0 -0.4302029854
N  N28  1  0.66700000  0.04760000  0.75616000  1.0 -0.4302029854
N  N29  1  0.04760000  0.66700000  0.24384000  1.0 -0.4302029854
N  N30  1  0.95240000  0.33300000  0.74384000  1.0 -0.4302029854
N  N31  1  0.16700000  0.45240000  0.99384000  1.0 -0.4302029854
N  N32  1  0.83300000  0.54760000  0.49384000  1.0 -0.4302029854
O  O1  1  0.62277000  0.16160000  0.01049000  1.0 -0.4508027253
O  O2  1  0.37723000  0.83840000  0.51049000  1.0 -0.4585146446
O  O3  1  0.33840000  0.12277000  0.26049000  1.0 -0.4508027253
O  O4  1  0.66160000  0.87723000  0.76049000  1.0 -0.4508027253
O  O5  1  0.87723000  0.66160000  0.23951000  1.0 -0.4508027253
O  O6  1  0.12277000  0.33840000  0.73951000  1.0 -0.4508027253
O  O7  1  0.16160000  0.62277000  0.98951000  1.0 -0.4508027253
O  O8  1  0.83840000  0.37723000  0.48951000  1.0 -0.4585146446
O  O9  1  0.52798000  0.16950000  0.95693000  1.0 -0.4200380056
O  O10  1  0.47202000  0.83050000  0.45693000  1.0 -0.4200380056
O  O11  1  0.33050000  0.02798000  0.20693000  1.0 -0.4200380056
O  O12  1  0.66950000  0.97202000  0.70693000  1.0 -0.4200380056
O  O13  1  0.97202000  0.66950000  0.29307000  1.0 -0.4200380056
O  O14  1  0.02798000  0.33050000  0.79307000  1.0 -0.4200380056
O  O15  1  0.16950000  0.52798000  0.04307000  1.0 -0.4200380056
O  O16  1  0.83050000  0.47202000  0.54307000  1.0 -0.4200380056
O  O17  1  0.44330000  0.28280000  0.06278000  1.0 -0.0839413873
O  O18  1  0.55670000  0.71720000  0.56278000  1.0 -0.0881393406
O  O19  1  0.21720000  0.94330000  0.31278000  1.0 -0.0881393406
O  O20  1  0.78280000  0.05670000  0.81278000  1.0 -0.0839413873
O  O21  1  0.05670000  0.78280000  0.18722000  1.0 -0.0881393406
O  O22  1  0.94330000  0.21720000  0.68722000  1.0 -0.0839413873
O  O23  1  0.28280000  0.44330000  0.93722000  1.0 -0.0881393406
O  O24  1  0.71720000  0.55670000  0.43722000  1.0 -0.0839413873
O  O25  1  0.54940000  0.16770000  0.05775000  1.0 -0.4508027253
O  O26  1  0.45060000  0.83230000  0.55775000  1.0 -0.4508027253
O  O27  1  0.33230000  0.04940000  0.30775000  1.0 -0.4508027253
O  O28  1  0.66770000  0.95060000  0.80775000  1.0 -0.4508027253
O  O29  1  0.95060000  0.66770000  0.19225000  1.0 -0.4508027253
O  O30  1  0.04940000  0.33230000  0.69225000  1.0 -0.4508027253
O  O31  1  0.16770000  0.54940000  0.94225000  1.0 -0.4508027253
O  O32  1  0.83230000  0.45060000  0.44225000  1.0 -0.4508027253
O  O33  1  0.21230000  0.13348000  0.20900000  1.0 -0.4673174566
O  O34  1  0.78770000  0.86652000  0.70900000  1.0 -0.4673174566
O  O35  1  0.36652000  0.71230000  0.45900000  1.0 -0.4673174566
O  O36  1  0.63348000  0.28770000  0.95900000  1.0 -0.4673174566
O  O37  1  0.28770000  0.63348000  0.04100000  1.0 -0.4673174566
O  O38  1  0.71230000  0.36652000  0.54100000  1.0 -0.4673174566
O  O39  1  0.13348000  0.21230000  0.79100000  1.0 -0.4673174566
O  O40  1  0.86652000  0.78770000  0.29100000  1.0 -0.4673174566
O  O41  1  0.29850000  0.23326000  0.20693000  1.0 -0.4508027253
O  O42  1  0.70150000  0.76674000  0.70693000  1.0 -0.4508027253
O  O43  1  0.26674000  0.79850000  0.45693000  1.0 -0.4508027253
O  O44  1  0.73326000  0.20150000  0.95693000  1.0 -0.4508027253
O  O45  1  0.20150000  0.73326000  0.04307000  1.0 -0.4508027253
O  O46  1  0.79850000  0.26674000  0.54307000  1.0 -0.4508027253
O  O47  1  0.23326000  0.29850000  0.79307000  1.0 -0.4508027253
O  O48  1  0.76674000  0.70150000  0.29307000  1.0 -0.4508027253
O  O49  1  0.21930000  0.30298000  0.22000000  1.0 -0.4508027253
O  O50  1  0.78070000  0.69702000  0.72000000  1.0 -0.4508027253
O  O51  1  0.19702000  0.71930000  0.47000000  1.0 -0.4508027253
O  O52  1  0.80298000  0.28070000  0.97000000  1.0 -0.4508027253
O  O53  1  0.28070000  0.80298000  0.03000000  1.0 -0.4508027253
O  O54  1  0.71930000  0.19702000  0.53000000  1.0 -0.4508027253
O  O55  1  0.30298000  0.21930000  0.78000000  1.0 -0.4508027253
O  O56  1  0.69702000  0.78070000  0.28000000  1.0 -0.4508027253
O  O57  1  0.13080000  0.20500000  0.21551000  1.0 -0.4418119329
O  O58  1  0.86920000  0.79500000  0.71551000  1.0 -0.4418119329
O  O59  1  0.29500000  0.63080000  0.46551000  1.0 -0.4418119329
O  O60  1  0.70500000  0.36920000  0.96551000  1.0 -0.4418119329
O  O61  1  0.36920000  0.70500000  0.03449000  1.0 -0.4508027253
O  O62  1  0.63080000  0.29500000  0.53449000  1.0 -0.4418119329
O  O63  1  0.20500000  0.13080000  0.78449000  1.0 -0.4418119329
O  O64  1  0.79500000  0.86920000  0.28449000  1.0 -0.4508027253
O  O65  1  0.46530000  0.18150000  0.12044000  1.0 -0.4418119329
O  O66  1  0.53470000  0.81850000  0.62044000  1.0 -0.4418119329
O  O67  1  0.31850000  0.96530000  0.37044000  1.0 -0.4418119329
O  O68  1  0.68150000  0.03470000  0.87044000  1.0 -0.4418119329
O  O69  1  0.03470000  0.68150000  0.12956000  1.0 -0.4418119329
O  O70  1  0.96530000  0.31850000  0.62956000  1.0 -0.4418119329
O  O71  1  0.18150000  0.46530000  0.87956000  1.0 -0.4418119329
O  O72  1  0.81850000  0.53470000  0.37956000  1.0 -0.4418119329
O  O73  1  0.39840000  0.81979000  0.97236000  1.0 -0.4585146446
O  O74  1  0.60160000  0.18021000  0.47236000  1.0 -0.4585146446
O  O75  1  0.68021000  0.89840000  0.22236000  1.0 -0.4585146446
O  O76  1  0.31979000  0.10160000  0.72236000  1.0 -0.4585146446
O  O77  1  0.10160000  0.31979000  0.27764000  1.0 -0.4585146446
O  O78  1  0.89840000  0.68021000  0.77764000  1.0 -0.4585146446
O  O79  1  0.81979000  0.39840000  0.02764000  1.0 -0.4585146446
O  O80  1  0.18021000  0.60160000  0.52764000  1.0 -0.4585146446
O  O81  1  0.37190000  0.91179000  0.02624000  1.0 -0.4508027253
O  O82  1  0.62810000  0.08821000  0.52624000  1.0 -0.4508027253
O  O83  1  0.58821000  0.87190000  0.27624000  1.0 -0.4508027253
O  O84  1  0.41179000  0.12810000  0.77624000  1.0 -0.4508027253
O  O85  1  0.12810000  0.41179000  0.22376000  1.0 -0.4508027253
O  O86  1  0.87190000  0.58821000  0.72376000  1.0 -0.4508027253
O  O87  1  0.91179000  0.37190000  0.97376000  1.0 -0.4508027253
O  O88  1  0.08821000  0.62810000  0.47376000  1.0 -0.4508027253
O  O89  1  0.31761000  0.12606000  0.84874000  1.0 -0.4104709125
O  O90  1  0.68239000  0.87394000  0.34874000  1.0 -0.4104709125
O  O91  1  0.37394000  0.81761000  0.09874000  1.0 -0.4104709125
O  O92  1  0.62606000  0.18239000  0.59874000  1.0 -0.4104709125
O  O93  1  0.18239000  0.62606000  0.40126000  1.0 -0.4104709125
O  O94  1  0.81761000  0.37394000  0.90126000  1.0 -0.4104709125
O  O95  1  0.12606000  0.31761000  0.15126000  1.0 -0.4104709125
O  O96  1  0.87394000  0.68239000  0.65126000  1.0 -0.4104709125
O  O97  1  0.30160000  0.01380000  0.80855000  1.0 -0.4585146446
O  O98  1  0.69840000  0.98620000  0.30855000  1.0 -0.4673174566
O  O99  1  0.48620000  0.80160000  0.05855000  1.0 -0.4673174566
O  O100  1  0.51380000  0.19840000  0.55855000  1.0 -0.4673174566
O  O101  1  0.19840000  0.51380000  0.44145000  1.0 -0.4585146446
O  O102  1  0.80160000  0.48620000  0.94145000  1.0 -0.4673174566
O  O103  1  0.01380000  0.30160000  0.19145000  1.0 -0.4673174566
O  O104  1  0.98620000  0.69840000  0.69145000  1.0 -0.4673174566
O  O105  1  0.30550000  0.95690000  0.86371000  1.0 -0.4418119329
O  O106  1  0.69450000  0.04310000  0.36371000  1.0 -0.4418119329
O  O107  1  0.54310000  0.80550000  0.11371000  1.0 -0.4418119329
O  O108  1  0.45690000  0.19450000  0.61371000  1.0 -0.4418119329
O  O109  1  0.19450000  0.45690000  0.38629000  1.0 -0.4418119329
O  O110  1  0.80550000  0.54310000  0.88629000  1.0 -0.4418119329
O  O111  1  0.95690000  0.30550000  0.13629000  1.0 -0.4418119329
O  O112  1  0.04310000  0.69450000  0.63629000  1.0 -0.4418119329
O  O113  1  0.21040000  0.93570000  0.92420000  1.0 -0.1819880976
O  O114  1  0.78960000  0.06430000  0.42420000  1.0 -0.1727497078
O  O115  1  0.56430000  0.71040000  0.17420000  1.0 -0.1727497078
O  O116  1  0.43570000  0.28960000  0.67420000  1.0 -0.1819880976
O  O117  1  0.28960000  0.43570000  0.32580000  1.0 -0.1819880976
O  O118  1  0.71040000  0.56430000  0.82580000  1.0 -0.1727497078
O  O119  1  0.93570000  0.21040000  0.07580000  1.0 -0.1727497078
O  O120  1  0.06430000  0.78960000  0.57580000  1.0 -0.1819880976
O  O121  1  0.35700000  0.88200000  0.92567000  1.0 -0.4585146446
O  O122  1  0.64300000  0.11800000  0.42567000  1.0 -0.4585146446
O  O123  1  0.61800000  0.85700000  0.17567000  1.0 -0.4585146446
O  O124  1  0.38200000  0.14300000  0.67567000  1.0 -0.4585146446
O  O125  1  0.14300000  0.38200000  0.32433000  1.0 -0.4585146446
O  O126  1  0.85700000  0.61800000  0.82433000  1.0 -0.4585146446
O  O127  1  0.88200000  0.35700000  0.07433000  1.0 -0.4585146446
O  O128  1  0.11800000  0.64300000  0.57433000  1.0 -0.4585146446
O  O129  1  0.41340000  0.16380000  0.17614000  1.0 -0.4585146446
O  O130  1  0.58660000  0.83620000  0.67614000  1.0 -0.4585146446
O  O131  1  0.33620000  0.91340000  0.42614000  1.0 -0.4585146446
O  O132  1  0.66380000  0.08660000  0.92614000  1.0 -0.4585146446
O  O133  1  0.08660000  0.66380000  0.07386000  1.0 -0.4585146446
O  O134  1  0.91340000  0.33620000  0.57386000  1.0 -0.4585146446
O  O135  1  0.16380000  0.41340000  0.82386000  1.0 -0.4585146446
O  O136  1  0.83620000  0.58660000  0.32386000  1.0 -0.4585146446
O  O137  1  0.30757000  0.11697000  0.13624000  1.0 -0.4508027253
O  O138  1  0.69243000  0.88303000  0.63624000  1.0 -0.4508027253
O  O139  1  0.38303000  0.80757000  0.38624000  1.0 -0.4508027253
O  O140  1  0.61697000  0.19243000  0.88624000  1.0 -0.4508027253
O  O141  1  0.19243000  0.61697000  0.11376000  1.0 -0.4508027253
O  O142  1  0.80757000  0.38303000  0.61376000  1.0 -0.4508027253
O  O143  1  0.11697000  0.30757000  0.86376000  1.0 -0.4508027253
O  O144  1  0.88303000  0.69243000  0.36376000  1.0 -0.4508027253
