# DDEC6 charges by PACMAN v1.1 (https://github.com/mtap-research/PACMAN-charge/)
data_IDUMIG_ASR_pacman
_symmetry_space_group_name_H-M   'P 1'
_cell_length_a   23.93110000
_cell_length_b   23.93110000
_cell_length_c   34.01900000
_cell_angle_alpha   76.92700000
_cell_angle_beta   103.07300000
_cell_angle_gamma   77.13190000
_symmetry_Int_Tables_number   1
_chemical_formula_structural   V8Cd8H209C212N19O37
_chemical_formula_sum   'V16 Cd16 H418 C424 N38 O74'
_cell_volume   17699.02357672
_cell_formula_units_Z   2
loop_
 _symmetry_equiv_pos_site_id
 _symmetry_equiv_pos_as_xyz
  1  'x, y, z'
loop_
 _atom_site_type_symbol
 _atom_site_label
 _atom_site_symmetry_multiplicity
 _atom_site_fract_x
 _atom_site_fract_y
 _atom_site_fract_z
 _atom_site_occupancy
 _atom_site_charge
V  V1  1  0.73820000  0.08760000  0.82880000  1.0 0.7324588238
V  V2  1  0.28200000  0.63280000  0.32010000  1.0 0.6097095667
V  V3  1  0.84880000  0.45120000  0.67940000  1.0 0.7410149116
V  V4  1  0.93370000  0.52410000  0.17500000  1.0 0.7503634928
V  V5  1  0.71860000  0.11980000  0.79860000  1.0 0.7715862332
V  V6  1  0.24520000  0.64980000  0.28830000  1.0 0.7875125645
V  V7  1  0.83600000  0.46600000  0.65540000  1.0 0.6008042393
V  V8  1  0.91860000  0.53740000  0.14930000  1.0 0.669029781
V  V9  1  0.08760000  0.73820000  0.17120000  1.0 0.7410149116
V  V10  1  0.63280000  0.28200000  0.67990000  1.0 0.6097095667
V  V11  1  0.45120000  0.84880000  0.32060000  1.0 0.7410149116
V  V12  1  0.52410000  0.93370000  0.82500000  1.0 0.7503634928
V  V13  1  0.11980000  0.71860000  0.20140000  1.0 0.7715862332
V  V14  1  0.64980000  0.24520000  0.71170000  1.0 0.7875125645
V  V15  1  0.46600000  0.83600000  0.34460000  1.0 0.6008042393
V  V16  1  0.53740000  0.91860000  0.85070000  1.0 0.669029781
Cd  Cd1  1  0.22530000  0.13810000  0.81430000  1.0 0.6223691343
Cd  Cd2  1  0.25150000  0.14310000  0.31550000  1.0 0.6580845652
Cd  Cd3  1  0.33150000  0.49370000  0.65860000  1.0 0.6498654424
Cd  Cd4  1  0.89870000  0.02790000  0.17580000  1.0 0.6008042393
Cd  Cd5  1  0.21470000  0.15010000  0.79290000  1.0 0.5804048417
Cd  Cd6  1  0.23940000  0.15140000  0.29410000  1.0 0.6008042393
Cd  Cd7  1  0.34220000  0.48260000  0.68480000  1.0 0.6097095667
Cd  Cd8  1  0.88890000  0.03730000  0.15000000  1.0 0.4667900441
Cd  Cd9  1  0.13810000  0.22530000  0.18570000  1.0 0.6223691343
Cd  Cd10  1  0.14310000  0.25150000  0.68450000  1.0 0.6580845652
Cd  Cd11  1  0.49370000  0.33150000  0.34140000  1.0 0.6426716584
Cd  Cd12  1  0.02790000  0.89870000  0.82420000  1.0 0.6097095667
Cd  Cd13  1  0.15010000  0.21470000  0.20710000  1.0 0.5804048417
Cd  Cd14  1  0.15140000  0.23940000  0.70590000  1.0 0.6008042393
Cd  Cd15  1  0.48260000  0.34220000  0.31520000  1.0 0.6097095667
Cd  Cd16  1  0.03730000  0.88890000  0.85000000  1.0 0.4667900441
H  H1  1  0.97390000  0.40510000  0.63350000  1.0 0.120164399
H  H2  1  0.39110000  0.60830000  0.28640000  1.0 0.0809840226
H  H3  1  0.63110000  0.12850000  0.92620000  1.0 0.120164399
H  H4  1  0.66610000  0.17570000  0.93650000  1.0 0.1297687366
H  H5  1  0.68310000  0.13830000  0.90530000  1.0 0.1389042189
H  H6  1  0.91600000  0.31860000  0.61030000  1.0 0.1105804935
H  H7  1  0.93960000  0.36540000  0.58110000  1.0 0.1005219818
H  H8  1  0.04290000  0.50070000  0.13800000  1.0 0.0928057185
H  H9  1  0.94440000  0.56020000  0.06560000  1.0 0.0928057185
H  H10  1  0.84780000  0.38240000  0.52390000  1.0 0.0928057185
H  H11  1  0.89200000  0.31500000  0.53710000  1.0 0.1005219818
H  H12  1  0.04260000  0.60860000  0.08830000  1.0 0.1105804935
H  H13  1  0.98770000  0.63490000  0.04560000  1.0 0.120164399
H  H14  1  0.06260000  0.41920000  0.11240000  1.0 0.120164399
H  H15  1  0.00770000  0.45310000  0.07020000  1.0 0.1105804935
H  H16  1  0.97070000  0.39130000  0.12240000  1.0 0.120164399
H  H17  1  0.11250000  0.48990000  0.09670000  1.0 0.1005219818
H  H18  1  0.09450000  0.46890000  0.05540000  1.0 0.1005219818
H  H19  1  0.73450000  0.46290000  0.16100000  1.0 0.120164399
H  H20  1  0.77480000  0.50420000  0.17490000  1.0 0.1297687366
H  H21  1  0.72700000  0.49020000  0.19890000  1.0 0.1297687366
H  H22  1  0.82630000  0.96430000  0.76690000  1.0 0.1105804935
H  H23  1  0.82880000  0.01640000  0.72820000  1.0 0.1105804935
H  H24  1  0.89840000  0.64640000  0.65980000  1.0 0.120164399
H  H25  1  0.86940000  0.65280000  0.69720000  1.0 0.120164399
H  H26  1  0.86430000  0.59970000  0.67650000  1.0 0.1389042189
H  H27  1  0.65150000  0.01990000  0.72040000  1.0 0.1105804935
H  H28  1  0.65820000  0.96600000  0.76040000  1.0 0.1105804935
H  H29  1  0.74370000  0.98450000  0.80010000  1.0 0.0809840226
H  H30  1  0.01880000  0.55580000  0.02160000  1.0 0.1005219818
H  H31  1  0.07830000  0.57290000  0.03890000  1.0 0.1005219818
H  H32  1  0.22220000  0.57240000  0.38670000  1.0 0.1389042189
H  H33  1  0.23760000  0.50920000  0.42120000  1.0 0.120164399
H  H34  1  0.18380000  0.56420000  0.41930000  1.0 0.1297687366
H  H35  1  0.08560000  0.56500000  0.32270000  1.0 0.1297687366
H  H36  1  0.12980000  0.60620000  0.32570000  1.0 0.1389042189
H  H37  1  0.09040000  0.59960000  0.35790000  1.0 0.1389042189
H  H38  1  0.10840000  0.46980000  0.37670000  1.0 0.1105804935
H  H39  1  0.11470000  0.50170000  0.41340000  1.0 0.120164399
H  H40  1  0.16840000  0.44680000  0.41530000  1.0 0.1105804935
H  H41  1  0.83860000  0.43900000  0.56710000  1.0 0.1005219818
H  H42  1  0.82190000  0.34170000  0.26390000  1.0 0.1005219818
H  H43  1  0.75750000  0.35730000  0.23050000  1.0 0.1297687366
H  H44  1  0.76710000  0.39370000  0.26440000  1.0 0.1105804935
H  H45  1  0.30140000  0.04920000  0.57120000  1.0 0.1005219818
H  H46  1  0.26160000  0.06320000  0.60010000  1.0 0.0928057185
H  H47  1  0.32480000  0.10240000  0.09950000  1.0 0.0928057185
H  H48  1  0.33780000  0.07900000  0.06100000  1.0 0.0928057185
H  H49  1  0.24080000  0.48940000  0.52640000  1.0 0.1297687366
H  H50  1  0.26200000  0.53140000  0.55350000  1.0 0.1706020361
H  H51  1  0.21860000  0.49360000  0.56690000  1.0 0.1706020361
H  H52  1  0.82000000  0.14160000  0.19330000  1.0 0.1105804935
H  H53  1  0.81890000  0.23830000  0.19690000  1.0 0.1297687366
H  H54  1  0.97800000  0.21720000  0.17060000  1.0 0.1389042189
H  H55  1  0.97900000  0.12040000  0.16700000  1.0 0.1005219818
H  H56  1  0.95560000  0.31120000  0.14860000  1.0 0.120164399
H  H57  1  0.82240000  0.31380000  0.20420000  1.0 0.1005219818
H  H58  1  0.12580000  0.57540000  0.68330000  1.0 0.1297687366
H  H59  1  0.14160000  0.41500000  0.65950000  1.0 0.1297687366
H  H60  1  0.24010000  0.40850000  0.65810000  1.0 0.1005219818
H  H61  1  0.22430000  0.56890000  0.68180000  1.0 0.1005219818
H  H62  1  0.31610000  0.03030000  0.28610000  1.0 0.1005219818
H  H63  1  0.30980000  0.93460000  0.28490000  1.0 0.1297687366
H  H64  1  0.15560000  0.96720000  0.31760000  1.0 0.1389042189
H  H65  1  0.16190000  0.06290000  0.31880000  1.0 0.1005219818
H  H66  1  0.05850000  0.55190000  0.71810000  1.0 0.1105804935
H  H67  1  0.05540000  0.44420000  0.64170000  1.0 0.120164399
H  H68  1  0.96430000  0.91770000  0.14480000  1.0 0.120164399
H  H69  1  0.95340000  0.82700000  0.13420000  1.0 0.1297687366
H  H70  1  0.79220000  0.86200000  0.15730000  1.0 0.1297687366
H  H71  1  0.80310000  0.95270000  0.16790000  1.0 0.1105804935
H  H72  1  0.85090000  0.07210000  0.75460000  1.0 0.0809840226
H  H73  1  0.80480000  0.77540000  0.18300000  1.0 0.1005219818
H  H74  1  0.92750000  0.75130000  0.11880000  1.0 0.1105804935
H  H75  1  0.29980000  0.78260000  0.24800000  1.0 0.1005219818
H  H76  1  0.49260000  0.20660000  0.84830000  1.0 0.1105804935
H  H77  1  0.51190000  0.10210000  0.77080000  1.0 0.1105804935
H  H78  1  0.01970000  0.08050000  0.79240000  1.0 0.1297687366
H  H79  1  0.01910000  0.22550000  0.83510000  1.0 0.1389042189
H  H80  1  0.11650000  0.21830000  0.83050000  1.0 0.1105804935
H  H81  1  0.11700000  0.07320000  0.78790000  1.0 0.1005219818
H  H82  1  0.35860000  0.96060000  0.52480000  1.0 0.120164399
H  H83  1  0.36120000  0.00940000  0.45760000  1.0 0.120164399
H  H84  1  0.18220000  0.08820000  0.42380000  1.0 0.120164399
H  H85  1  0.17960000  0.03940000  0.49090000  1.0 0.1297687366
H  H86  1  0.86500000  0.40340000  0.27270000  1.0 0.120164399
H  H87  1  0.80490000  0.45490000  0.26560000  1.0 0.1297687366
H  H88  1  0.85270000  0.46890000  0.24160000  1.0 0.1389042189
H  H89  1  0.28790000  0.87870000  0.54640000  1.0 0.120164399
H  H90  1  0.25660000  0.87820000  0.65870000  1.0 0.1105804935
H  H91  1  0.31500000  0.78620000  0.67630000  1.0 0.1105804935
H  H92  1  0.23550000  0.79970000  0.55460000  1.0 0.120164399
H  H93  1  0.25230000  0.69570000  0.57260000  1.0 0.1297687366
H  H94  1  0.33170000  0.68230000  0.69430000  1.0 0.1297687366
H  H95  1  0.69470000  0.93250000  0.70580000  1.0 0.0928057185
H  H96  1  0.74390000  0.90710000  0.75120000  1.0 0.0928057185
H  H97  1  0.34550000  0.01830000  0.96140000  1.0 0.120164399
H  H98  1  0.40380000  0.01980000  0.02620000  1.0 0.120164399
H  H99  1  0.36580000  0.20040000  0.98240000  1.0 0.1297687366
H  H100  1  0.30750000  0.19890000  0.91750000  1.0 0.120164399
H  H101  1  0.96570000  0.66470000  0.11000000  1.0 0.1105804935
H  H102  1  0.29120000  0.67740000  0.21400000  1.0 0.1005219818
H  H103  1  0.50360000  0.10080000  0.03900000  1.0 0.1105804935
H  H104  1  0.51000000  0.12420000  0.15410000  1.0 0.120164399
H  H105  1  0.92970000  0.10790000  0.77470000  1.0 0.1105804935
H  H106  1  0.95320000  0.18800000  0.86780000  1.0 0.1005219818
H  H107  1  0.73730000  0.01050000  0.68570000  1.0 0.0928057185
H  H108  1  0.78770000  0.94770000  0.69950000  1.0 0.0928057185
H  H109  1  0.59430000  0.05290000  0.76680000  1.0 0.1005219818
H  H110  1  0.02410000  0.59870000  0.75030000  1.0 0.1005219818
H  H111  1  0.96480000  0.65180000  0.74190000  1.0 0.120164399
H  H112  1  0.99420000  0.64640000  0.70460000  1.0 0.1105804935
H  H113  1  0.40220000  0.69940000  0.25130000  1.0 0.1105804935
H  H114  1  0.35080000  0.74580000  0.21090000  1.0 0.1105804935
H  H115  1  0.84320000  0.28160000  0.58650000  1.0 0.1005219818
H  H116  1  0.79440000  0.31160000  0.54160000  1.0 0.1005219818
H  H117  1  0.75950000  0.33530000  0.59770000  1.0 0.1105804935
H  H118  1  0.75410000  0.39410000  0.56150000  1.0 0.1005219818
H  H119  1  0.35440000  0.57680000  0.20990000  1.0 0.1105804935
H  H120  1  0.40590000  0.53270000  0.25150000  1.0 0.1105804935
H  H121  1  0.27130000  0.86050000  0.26240000  1.0 0.120164399
H  H122  1  0.18680000  0.87680000  0.35170000  1.0 0.1105804935
H  H123  1  0.80670000  0.27950000  0.84350000  1.0 0.120164399
H  H124  1  0.78860000  0.27160000  0.88650000  1.0 0.1297687366
H  H125  1  0.76220000  0.24040000  0.85240000  1.0 0.1297687366
H  H126  1  0.87620000  0.11620000  0.93270000  1.0 0.1297687366
H  H127  1  0.80600000  0.13760000  0.90860000  1.0 0.1389042189
H  H128  1  0.83240000  0.16860000  0.94260000  1.0 0.120164399
H  H129  1  0.72750000  0.07050000  0.72240000  1.0 0.1005219818
H  H130  1  0.18630000  0.82210000  0.41160000  1.0 0.1105804935
H  H131  1  0.13630000  0.78930000  0.41840000  1.0 0.1297687366
H  H132  1  0.12320000  0.84200000  0.37600000  1.0 0.120164399
H  H133  1  0.09880000  0.77520000  0.33360000  1.0 0.1297687366
H  H134  1  0.11150000  0.72290000  0.37610000  1.0 0.1389042189
H  H135  1  0.14560000  0.71140000  0.34190000  1.0 0.1468543498
H  H136  1  0.46020000  0.60520000  0.24860000  1.0 0.0809840226
H  H137  1  0.45070000  0.58590000  0.20580000  1.0 0.1005219818
H  H138  1  0.70860000  0.42960000  0.60020000  1.0 0.1005219818
H  H139  1  0.91260000  0.24100000  0.90250000  1.0 0.1005219818
H  H140  1  0.93080000  0.17380000  0.93250000  1.0 0.1105804935
H  H141  1  0.87990000  0.22510000  0.93790000  1.0 0.120164399
H  H142  1  0.52680000  0.27060000  0.87060000  1.0 0.120164399
H  H143  1  0.57530000  0.25610000  0.91530000  1.0 0.1297687366
H  H144  1  0.53800000  0.21000000  0.90690000  1.0 0.1105804935
H  H145  1  0.58000000  0.14860000  0.04840000  1.0 0.120164399
H  H146  1  0.68360000  0.13380000  0.06360000  1.0 0.1297687366
H  H147  1  0.70600000  0.03740000  0.18340000  1.0 0.1297687366
H  H148  1  0.60240000  0.05220000  0.16820000  1.0 0.120164399
H  H149  1  0.42390000  0.69110000  0.18680000  1.0 0.1005219818
H  H150  1  0.36380000  0.67200000  0.17330000  1.0 0.1105804935
H  H151  1  0.97240000  0.52480000  0.77580000  1.0 0.120164399
H  H152  1  0.90910000  0.52610000  0.74670000  1.0 0.1389042189
H  H153  1  0.91410000  0.57910000  0.76740000  1.0 0.1297687366
H  H154  1  0.25930000  0.72670000  0.42380000  1.0 0.120164399
H  H155  1  0.24450000  0.68150000  0.39750000  1.0 0.1389042189
H  H156  1  0.21040000  0.69300000  0.43160000  1.0 0.1297687366
H  H157  1  0.71550000  0.68750000  0.14210000  1.0 0.120164399
H  H158  1  0.71260000  0.63420000  0.17900000  1.0 0.120164399
H  H159  1  0.75920000  0.62140000  0.15280000  1.0 0.1389042189
H  H160  1  0.70220000  0.64540000  0.66890000  1.0 0.1297687366
H  H161  1  0.76960000  0.60280000  0.68360000  1.0 0.1389042189
H  H162  1  0.74930000  0.64650000  0.71030000  1.0 0.1297687366
H  H163  1  0.73010000  0.74490000  0.19510000  1.0 0.1105804935
H  H164  1  0.78380000  0.71500000  0.23800000  1.0 0.120164399
H  H165  1  0.72760000  0.68880000  0.23000000  1.0 0.120164399
H  H166  1  0.84890000  0.34190000  0.63900000  1.0 0.0928057185
H  H167  1  0.78550000  0.56210000  0.77300000  1.0 0.1297687366
H  H168  1  0.80440000  0.51680000  0.74690000  1.0 0.1389042189
H  H169  1  0.76180000  0.50420000  0.77590000  1.0 0.1297687366
H  H170  1  0.63460000  0.62840000  0.71470000  1.0 0.120164399
H  H171  1  0.68700000  0.63140000  0.75220000  1.0 0.1297687366
H  H172  1  0.66000000  0.57560000  0.75820000  1.0 0.120164399
H  H173  1  0.85150000  0.61650000  0.25130000  1.0 0.120164399
H  H174  1  0.84110000  0.57870000  0.21850000  1.0 0.1389042189
H  H175  1  0.79440000  0.59160000  0.24470000  1.0 0.1297687366
H  H176  1  0.60860000  0.28300000  0.83740000  1.0 0.1297687366
H  H177  1  0.66980000  0.22980000  0.85270000  1.0 0.1389042189
H  H178  1  0.65270000  0.26710000  0.88400000  1.0 0.1389042189
H  H179  1  0.28360000  0.43540000  0.27910000  1.0 0.1105804935
H  H180  1  0.17510000  0.42090000  0.35430000  1.0 0.1105804935
H  H181  1  0.15970000  0.35370000  0.33240000  1.0 0.1297687366
H  H182  1  0.16520000  0.25520000  0.33100000  1.0 0.1105804935
H  H183  1  0.32240000  0.24020000  0.30250000  1.0 0.1005219818
H  H184  1  0.31690000  0.33850000  0.30380000  1.0 0.1297687366
H  H185  1  0.32380000  0.50820000  0.26760000  1.0 0.1105804935
H  H186  1  0.53970000  0.45230000  0.62280000  1.0 0.120164399
H  H187  1  0.44070000  0.45110000  0.61720000  1.0 0.1005219818
H  H188  1  0.43240000  0.54920000  0.69950000  1.0 0.1105804935
H  H189  1  0.53130000  0.55050000  0.70510000  1.0 0.1297687366
H  H190  1  0.43660000  0.07300000  0.78700000  1.0 0.1297687366
H  H191  1  0.40290000  0.23470000  0.80940000  1.0 0.1297687366
H  H192  1  0.30300000  0.23620000  0.80260000  1.0 0.1005219818
H  H193  1  0.33670000  0.07450000  0.78020000  1.0 0.1005219818
H  H194  1  0.37450000  0.32050000  0.57160000  1.0 0.1297687366
H  H195  1  0.41010000  0.36610000  0.58410000  1.0 0.1297687366
H  H196  1  0.37110000  0.34150000  0.61260000  1.0 0.1389042189
H  H197  1  0.31450000  0.36870000  0.51090000  1.0 0.120164399
H  H198  1  0.25710000  0.42150000  0.50670000  1.0 0.1297687366
H  H199  1  0.31610000  0.43690000  0.49880000  1.0 0.1297687366
H  H200  1  0.46020000  0.07120000  0.20580000  1.0 0.120164399
H  H201  1  0.32590000  0.19990000  0.11260000  1.0 0.120164399
H  H202  1  0.27200000  0.21320000  0.16080000  1.0 0.120164399
H  H203  1  0.40630000  0.08450000  0.25400000  1.0 0.1105804935
H  H204  1  0.29140000  0.92600000  0.70400000  1.0 0.1105804935
H  H205  1  0.27330000  0.97570000  0.75370000  1.0 0.1105804935
H  H206  1  0.15340000  0.11640000  0.66010000  1.0 0.120164399
H  H207  1  0.17150000  0.06670000  0.61040000  1.0 0.120164399
H  H208  1  0.62470000  0.44550000  0.63100000  1.0 0.1105804935
H  H209  1  0.60570000  0.56270000  0.69980000  1.0 0.1005219818
H  H210  1  0.40510000  0.97390000  0.36650000  1.0 0.120164399
H  H211  1  0.60830000  0.39110000  0.71360000  1.0 0.0809840226
H  H212  1  0.12850000  0.63110000  0.07380000  1.0 0.120164399
H  H213  1  0.17570000  0.66610000  0.06350000  1.0 0.1297687366
H  H214  1  0.13830000  0.68310000  0.09470000  1.0 0.1389042189
H  H215  1  0.31860000  0.91600000  0.38970000  1.0 0.1105804935
H  H216  1  0.36540000  0.93960000  0.41890000  1.0 0.1005219818
H  H217  1  0.50070000  0.04290000  0.86200000  1.0 0.0928057185
H  H218  1  0.56020000  0.94440000  0.93440000  1.0 0.0928057185
H  H219  1  0.38240000  0.84780000  0.47610000  1.0 0.0928057185
H  H220  1  0.31500000  0.89200000  0.46290000  1.0 0.1005219818
H  H221  1  0.60860000  0.04260000  0.91170000  1.0 0.1105804935
H  H222  1  0.63490000  0.98770000  0.95440000  1.0 0.120164399
H  H223  1  0.41920000  0.06260000  0.88760000  1.0 0.120164399
H  H224  1  0.45310000  0.00770000  0.92980000  1.0 0.1105804935
H  H225  1  0.39130000  0.97070000  0.87760000  1.0 0.120164399
H  H226  1  0.48990000  0.11250000  0.90330000  1.0 0.1005219818
H  H227  1  0.46890000  0.09450000  0.94460000  1.0 0.1005219818
H  H228  1  0.46290000  0.73450000  0.83900000  1.0 0.120164399
H  H229  1  0.50420000  0.77480000  0.82510000  1.0 0.1297687366
H  H230  1  0.49020000  0.72700000  0.80110000  1.0 0.1297687366
H  H231  1  0.96430000  0.82630000  0.23310000  1.0 0.1105804935
H  H232  1  0.01640000  0.82880000  0.27180000  1.0 0.1105804935
H  H233  1  0.64640000  0.89840000  0.34020000  1.0 0.120164399
H  H234  1  0.65280000  0.86940000  0.30280000  1.0 0.120164399
H  H235  1  0.59970000  0.86430000  0.32350000  1.0 0.1389042189
H  H236  1  0.01990000  0.65150000  0.27960000  1.0 0.1105804935
H  H237  1  0.96600000  0.65820000  0.23960000  1.0 0.1105804935
H  H238  1  0.98450000  0.74370000  0.19990000  1.0 0.0809840226
H  H239  1  0.55580000  0.01880000  0.97840000  1.0 0.1005219818
H  H240  1  0.57290000  0.07830000  0.96110000  1.0 0.1005219818
H  H241  1  0.57240000  0.22220000  0.61330000  1.0 0.1389042189
H  H242  1  0.50920000  0.23760000  0.57880000  1.0 0.120164399
H  H243  1  0.56420000  0.18380000  0.58070000  1.0 0.1297687366
H  H244  1  0.56500000  0.08560000  0.67730000  1.0 0.1297687366
H  H245  1  0.60620000  0.12980000  0.67430000  1.0 0.1389042189
H  H246  1  0.59960000  0.09040000  0.64210000  1.0 0.1389042189
H  H247  1  0.46980000  0.10840000  0.62330000  1.0 0.1105804935
H  H248  1  0.50170000  0.11470000  0.58660000  1.0 0.120164399
H  H249  1  0.44680000  0.16840000  0.58470000  1.0 0.1105804935
H  H250  1  0.43900000  0.83860000  0.43290000  1.0 0.1005219818
H  H251  1  0.34170000  0.82190000  0.73610000  1.0 0.1005219818
H  H252  1  0.35730000  0.75750000  0.76950000  1.0 0.1297687366
H  H253  1  0.39370000  0.76710000  0.73560000  1.0 0.1105804935
H  H254  1  0.04920000  0.30140000  0.42880000  1.0 0.1005219818
H  H255  1  0.06320000  0.26160000  0.39990000  1.0 0.0928057185
H  H256  1  0.10240000  0.32480000  0.90050000  1.0 0.0928057185
H  H257  1  0.07900000  0.33780000  0.93900000  1.0 0.0928057185
H  H258  1  0.48940000  0.24080000  0.47360000  1.0 0.1297687366
H  H259  1  0.53140000  0.26200000  0.44650000  1.0 0.1706020361
H  H260  1  0.49360000  0.21860000  0.43310000  1.0 0.1706020361
H  H261  1  0.14160000  0.82000000  0.80670000  1.0 0.1105804935
H  H262  1  0.23830000  0.81890000  0.80310000  1.0 0.1297687366
H  H263  1  0.21720000  0.97800000  0.82940000  1.0 0.1389042189
H  H264  1  0.12040000  0.97900000  0.83300000  1.0 0.1005219818
H  H265  1  0.31120000  0.95560000  0.85140000  1.0 0.120164399
H  H266  1  0.31380000  0.82240000  0.79580000  1.0 0.1005219818
H  H267  1  0.57540000  0.12580000  0.31670000  1.0 0.1297687366
H  H268  1  0.41500000  0.14160000  0.34050000  1.0 0.1297687366
H  H269  1  0.40850000  0.24010000  0.34190000  1.0 0.1005219818
H  H270  1  0.56890000  0.22430000  0.31820000  1.0 0.1105804935
H  H271  1  0.03030000  0.31610000  0.71390000  1.0 0.1005219818
H  H272  1  0.93460000  0.30980000  0.71510000  1.0 0.1297687366
H  H273  1  0.96720000  0.15560000  0.68240000  1.0 0.1389042189
H  H274  1  0.06290000  0.16190000  0.68120000  1.0 0.1005219818
H  H275  1  0.55190000  0.05850000  0.28190000  1.0 0.1105804935
H  H276  1  0.44420000  0.05540000  0.35830000  1.0 0.120164399
H  H277  1  0.91770000  0.96430000  0.85520000  1.0 0.120164399
H  H278  1  0.82700000  0.95340000  0.86580000  1.0 0.120164399
H  H279  1  0.86200000  0.79220000  0.84270000  1.0 0.1297687366
H  H280  1  0.95270000  0.80310000  0.83210000  1.0 0.1105804935
H  H281  1  0.07210000  0.85090000  0.24540000  1.0 0.0809840226
H  H282  1  0.77540000  0.80480000  0.81700000  1.0 0.1005219818
H  H283  1  0.75130000  0.92750000  0.88120000  1.0 0.1105804935
H  H284  1  0.78260000  0.29980000  0.75200000  1.0 0.1005219818
H  H285  1  0.20660000  0.49260000  0.15170000  1.0 0.1105804935
H  H286  1  0.10210000  0.51190000  0.22920000  1.0 0.1105804935
H  H287  1  0.08050000  0.01970000  0.20760000  1.0 0.1297687366
H  H288  1  0.22550000  0.01910000  0.16490000  1.0 0.1389042189
H  H289  1  0.21830000  0.11650000  0.16950000  1.0 0.1105804935
H  H290  1  0.07320000  0.11700000  0.21210000  1.0 0.1005219818
H  H291  1  0.96060000  0.35860000  0.47520000  1.0 0.120164399
H  H292  1  0.00940000  0.36120000  0.54240000  1.0 0.120164399
H  H293  1  0.08820000  0.18220000  0.57620000  1.0 0.120164399
H  H294  1  0.03940000  0.17960000  0.50910000  1.0 0.1297687366
H  H295  1  0.40340000  0.86500000  0.72730000  1.0 0.120164399
H  H296  1  0.45490000  0.80490000  0.73440000  1.0 0.1297687366
H  H297  1  0.46890000  0.85270000  0.75840000  1.0 0.1389042189
H  H298  1  0.87870000  0.28790000  0.45360000  1.0 0.120164399
H  H299  1  0.87820000  0.25660000  0.34130000  1.0 0.1105804935
H  H300  1  0.78620000  0.31500000  0.32370000  1.0 0.1105804935
H  H301  1  0.79970000  0.23550000  0.44540000  1.0 0.120164399
H  H302  1  0.69570000  0.25230000  0.42740000  1.0 0.1297687366
H  H303  1  0.68230000  0.33170000  0.30570000  1.0 0.1297687366
H  H304  1  0.93250000  0.69470000  0.29420000  1.0 0.0928057185
H  H305  1  0.90710000  0.74390000  0.24880000  1.0 0.0928057185
H  H306  1  0.01830000  0.34550000  0.03860000  1.0 0.120164399
H  H307  1  0.01980000  0.40380000  0.97380000  1.0 0.120164399
H  H308  1  0.20040000  0.36580000  0.01760000  1.0 0.1297687366
H  H309  1  0.19890000  0.30750000  0.08250000  1.0 0.120164399
H  H310  1  0.66470000  0.96570000  0.89000000  1.0 0.1105804935
H  H311  1  0.67740000  0.29120000  0.78600000  1.0 0.1005219818
H  H312  1  0.10080000  0.50360000  0.96100000  1.0 0.1105804935
H  H313  1  0.12420000  0.51000000  0.84590000  1.0 0.1105804935
H  H314  1  0.10790000  0.92970000  0.22530000  1.0 0.1105804935
H  H315  1  0.18800000  0.95320000  0.13220000  1.0 0.1005219818
H  H316  1  0.01050000  0.73730000  0.31430000  1.0 0.0928057185
H  H317  1  0.94770000  0.78770000  0.30050000  1.0 0.0928057185
H  H318  1  0.05290000  0.59430000  0.23320000  1.0 0.1005219818
H  H319  1  0.59870000  0.02410000  0.24970000  1.0 0.1005219818
H  H320  1  0.65180000  0.96480000  0.25810000  1.0 0.120164399
H  H321  1  0.64640000  0.99420000  0.29540000  1.0 0.1105804935
H  H322  1  0.69940000  0.40220000  0.74870000  1.0 0.1105804935
H  H323  1  0.74580000  0.35080000  0.78910000  1.0 0.1105804935
H  H324  1  0.28160000  0.84320000  0.41350000  1.0 0.1005219818
H  H325  1  0.31160000  0.79440000  0.45840000  1.0 0.1005219818
H  H326  1  0.33530000  0.75950000  0.40230000  1.0 0.1105804935
H  H327  1  0.39410000  0.75410000  0.43850000  1.0 0.1005219818
H  H328  1  0.57680000  0.35440000  0.79010000  1.0 0.1105804935
H  H329  1  0.53270000  0.40590000  0.74850000  1.0 0.1105804935
H  H330  1  0.86050000  0.27130000  0.73760000  1.0 0.120164399
H  H331  1  0.87680000  0.18680000  0.64830000  1.0 0.1105804935
H  H332  1  0.27950000  0.80670000  0.15650000  1.0 0.120164399
H  H333  1  0.27160000  0.78860000  0.11350000  1.0 0.1297687366
H  H334  1  0.24040000  0.76220000  0.14760000  1.0 0.1297687366
H  H335  1  0.11620000  0.87620000  0.06730000  1.0 0.1297687366
H  H336  1  0.13760000  0.80600000  0.09140000  1.0 0.1389042189
H  H337  1  0.16860000  0.83240000  0.05740000  1.0 0.1297687366
H  H338  1  0.07050000  0.72750000  0.27760000  1.0 0.1005219818
H  H339  1  0.82210000  0.18630000  0.58840000  1.0 0.1105804935
H  H340  1  0.78930000  0.13630000  0.58160000  1.0 0.1297687366
H  H341  1  0.84200000  0.12320000  0.62400000  1.0 0.120164399
H  H342  1  0.77520000  0.09880000  0.66640000  1.0 0.1297687366
H  H343  1  0.72290000  0.11150000  0.62390000  1.0 0.1389042189
H  H344  1  0.71140000  0.14560000  0.65810000  1.0 0.1468543498
H  H345  1  0.60520000  0.46020000  0.75140000  1.0 0.0809840226
H  H346  1  0.58590000  0.45070000  0.79420000  1.0 0.1005219818
H  H347  1  0.42960000  0.70860000  0.39980000  1.0 0.1105804935
H  H348  1  0.24100000  0.91260000  0.09750000  1.0 0.1005219818
H  H349  1  0.17380000  0.93080000  0.06750000  1.0 0.120164399
H  H350  1  0.22510000  0.87990000  0.06210000  1.0 0.120164399
H  H351  1  0.27060000  0.52680000  0.12940000  1.0 0.120164399
H  H352  1  0.25610000  0.57530000  0.08470000  1.0 0.1297687366
H  H353  1  0.21000000  0.53800000  0.09310000  1.0 0.1105804935
H  H354  1  0.14860000  0.58000000  0.95160000  1.0 0.120164399
H  H355  1  0.13380000  0.68360000  0.93640000  1.0 0.1297687366
H  H356  1  0.03740000  0.70600000  0.81660000  1.0 0.1297687366
H  H357  1  0.05220000  0.60240000  0.83180000  1.0 0.120164399
H  H358  1  0.69110000  0.42390000  0.81320000  1.0 0.1005219818
H  H359  1  0.67200000  0.36380000  0.82670000  1.0 0.1105804935
H  H360  1  0.52480000  0.97240000  0.22420000  1.0 0.120164399
H  H361  1  0.52610000  0.90910000  0.25330000  1.0 0.1389042189
H  H362  1  0.57910000  0.91410000  0.23260000  1.0 0.1297687366
H  H363  1  0.72670000  0.25930000  0.57620000  1.0 0.120164399
H  H364  1  0.68150000  0.24450000  0.60250000  1.0 0.1389042189
H  H365  1  0.69300000  0.21040000  0.56840000  1.0 0.1297687366
H  H366  1  0.68750000  0.71550000  0.85790000  1.0 0.120164399
H  H367  1  0.63420000  0.71260000  0.82100000  1.0 0.120164399
H  H368  1  0.62140000  0.75920000  0.84720000  1.0 0.1389042189
H  H369  1  0.64540000  0.70220000  0.33110000  1.0 0.1297687366
H  H370  1  0.60280000  0.76960000  0.31640000  1.0 0.1389042189
H  H371  1  0.64650000  0.74930000  0.28970000  1.0 0.1297687366
H  H372  1  0.74490000  0.73010000  0.80490000  1.0 0.1105804935
H  H373  1  0.71500000  0.78380000  0.76200000  1.0 0.120164399
H  H374  1  0.68880000  0.72760000  0.77000000  1.0 0.120164399
H  H375  1  0.34190000  0.84890000  0.36100000  1.0 0.0928057185
H  H376  1  0.56210000  0.78550000  0.22700000  1.0 0.1297687366
H  H377  1  0.51680000  0.80440000  0.25310000  1.0 0.1389042189
H  H378  1  0.50420000  0.76180000  0.22410000  1.0 0.1297687366
H  H379  1  0.62840000  0.63460000  0.28530000  1.0 0.120164399
H  H380  1  0.63140000  0.68700000  0.24780000  1.0 0.1297687366
H  H381  1  0.57560000  0.66000000  0.24180000  1.0 0.120164399
H  H382  1  0.61650000  0.85150000  0.74870000  1.0 0.120164399
H  H383  1  0.57870000  0.84110000  0.78150000  1.0 0.1389042189
H  H384  1  0.59160000  0.79440000  0.75530000  1.0 0.1297687366
H  H385  1  0.28300000  0.60860000  0.16260000  1.0 0.1297687366
H  H386  1  0.22980000  0.66980000  0.14730000  1.0 0.1389042189
H  H387  1  0.26710000  0.65270000  0.11600000  1.0 0.1389042189
H  H388  1  0.43540000  0.28360000  0.72090000  1.0 0.1105804935
H  H389  1  0.42090000  0.17510000  0.64570000  1.0 0.1105804935
H  H390  1  0.35370000  0.15970000  0.66760000  1.0 0.1297687366
H  H391  1  0.25520000  0.16520000  0.66900000  1.0 0.1105804935
H  H392  1  0.24020000  0.32240000  0.69750000  1.0 0.1005219818
H  H393  1  0.33850000  0.31690000  0.69620000  1.0 0.1297687366
H  H394  1  0.50820000  0.32380000  0.73240000  1.0 0.1105804935
H  H395  1  0.45230000  0.53970000  0.37720000  1.0 0.120164399
H  H396  1  0.45110000  0.44070000  0.38280000  1.0 0.1005219818
H  H397  1  0.54920000  0.43240000  0.30050000  1.0 0.1105804935
H  H398  1  0.55050000  0.53130000  0.29490000  1.0 0.1297687366
H  H399  1  0.07300000  0.43660000  0.21300000  1.0 0.1297687366
H  H400  1  0.23470000  0.40290000  0.19060000  1.0 0.1297687366
H  H401  1  0.23620000  0.30300000  0.19740000  1.0 0.1005219818
H  H402  1  0.07450000  0.33670000  0.21980000  1.0 0.1005219818
H  H403  1  0.32050000  0.37450000  0.42840000  1.0 0.1297687366
H  H404  1  0.36610000  0.41010000  0.41590000  1.0 0.1297687366
H  H405  1  0.34150000  0.37110000  0.38740000  1.0 0.1389042189
H  H406  1  0.36870000  0.31450000  0.48910000  1.0 0.120164399
H  H407  1  0.42150000  0.25710000  0.49330000  1.0 0.1297687366
H  H408  1  0.43690000  0.31610000  0.50120000  1.0 0.1297687366
H  H409  1  0.07120000  0.46020000  0.79420000  1.0 0.120164399
H  H410  1  0.19990000  0.32590000  0.88740000  1.0 0.120164399
H  H411  1  0.21320000  0.27200000  0.83920000  1.0 0.120164399
H  H412  1  0.08450000  0.40630000  0.74600000  1.0 0.1105804935
H  H413  1  0.92600000  0.29140000  0.29600000  1.0 0.1105804935
H  H414  1  0.97570000  0.27330000  0.24630000  1.0 0.1105804935
H  H415  1  0.11640000  0.15340000  0.33990000  1.0 0.120164399
H  H416  1  0.06670000  0.17150000  0.38960000  1.0 0.120164399
H  H417  1  0.44550000  0.62470000  0.36900000  1.0 0.1105804935
H  H418  1  0.56270000  0.60570000  0.30020000  1.0 0.1005219818
C  C1  1  0.28200000  0.11820000  0.89190000  1.0 0.5013080575
C  C2  1  0.94610000  0.43650000  0.63790000  1.0 -0.0101583614
C  C3  1  0.35780000  0.60920000  0.26220000  1.0 0.0196443772
C  C4  1  0.65030000  0.15810000  0.91470000  1.0 -0.4672373339
C  C5  1  0.90350000  0.35490000  0.58590000  1.0 -0.2095862875
C  C6  1  0.00910000  0.49810000  0.11570000  1.0 0.0083316793
C  C7  1  0.97640000  0.56300000  0.08910000  1.0 0.0928057185
C  C8  1  0.86690000  0.34490000  0.54710000  1.0 -0.1576648801
C  C9  1  0.01410000  0.59770000  0.06740000  1.0 -0.2180093551
C  C10  1  0.03850000  0.45890000  0.09260000  1.0 -0.190994797
C  C11  1  0.95600000  0.41180000  0.14050000  1.0 -0.0030878557
C  C12  1  0.07810000  0.49110000  0.07360000  1.0 -0.1576648801
C  C13  1  0.26440000  0.08860000  0.38990000  1.0 0.5013080575
C  C14  1  0.75570000  0.47390000  0.18500000  1.0 -0.4510407643
C  C15  1  0.80200000  0.99720000  0.74110000  1.0 -0.2180093551
C  C16  1  0.88990000  0.62430000  0.68470000  1.0 -0.4607531341
C  C17  1  0.68090000  0.98770000  0.74470000  1.0 -0.181384487
C  C18  1  0.71710000  0.01650000  0.77400000  1.0 0.0083316793
C  C19  1  0.04750000  0.55570000  0.04770000  1.0 -0.1576648801
C  C20  1  0.20520000  0.54440000  0.40250000  1.0 -0.4672373339
C  C21  1  0.16260000  0.52540000  0.37230000  1.0 0.2819421826
C  C22  1  0.11270000  0.57870000  0.34200000  1.0 -0.4607531341
C  C23  1  0.13620000  0.48220000  0.39660000  1.0 -0.4672373339
C  C24  1  0.86220000  0.40660000  0.59370000  1.0 0.0718773542
C  C25  1  0.78580000  0.37400000  0.24630000  1.0 -0.4510407643
C  C26  1  0.25940000  0.05700000  0.57200000  1.0 -0.0512508994
C  C27  1  0.33410000  0.11370000  0.07240000  1.0 -0.0603970648
C  C28  1  0.25210000  0.49370000  0.55490000  1.0 -0.6016166272
C  C29  1  0.30350000  0.15050000  0.24460000  1.0 0.4566343962
C  C30  1  0.21050000  0.08290000  0.74370000  1.0 0.5013080575
C  C31  1  0.85210000  0.15690000  0.18870000  1.0 0.0718773542
C  C32  1  0.85140000  0.21440000  0.19090000  1.0 -0.190994797
C  C33  1  0.89840000  0.23680000  0.18410000  1.0 0.1297687366
C  C34  1  0.94590000  0.20190000  0.17520000  1.0 -0.1687421643
C  C35  1  0.94660000  0.14440000  0.17310000  1.0 0.050689109
C  C36  1  0.88590000  0.41890000  0.17970000  1.0 0.2193151204
C  C37  1  0.92630000  0.38930000  0.16230000  1.0 -0.0101583614
C  C38  1  0.92790000  0.33150000  0.16050000  1.0 -0.2095862875
C  C39  1  0.88930000  0.30330000  0.17610000  1.0 0.0596690026
C  C40  1  0.84880000  0.33300000  0.19350000  1.0 -0.2004322173
C  C41  1  0.84710000  0.39070000  0.19530000  1.0 -0.0193658167
C  C42  1  0.14900000  0.54160000  0.67820000  1.0 -0.181384487
C  C43  1  0.12440000  0.49580000  0.67160000  1.0 0.120164399
C  C44  1  0.15840000  0.44620000  0.66410000  1.0 -0.190994797
C  C45  1  0.21680000  0.44240000  0.66320000  1.0 0.0596690026
C  C46  1  0.20750000  0.53770000  0.67730000  1.0 0.0596690026
C  C47  1  0.28350000  0.01750000  0.29250000  1.0 0.0292043237
C  C48  1  0.27980000  0.96060000  0.29180000  1.0 -0.190994797
C  C49  1  0.23210000  0.94190000  0.30110000  1.0 0.120164399
C  C50  1  0.18820000  0.98000000  0.31120000  1.0 -0.190994797
C  C51  1  0.19190000  0.03690000  0.31190000  1.0 0.050689109
C  C52  1  0.94630000  0.50850000  0.67410000  1.0 0.1892041279
C  C53  1  0.97730000  0.53770000  0.69830000  1.0 -0.0101583614
C  C54  1  0.03740000  0.53200000  0.70150000  1.0 -0.2095862875
C  C55  1  0.06640000  0.49720000  0.68040000  1.0 0.0596690026
C  C56  1  0.03550000  0.46810000  0.65620000  1.0 -0.2004322173
C  C57  1  0.97550000  0.47370000  0.65300000  1.0 -0.0300939399
C  C58  1  0.92940000  0.90640000  0.14740000  1.0 0.0596690026
C  C59  1  0.92290000  0.85250000  0.14110000  1.0 -0.181384487
C  C60  1  0.87170000  0.83590000  0.14480000  1.0 0.120164399
C  C61  1  0.82710000  0.87330000  0.15480000  1.0 -0.181384487
C  C62  1  0.83360000  0.92720000  0.16110000  1.0 0.0596690026
C  C63  1  0.83070000  0.08810000  0.77240000  1.0 -0.0193658167
C  C64  1  0.89770000  0.67850000  0.13570000  1.0 -0.0372517679
C  C65  1  0.85940000  0.65680000  0.15620000  1.0 0.183846557
C  C66  1  0.82480000  0.69280000  0.17380000  1.0 -0.0030878557
C  C67  1  0.82850000  0.75070000  0.17090000  1.0 -0.2180093551
C  C68  1  0.86670000  0.77250000  0.15040000  1.0 0.0596690026
C  C69  1  0.90120000  0.73640000  0.13280000  1.0 -0.181384487
C  C70  1  0.28690000  0.75710000  0.26760000  1.0 -0.0512508994
C  C71  1  0.57720000  0.18260000  0.84290000  1.0 -0.0300939399
C  C72  1  0.51710000  0.18470000  0.83520000  1.0 -0.190994797
C  C73  1  0.49280000  0.15460000  0.80830000  1.0 0.050689109
C  C74  1  0.52860000  0.12260000  0.78920000  1.0 -0.1687421643
C  C75  1  0.58870000  0.12050000  0.79690000  1.0 -0.0687328738
C  C76  1  0.61300000  0.15060000  0.82370000  1.0 0.230927871
C  C77  1  0.03930000  0.10850000  0.80010000  1.0 -0.190994797
C  C78  1  0.01030000  0.15370000  0.81420000  1.0 0.1297687366
C  C79  1  0.03900000  0.19460000  0.82550000  1.0 -0.181384487
C  C80  1  0.09680000  0.19040000  0.82280000  1.0 0.050689109
C  C81  1  0.09720000  0.10420000  0.79740000  1.0 0.050689109
C  C82  1  0.32280000  0.98640000  0.50430000  1.0 -0.1518808562
C  C83  1  0.32430000  0.01550000  0.46440000  1.0 -0.1084681289
C  C84  1  0.27200000  0.05340000  0.43440000  1.0 -0.0300939399
C  C85  1  0.21790000  0.06230000  0.44430000  1.0 -0.0989221247
C  C86  1  0.21650000  0.03330000  0.48420000  1.0 -0.1171635525
C  C87  1  0.26880000  0.99540000  0.51420000  1.0 0.0809840226
C  C88  1  0.83410000  0.43830000  0.25210000  1.0 -0.4607531341
C  C89  1  0.27950000  0.89950000  0.56610000  1.0 -0.2004322173
C  C90  1  0.27360000  0.96040000  0.55700000  1.0 0.0083316793
C  C91  1  0.26130000  0.99090000  0.58580000  1.0 -0.0101583614
C  C92  1  0.25500000  0.96020000  0.62370000  1.0 0.0196443772
C  C93  1  0.26100000  0.89920000  0.63280000  1.0 -0.2004322173
C  C94  1  0.27320000  0.86880000  0.60400000  1.0 0.0809840226
C  C95  1  0.30230000  0.76790000  0.65520000  1.0 -0.1518808562
C  C96  1  0.27370000  0.80270000  0.61370000  1.0 0.0809840226
C  C97  1  0.25510000  0.77590000  0.58290000  1.0 -0.1576648801
C  C98  1  0.26500000  0.71420000  0.59360000  1.0 -0.0989221247
C  C99  1  0.29350000  0.67930000  0.63510000  1.0 -0.0300939399
C  C100  1  0.31220000  0.70620000  0.66590000  1.0 -0.1084681289
C  C101  1  0.72020000  0.94380000  0.72810000  1.0 -0.1687421643
C  C102  1  0.32100000  0.10840000  0.93340000  1.0 -0.0512508994
C  C103  1  0.34960000  0.05520000  0.96560000  1.0 -0.0989221247
C  C104  1  0.38420000  0.05620000  0.00410000  1.0 -0.1687421643
C  C105  1  0.39020000  0.11020000  0.01040000  1.0 0.0718773542
C  C106  1  0.36170000  0.16330000  0.97810000  1.0 -0.1299814867
C  C107  1  0.32710000  0.16250000  0.93960000  1.0 -0.0915494349
C  C108  1  0.80260000  0.41940000  0.21580000  1.0 0.2728921412
C  C109  1  0.93860000  0.64480000  0.11910000  1.0 -0.0193658167
C  C110  1  0.32400000  0.67420000  0.23940000  1.0 0.0809840226
C  C111  1  0.94790000  0.58450000  0.71670000  1.0 0.2728921412
C  C112  1  0.48390000  0.10870000  0.05930000  1.0 -0.2004322173
C  C113  1  0.42230000  0.11770000  0.05040000  1.0 0.0083316793
C  C114  1  0.39350000  0.12910000  0.08010000  1.0 0.0083316793
C  C115  1  0.42620000  0.13160000  0.11880000  1.0 0.0292043237
C  C116  1  0.48760000  0.12260000  0.12770000  1.0 -0.2004322173
C  C117  1  0.51650000  0.11110000  0.09800000  1.0 0.0596690026
C  C118  1  0.91500000  0.12440000  0.79450000  1.0 -0.181384487
C  C119  1  0.85770000  0.12530000  0.79730000  1.0 -0.0300939399
C  C120  1  0.83610000  0.14950000  0.82630000  1.0 0.1892041279
C  C121  1  0.87170000  0.17290000  0.85250000  1.0 -0.0193658167
C  C122  1  0.92890000  0.17210000  0.84980000  1.0 -0.2004322173
C  C123  1  0.95060000  0.14780000  0.82080000  1.0 0.0596690026
C  C124  1  0.76200000  0.97560000  0.71010000  1.0 -0.1518808562
C  C125  1  0.61640000  0.07480000  0.78070000  1.0 -0.0193658167
C  C126  1  0.98610000  0.62390000  0.72950000  1.0 -0.4510407643
C  C127  1  0.37010000  0.70270000  0.22610000  1.0 -0.2004322173
C  C128  1  0.82140000  0.32020000  0.56470000  1.0 -0.1576648801
C  C129  1  0.78270000  0.35850000  0.58380000  1.0 -0.2180093551
C  C130  1  0.38540000  0.57520000  0.23520000  1.0 -0.2095862875
C  C131  1  0.25500000  0.84320000  0.28350000  1.0 -0.190994797
C  C132  1  0.25750000  0.78290000  0.29220000  1.0 -0.0300939399
C  C133  1  0.23370000  0.75750000  0.32310000  1.0 0.2072524814
C  C134  1  0.20730000  0.79250000  0.34530000  1.0 -0.0193658167
C  C135  1  0.20480000  0.85280000  0.33650000  1.0 -0.2004322173
C  C136  1  0.22860000  0.87820000  0.30570000  1.0 0.0596690026
C  C137  1  0.79730000  0.25190000  0.86530000  1.0 -0.4672373339
C  C138  1  0.85030000  0.19650000  0.88620000  1.0 0.2915531981
C  C139  1  0.84030000  0.15070000  0.92050000  1.0 -0.4510407643
C  C140  1  0.75460000  0.04240000  0.75000000  1.0 0.0809840226
C  C141  1  0.15400000  0.80800000  0.39750000  1.0 -0.4607531341
C  C142  1  0.12950000  0.74110000  0.35520000  1.0 -0.4801374277
C  C143  1  0.17930000  0.76250000  0.37680000  1.0 0.2915531981
C  C144  1  0.42980000  0.60640000  0.22300000  1.0 -0.1576648801
C  C145  1  0.73110000  0.43850000  0.62400000  1.0 -0.0512508994
C  C146  1  0.89750000  0.21030000  0.91750000  1.0 -0.4510407643
C  C147  1  0.55700000  0.23860000  0.89410000  1.0 -0.4510407643
C  C148  1  0.58150000  0.10170000  0.10690000  1.0 0.0809840226
C  C149  1  0.60560000  0.12600000  0.07580000  1.0 -0.1576648801
C  C150  1  0.66700000  0.11720000  0.08490000  1.0 -0.0915494349
C  C151  1  0.70440000  0.08420000  0.12500000  1.0 -0.0372517679
C  C152  1  0.68040000  0.06000000  0.15600000  1.0 -0.0989221247
C  C153  1  0.61890000  0.06870000  0.14700000  1.0 -0.1518808562
C  C154  1  0.39620000  0.67080000  0.19770000  1.0 -0.1576648801
C  C155  1  0.93480000  0.55060000  0.75500000  1.0 -0.4672373339
C  C156  1  0.22760000  0.71140000  0.41030000  1.0 -0.4607531341
C  C157  1  0.73920000  0.65080000  0.16480000  1.0 -0.4510407643
C  C158  1  0.73640000  0.62100000  0.69330000  1.0 -0.4607531341
C  C159  1  0.75400000  0.70700000  0.21660000  1.0 -0.4510407643
C  C160  1  0.82250000  0.37850000  0.61570000  1.0 0.0596690026
C  C161  1  0.71790000  0.57110000  0.72050000  1.0 0.2915531981
C  C162  1  0.77210000  0.53550000  0.75730000  1.0 -0.4801374277
C  C163  1  0.67060000  0.60480000  0.73800000  1.0 -0.4607531341
C  C164  1  0.82130000  0.60790000  0.23070000  1.0 -0.4607531341
C  C165  1  0.78550000  0.66490000  0.19620000  1.0 0.2728921412
C  C166  1  0.77070000  0.06710000  0.13700000  1.0 0.5116940676
C  C167  1  0.30360000  0.61280000  0.65020000  1.0 0.5338780223
C  C168  1  0.60470000  0.20670000  0.87780000  1.0 0.2966686426
C  C169  1  0.63680000  0.25040000  0.86150000  1.0 -0.4801374277
C  C170  1  0.30560000  0.44240000  0.58220000  1.0 0.517790669
C  C171  1  0.23250000  0.53010000  0.32720000  1.0 0.2072524814
C  C172  1  0.26380000  0.50680000  0.30200000  1.0 -0.0687328738
C  C173  1  0.26220000  0.45140000  0.29630000  1.0 -0.1687421643
C  C174  1  0.22900000  0.41940000  0.31580000  1.0 0.050689109
C  C175  1  0.19770000  0.44270000  0.34100000  1.0 -0.2004322173
C  C176  1  0.19940000  0.49820000  0.34670000  1.0 -0.0300939399
C  C177  1  0.19260000  0.33060000  0.32630000  1.0 -0.181384487
C  C178  1  0.19600000  0.27220000  0.32550000  1.0 0.0718773542
C  C179  1  0.28940000  0.26320000  0.30860000  1.0 0.0292043237
C  C180  1  0.28600000  0.32160000  0.30940000  1.0 -0.181384487
C  C181  1  0.23770000  0.35530000  0.31820000  1.0 0.120164399
C  C182  1  0.30220000  0.53100000  0.28180000  1.0 0.0596690026
C  C183  1  0.54480000  0.50160000  0.66450000  1.0 0.120164399
C  C184  1  0.51780000  0.47200000  0.63830000  1.0 -0.2004322173
C  C185  1  0.45910000  0.47130000  0.63500000  1.0 0.0809840226
C  C186  1  0.45420000  0.52960000  0.68390000  1.0 0.050689109
C  C187  1  0.51290000  0.53030000  0.68730000  1.0 -0.181384487
C  C188  1  0.40950000  0.10610000  0.79020000  1.0 -0.181384487
C  C189  1  0.42910000  0.15370000  0.79880000  1.0 0.120164399
C  C190  1  0.38950000  0.20210000  0.80350000  1.0 -0.190994797
C  C191  1  0.33010000  0.20310000  0.79940000  1.0 0.0596690026
C  C192  1  0.35020000  0.10700000  0.78610000  1.0 0.050689109
C  C193  1  0.37360000  0.35400000  0.58370000  1.0 -0.3490584604
C  C194  1  0.30090000  0.40790000  0.51550000  1.0 -0.3490584604
C  C195  1  0.42200000  0.10000000  0.19660000  1.0 -0.1518808562
C  C196  1  0.39810000  0.13430000  0.15460000  1.0 0.0809840226
C  C197  1  0.34230000  0.17650000  0.14130000  1.0 -0.1518808562
C  C198  1  0.31020000  0.18440000  0.17000000  1.0 -0.0989221247
C  C199  1  0.33400000  0.15000000  0.21190000  1.0 -0.0372517679
C  C200  1  0.38990000  0.10790000  0.22530000  1.0 -0.0989221247
C  C201  1  0.23320000  0.99160000  0.65250000  1.0 0.0809840226
C  C202  1  0.26340000  0.96460000  0.69500000  1.0 -0.1576648801
C  C203  1  0.25260000  0.99420000  0.72460000  1.0 -0.0915494349
C  C204  1  0.21160000  0.05080000  0.71150000  1.0 -0.0300939399
C  C205  1  0.18140000  0.07780000  0.66900000  1.0 -0.0989221247
C  C206  1  0.19220000  0.04820000  0.63950000  1.0 -0.1518808562
C  C207  1  0.64090000  0.46970000  0.64630000  1.0 -0.1576648801
C  C208  1  0.69970000  0.47070000  0.65030000  1.0 -0.0512508994
C  C209  1  0.72350000  0.50610000  0.67280000  1.0 0.230927871
C  C210  1  0.68850000  0.54030000  0.69120000  1.0 -0.0512508994
C  C211  1  0.62970000  0.53930000  0.68720000  1.0 -0.181384487
C  C212  1  0.60590000  0.50390000  0.66480000  1.0 0.050689109
C  C213  1  0.11820000  0.28200000  0.10810000  1.0 0.5013080575
C  C214  1  0.43650000  0.94610000  0.36210000  1.0 -0.0101583614
C  C215  1  0.60920000  0.35780000  0.73780000  1.0 0.0196443772
C  C216  1  0.15810000  0.65030000  0.08530000  1.0 -0.4672373339
C  C217  1  0.35490000  0.90350000  0.41410000  1.0 -0.2095862875
C  C218  1  0.49810000  0.00910000  0.88430000  1.0 0.0083316793
C  C219  1  0.56300000  0.97640000  0.91090000  1.0 0.0928057185
C  C220  1  0.34490000  0.86690000  0.45290000  1.0 -0.1576648801
C  C221  1  0.59770000  0.01410000  0.93260000  1.0 -0.2180093551
C  C222  1  0.45890000  0.03850000  0.90740000  1.0 -0.190994797
C  C223  1  0.41180000  0.95600000  0.85950000  1.0 -0.0101583614
C  C224  1  0.49110000  0.07810000  0.92640000  1.0 -0.1576648801
C  C225  1  0.08860000  0.26440000  0.61010000  1.0 0.5013080575
C  C226  1  0.47390000  0.75570000  0.81500000  1.0 -0.4510407643
C  C227  1  0.99720000  0.80200000  0.25890000  1.0 -0.2180093551
C  C228  1  0.62430000  0.88990000  0.31530000  1.0 -0.4607531341
C  C229  1  0.98770000  0.68090000  0.25530000  1.0 -0.181384487
C  C230  1  0.01650000  0.71710000  0.22600000  1.0 0.0083316793
C  C231  1  0.55570000  0.04750000  0.95230000  1.0 -0.1518808562
C  C232  1  0.54440000  0.20520000  0.59750000  1.0 -0.4672373339
C  C233  1  0.52540000  0.16260000  0.62770000  1.0 0.2819421826
C  C234  1  0.57870000  0.11270000  0.65800000  1.0 -0.4607531341
C  C235  1  0.48220000  0.13620000  0.60340000  1.0 -0.4607531341
C  C236  1  0.40660000  0.86220000  0.40630000  1.0 0.0718773542
C  C237  1  0.37400000  0.78580000  0.75370000  1.0 -0.4510407643
C  C238  1  0.05700000  0.25940000  0.42800000  1.0 -0.0512508994
C  C239  1  0.11370000  0.33410000  0.92760000  1.0 -0.0603970648
C  C240  1  0.49370000  0.25210000  0.44510000  1.0 -0.6016166272
C  C241  1  0.15050000  0.30350000  0.75540000  1.0 0.4566343962
C  C242  1  0.08290000  0.21050000  0.25630000  1.0 0.5013080575
C  C243  1  0.15690000  0.85210000  0.81130000  1.0 0.0718773542
C  C244  1  0.21440000  0.85140000  0.80910000  1.0 -0.190994797
C  C245  1  0.23680000  0.89840000  0.81590000  1.0 0.1297687366
C  C246  1  0.20190000  0.94590000  0.82480000  1.0 -0.1687421643
C  C247  1  0.14440000  0.94660000  0.82690000  1.0 0.050689109
C  C248  1  0.41890000  0.88590000  0.82030000  1.0 0.2193151204
C  C249  1  0.38930000  0.92630000  0.83770000  1.0 -0.0101583614
C  C250  1  0.33150000  0.92790000  0.83950000  1.0 -0.2095862875
C  C251  1  0.30330000  0.88930000  0.82390000  1.0 0.0596690026
C  C252  1  0.33300000  0.84880000  0.80650000  1.0 -0.2004322173
C  C253  1  0.39070000  0.84710000  0.80470000  1.0 -0.0193658167
C  C254  1  0.54160000  0.14900000  0.32180000  1.0 -0.181384487
C  C255  1  0.49580000  0.12440000  0.32840000  1.0 0.120164399
C  C256  1  0.44620000  0.15840000  0.33590000  1.0 -0.190994797
C  C257  1  0.44240000  0.21680000  0.33680000  1.0 0.0596690026
C  C258  1  0.53770000  0.20750000  0.32270000  1.0 0.0596690026
C  C259  1  0.01750000  0.28350000  0.70750000  1.0 0.0292043237
C  C260  1  0.96060000  0.27980000  0.70820000  1.0 -0.190994797
C  C261  1  0.94190000  0.23210000  0.69890000  1.0 0.120164399
C  C262  1  0.98000000  0.18820000  0.68880000  1.0 -0.190994797
C  C263  1  0.03690000  0.19190000  0.68810000  1.0 0.050689109
C  C264  1  0.50850000  0.94630000  0.32590000  1.0 0.1892041279
C  C265  1  0.53770000  0.97730000  0.30170000  1.0 -0.0101583614
C  C266  1  0.53200000  0.03740000  0.29850000  1.0 -0.2095862875
C  C267  1  0.49720000  0.06640000  0.31960000  1.0 0.0596690026
C  C268  1  0.46810000  0.03550000  0.34380000  1.0 -0.2004322173
C  C269  1  0.47370000  0.97550000  0.34700000  1.0 -0.0300939399
C  C270  1  0.90640000  0.92940000  0.85260000  1.0 0.050689109
C  C271  1  0.85250000  0.92290000  0.85890000  1.0 -0.181384487
C  C272  1  0.83590000  0.87170000  0.85520000  1.0 0.120164399
C  C273  1  0.87330000  0.82710000  0.84520000  1.0 -0.181384487
C  C274  1  0.92720000  0.83360000  0.83890000  1.0 0.0596690026
C  C275  1  0.08810000  0.83070000  0.22760000  1.0 -0.0193658167
C  C276  1  0.67850000  0.89770000  0.86430000  1.0 -0.0372517679
C  C277  1  0.65680000  0.85940000  0.84380000  1.0 0.183846557
C  C278  1  0.69280000  0.82480000  0.82620000  1.0 -0.0030878557
C  C279  1  0.75070000  0.82850000  0.82910000  1.0 -0.2180093551
C  C280  1  0.77250000  0.86670000  0.84960000  1.0 0.0596690026
C  C281  1  0.73640000  0.90120000  0.86720000  1.0 -0.181384487
C  C282  1  0.75710000  0.28690000  0.73240000  1.0 -0.0512508994
C  C283  1  0.18260000  0.57720000  0.15710000  1.0 -0.0300939399
C  C284  1  0.18470000  0.51710000  0.16480000  1.0 -0.190994797
C  C285  1  0.15460000  0.49280000  0.19170000  1.0 0.050689109
C  C286  1  0.12260000  0.52860000  0.21080000  1.0 -0.1687421643
C  C287  1  0.12050000  0.58870000  0.20310000  1.0 -0.0687328738
C  C288  1  0.15060000  0.61300000  0.17630000  1.0 0.230927871
C  C289  1  0.10850000  0.03930000  0.19990000  1.0 -0.190994797
C  C290  1  0.15370000  0.01030000  0.18580000  1.0 0.1297687366
C  C291  1  0.19460000  0.03900000  0.17450000  1.0 -0.181384487
C  C292  1  0.19040000  0.09680000  0.17720000  1.0 0.050689109
C  C293  1  0.10420000  0.09720000  0.20260000  1.0 0.050689109
C  C294  1  0.98640000  0.32280000  0.49570000  1.0 -0.1518808562
C  C295  1  0.01550000  0.32430000  0.53560000  1.0 -0.1084681289
C  C296  1  0.05340000  0.27200000  0.56560000  1.0 -0.0300939399
C  C297  1  0.06230000  0.21790000  0.55570000  1.0 -0.0989221247
C  C298  1  0.03330000  0.21650000  0.51580000  1.0 -0.1171635525
C  C299  1  0.99540000  0.26880000  0.48580000  1.0 0.0809840226
C  C300  1  0.43830000  0.83410000  0.74790000  1.0 -0.4607531341
C  C301  1  0.89950000  0.27950000  0.43390000  1.0 -0.2004322173
C  C302  1  0.96040000  0.27360000  0.44300000  1.0 0.0083316793
C  C303  1  0.99090000  0.26130000  0.41420000  1.0 -0.0101583614
C  C304  1  0.96020000  0.25500000  0.37630000  1.0 0.0196443772
C  C305  1  0.89920000  0.26100000  0.36720000  1.0 -0.2004322173
C  C306  1  0.86880000  0.27320000  0.39600000  1.0 0.0809840226
C  C307  1  0.76790000  0.30230000  0.34480000  1.0 -0.1518808562
C  C308  1  0.80270000  0.27370000  0.38630000  1.0 0.0809840226
C  C309  1  0.77590000  0.25510000  0.41710000  1.0 -0.1576648801
C  C310  1  0.71420000  0.26500000  0.40640000  1.0 -0.0989221247
C  C311  1  0.67930000  0.29350000  0.36490000  1.0 -0.0300939399
C  C312  1  0.70620000  0.31220000  0.33410000  1.0 -0.1084681289
C  C313  1  0.94380000  0.72020000  0.27190000  1.0 -0.1687421643
C  C314  1  0.10840000  0.32100000  0.06660000  1.0 -0.0512508994
C  C315  1  0.05520000  0.34960000  0.03440000  1.0 -0.0989221247
C  C316  1  0.05620000  0.38420000  0.99590000  1.0 -0.1687421643
C  C317  1  0.11020000  0.39020000  0.98960000  1.0 0.0718773542
C  C318  1  0.16330000  0.36170000  0.02190000  1.0 -0.1299814867
C  C319  1  0.16250000  0.32710000  0.06040000  1.0 -0.0915494349
C  C320  1  0.41940000  0.80260000  0.78420000  1.0 0.2728921412
C  C321  1  0.64480000  0.93860000  0.88090000  1.0 -0.0193658167
C  C322  1  0.67420000  0.32400000  0.76060000  1.0 0.0809840226
C  C323  1  0.58450000  0.94790000  0.28330000  1.0 0.2728921412
C  C324  1  0.10870000  0.48390000  0.94070000  1.0 -0.2004322173
C  C325  1  0.11770000  0.42230000  0.94960000  1.0 0.0083316793
C  C326  1  0.12910000  0.39350000  0.91990000  1.0 0.0083316793
C  C327  1  0.13160000  0.42620000  0.88120000  1.0 0.0292043237
C  C328  1  0.12260000  0.48760000  0.87230000  1.0 -0.2004322173
C  C329  1  0.11110000  0.51650000  0.90200000  1.0 0.0596690026
C  C330  1  0.12440000  0.91500000  0.20550000  1.0 -0.181384487
C  C331  1  0.12530000  0.85770000  0.20270000  1.0 -0.0300939399
C  C332  1  0.14950000  0.83610000  0.17370000  1.0 0.1892041279
C  C333  1  0.17290000  0.87170000  0.14750000  1.0 -0.0101583614
C  C334  1  0.17210000  0.92890000  0.15020000  1.0 -0.2004322173
C  C335  1  0.14780000  0.95060000  0.17920000  1.0 0.0596690026
C  C336  1  0.97560000  0.76200000  0.28990000  1.0 -0.1518808562
C  C337  1  0.07480000  0.61640000  0.21930000  1.0 -0.0193658167
C  C338  1  0.62390000  0.98610000  0.27050000  1.0 -0.4510407643
C  C339  1  0.70270000  0.37010000  0.77390000  1.0 -0.2004322173
C  C340  1  0.32020000  0.82140000  0.43530000  1.0 -0.1576648801
C  C341  1  0.35850000  0.78270000  0.41620000  1.0 -0.2180093551
C  C342  1  0.57520000  0.38540000  0.76480000  1.0 -0.2095862875
C  C343  1  0.84320000  0.25500000  0.71650000  1.0 -0.190994797
C  C344  1  0.78290000  0.25750000  0.70780000  1.0 -0.0300939399
C  C345  1  0.75750000  0.23370000  0.67690000  1.0 0.2072524814
C  C346  1  0.79250000  0.20730000  0.65470000  1.0 -0.0193658167
C  C347  1  0.85280000  0.20480000  0.66350000  1.0 -0.2004322173
C  C348  1  0.87820000  0.22860000  0.69430000  1.0 0.0596690026
C  C349  1  0.25190000  0.79730000  0.13470000  1.0 -0.4672373339
C  C350  1  0.19650000  0.85030000  0.11380000  1.0 0.2915531981
C  C351  1  0.15070000  0.84030000  0.07950000  1.0 -0.4510407643
C  C352  1  0.04240000  0.75460000  0.25000000  1.0 0.0809840226
C  C353  1  0.80800000  0.15400000  0.60250000  1.0 -0.4607531341
C  C354  1  0.74110000  0.12950000  0.64480000  1.0 -0.4801374277
C  C355  1  0.76250000  0.17930000  0.62320000  1.0 0.2915531981
C  C356  1  0.60640000  0.42980000  0.77700000  1.0 -0.1576648801
C  C357  1  0.43850000  0.73110000  0.37600000  1.0 -0.0512508994
C  C358  1  0.21030000  0.89750000  0.08250000  1.0 -0.4510407643
C  C359  1  0.23860000  0.55700000  0.10590000  1.0 -0.4510407643
C  C360  1  0.10170000  0.58150000  0.89310000  1.0 0.0809840226
C  C361  1  0.12600000  0.60560000  0.92420000  1.0 -0.1576648801
C  C362  1  0.11720000  0.66700000  0.91510000  1.0 -0.0915494349
C  C363  1  0.08420000  0.70440000  0.87500000  1.0 -0.0372517679
C  C364  1  0.06000000  0.68040000  0.84400000  1.0 -0.0989221247
C  C365  1  0.06870000  0.61890000  0.85300000  1.0 -0.1518808562
C  C366  1  0.67080000  0.39620000  0.80230000  1.0 -0.1576648801
C  C367  1  0.55060000  0.93480000  0.24500000  1.0 -0.4672373339
C  C368  1  0.71140000  0.22760000  0.58970000  1.0 -0.4607531341
C  C369  1  0.65080000  0.73920000  0.83520000  1.0 -0.4510407643
C  C370  1  0.62100000  0.73640000  0.30670000  1.0 -0.4607531341
C  C371  1  0.70700000  0.75400000  0.78340000  1.0 -0.4510407643
C  C372  1  0.37850000  0.82250000  0.38430000  1.0 0.0596690026
C  C373  1  0.57110000  0.71790000  0.27950000  1.0 0.2915531981
C  C374  1  0.53550000  0.77210000  0.24270000  1.0 -0.4801374277
C  C375  1  0.60480000  0.67060000  0.26200000  1.0 -0.4607531341
C  C376  1  0.60790000  0.82130000  0.76930000  1.0 -0.4672373339
C  C377  1  0.66490000  0.78550000  0.80380000  1.0 0.2728921412
C  C378  1  0.06710000  0.77070000  0.86300000  1.0 0.5116940676
C  C379  1  0.61280000  0.30360000  0.34980000  1.0 0.5338780223
C  C380  1  0.20670000  0.60470000  0.12220000  1.0 0.2966686426
C  C381  1  0.25040000  0.63680000  0.13850000  1.0 -0.4801374277
C  C382  1  0.44240000  0.30560000  0.41780000  1.0 0.517790669
C  C383  1  0.53010000  0.23250000  0.67280000  1.0 0.2072524814
C  C384  1  0.50680000  0.26380000  0.69800000  1.0 -0.0687328738
C  C385  1  0.45140000  0.26220000  0.70370000  1.0 -0.1687421643
C  C386  1  0.41940000  0.22900000  0.68420000  1.0 0.050689109
C  C387  1  0.44270000  0.19770000  0.65900000  1.0 -0.2004322173
C  C388  1  0.49820000  0.19940000  0.65330000  1.0 -0.0300939399
C  C389  1  0.33060000  0.19260000  0.67370000  1.0 -0.181384487
C  C390  1  0.27220000  0.19600000  0.67450000  1.0 0.0718773542
C  C391  1  0.26320000  0.28940000  0.69140000  1.0 0.0292043237
C  C392  1  0.32160000  0.28600000  0.69060000  1.0 -0.181384487
C  C393  1  0.35530000  0.23770000  0.68180000  1.0 0.120164399
C  C394  1  0.53100000  0.30220000  0.71820000  1.0 0.0596690026
C  C395  1  0.50160000  0.54480000  0.33550000  1.0 0.120164399
C  C396  1  0.47200000  0.51780000  0.36170000  1.0 -0.2004322173
C  C397  1  0.47130000  0.45910000  0.36500000  1.0 0.0809840226
C  C398  1  0.52960000  0.45420000  0.31610000  1.0 0.050689109
C  C399  1  0.53030000  0.51290000  0.31270000  1.0 -0.181384487
C  C400  1  0.10610000  0.40950000  0.20980000  1.0 -0.181384487
C  C401  1  0.15370000  0.42910000  0.20120000  1.0 0.120164399
C  C402  1  0.20210000  0.38950000  0.19650000  1.0 -0.190994797
C  C403  1  0.20310000  0.33010000  0.20060000  1.0 0.0596690026
C  C404  1  0.10700000  0.35020000  0.21390000  1.0 0.050689109
C  C405  1  0.35400000  0.37360000  0.41630000  1.0 -0.3490584604
C  C406  1  0.40790000  0.30090000  0.48450000  1.0 -0.3490584604
C  C407  1  0.10000000  0.42200000  0.80340000  1.0 -0.1518808562
C  C408  1  0.13430000  0.39810000  0.84540000  1.0 0.0809840226
C  C409  1  0.17650000  0.34230000  0.85870000  1.0 -0.1518808562
C  C410  1  0.18440000  0.31020000  0.83000000  1.0 -0.0989221247
C  C411  1  0.15000000  0.33400000  0.78810000  1.0 -0.0372517679
C  C412  1  0.10790000  0.38990000  0.77470000  1.0 -0.0989221247
C  C413  1  0.99160000  0.23320000  0.34750000  1.0 0.0809840226
C  C414  1  0.96460000  0.26340000  0.30500000  1.0 -0.1518808562
C  C415  1  0.99420000  0.25260000  0.27540000  1.0 -0.0915494349
C  C416  1  0.05080000  0.21160000  0.28850000  1.0 -0.0300939399
C  C417  1  0.07780000  0.18140000  0.33100000  1.0 -0.0989221247
C  C418  1  0.04820000  0.19220000  0.36050000  1.0 -0.1518808562
C  C419  1  0.46970000  0.64090000  0.35370000  1.0 -0.1687421643
C  C420  1  0.47070000  0.69970000  0.34970000  1.0 -0.0512508994
C  C421  1  0.50610000  0.72350000  0.32720000  1.0 0.230927871
C  C422  1  0.54030000  0.68850000  0.30880000  1.0 -0.0512508994
C  C423  1  0.53930000  0.62970000  0.31280000  1.0 -0.181384487
C  C424  1  0.50390000  0.60590000  0.33520000  1.0 0.050689109
N  N1  1  0.67830000  0.06410000  0.78640000  1.0 -0.4861358465
N  N2  1  0.30910000  0.58330000  0.28190000  1.0 -0.4419822754
N  N3  1  0.94580000  0.58960000  0.11430000  1.0 -0.4210316472
N  N4  1  0.89160000  0.43000000  0.62740000  1.0 -0.4082067223
N  N5  1  0.89960000  0.12200000  0.17980000  1.0 -0.2991459729
N  N6  1  0.24150000  0.48810000  0.66980000  1.0 -0.3062292771
N  N7  1  0.23960000  0.05560000  0.30260000  1.0 -0.3062292771
N  N8  1  0.88470000  0.94370000  0.15740000  1.0 -0.2703032331
N  N9  1  0.77630000  0.07650000  0.77480000  1.0 -0.4801374277
N  N10  1  0.96830000  0.46650000  0.14180000  1.0 -0.5180799824
N  N11  1  0.12590000  0.14510000  0.80880000  1.0 -0.2991459729
N  N12  1  0.79340000  0.42260000  0.63480000  1.0 -0.4510407643
N  N13  1  0.29970000  0.69570000  0.26870000  1.0 -0.4801374277
N  N14  1  0.32300000  0.40280000  0.55900000  1.0 0.0083316793
N  N15  1  0.40240000  0.39860000  0.75480000  1.0 0.669029781
N  N16  1  0.98000000  0.97080000  0.23650000  1.0 0.6426716584
N  N17  1  0.24430000  0.23850000  0.31660000  1.0 -0.2991459729
N  N18  1  0.42720000  0.50000000  0.65780000  1.0 -0.3292973302
N  N19  1  0.31050000  0.15550000  0.79070000  1.0 -0.3292973302
N  N20  1  0.06410000  0.67830000  0.21360000  1.0 -0.4861358465
N  N21  1  0.58330000  0.30910000  0.71810000  1.0 -0.4419822754
N  N22  1  0.58960000  0.94580000  0.88570000  1.0 -0.4210316472
N  N23  1  0.43000000  0.89160000  0.37260000  1.0 -0.4082067223
N  N24  1  0.12200000  0.89960000  0.82020000  1.0 -0.2991459729
N  N25  1  0.48810000  0.24150000  0.33020000  1.0 -0.3062292771
N  N26  1  0.05560000  0.23960000  0.69740000  1.0 -0.3062292771
N  N27  1  0.94370000  0.88470000  0.84260000  1.0 -0.2703032331
N  N28  1  0.07650000  0.77630000  0.22520000  1.0 -0.4801374277
N  N29  1  0.46650000  0.96830000  0.85820000  1.0 -0.5180799824
N  N30  1  0.14510000  0.12590000  0.19120000  1.0 -0.2991459729
N  N31  1  0.42260000  0.79340000  0.36520000  1.0 -0.4510407643
N  N32  1  0.69570000  0.29970000  0.73130000  1.0 -0.4801374277
N  N33  1  0.40280000  0.32300000  0.44100000  1.0 0.0083316793
N  N34  1  0.39860000  0.40240000  0.24520000  1.0 0.669029781
N  N35  1  0.97080000  0.98000000  0.76350000  1.0 0.6426716584
N  N36  1  0.23850000  0.24430000  0.68340000  1.0 -0.2991459729
N  N37  1  0.50000000  0.42720000  0.34220000  1.0 -0.3292973302
N  N38  1  0.15550000  0.31050000  0.20930000  1.0 -0.3292973302
O  O1  1  0.89450000  0.40090000  0.72540000  1.0 -0.2991459729
O  O2  1  0.76940000  0.03100000  0.87210000  1.0 -0.2703032331
O  O3  1  0.21910000  0.66450000  0.27260000  1.0 -0.0030878557
O  O4  1  0.98740000  0.51920000  0.21790000  1.0 -0.279966599
O  O5  1  0.88620000  0.47480000  0.18140000  1.0 -0.5180799824
O  O6  1  0.88820000  0.50980000  0.67500000  1.0 -0.5607061745
O  O7  1  0.77960000  0.15100000  0.83260000  1.0 -0.5859479965
O  O8  1  0.23080000  0.70120000  0.32650000  1.0 -0.5278439285
O  O9  1  0.21860000  0.12540000  0.36600000  1.0 -0.4210316472
O  O10  1  0.77820000  0.50320000  0.68210000  1.0 -0.4672373339
O  O11  1  0.31110000  0.08290000  0.37350000  1.0 -0.5004404844
O  O12  1  0.28130000  0.06570000  0.87510000  1.0 -0.6271001758
O  O13  1  0.22980000  0.58560000  0.32710000  1.0 -0.5180799824
O  O14  1  0.67040000  0.14180000  0.83380000  1.0 -0.5004404844
O  O15  1  0.85760000  0.59780000  0.16110000  1.0 -0.5833144249
O  O16  1  0.25130000  0.17110000  0.86730000  1.0 -0.5105957301
O  O17  1  0.24100000  0.12100000  0.54900000  1.0 -0.4607531341
O  O18  1  0.28590000  0.16470000  0.04280000  1.0 -0.3846821548
O  O19  1  0.32930000  0.13350000  0.28110000  1.0 -0.4082067223
O  O20  1  0.24840000  0.18180000  0.23220000  1.0 -0.4801374277
O  O21  1  0.23400000  0.05760000  0.78220000  1.0 -0.4607531341
O  O22  1  0.18360000  0.13880000  0.72980000  1.0 -0.5105957301
O  O23  1  0.79140000  0.07800000  0.10990000  1.0 -0.4082067223
O  O24  1  0.32420000  0.57840000  0.68680000  1.0 -0.4672373339
O  O25  1  0.79810000  0.04970000  0.17500000  1.0 -0.4510407643
O  O26  1  0.28770000  0.58830000  0.62140000  1.0 -0.4861358465
O  O27  1  0.99480000  0.98840000  0.20440000  1.0 -0.3952961029
O  O28  1  0.39090000  0.45310000  0.75690000  1.0 -0.4257060649
O  O29  1  0.92350000  0.97910000  0.23220000  1.0 -0.3629059555
O  O30  1  0.33170000  0.43370000  0.61990000  1.0 -0.5368961157
O  O31  1  0.38680000  0.39160000  0.71960000  1.0 -0.4210316472
O  O32  1  0.43110000  0.35750000  0.78680000  1.0 -0.3490584604
O  O33  1  0.01600000  0.94180000  0.27090000  1.0 -0.3292973302
O  O34  1  0.85960000  0.41360000  0.70400000  1.0 -0.0687328738
O  O35  1  0.18410000  0.68610000  0.24560000  1.0 -0.2902288498
O  O36  1  0.74800000  0.06240000  0.84680000  1.0 -0.0300939399
O  O37  1  0.97770000  0.53170000  0.19100000  1.0 -0.0793884458
O  O38  1  0.40090000  0.89450000  0.27460000  1.0 -0.2991459729
O  O39  1  0.03100000  0.76940000  0.12790000  1.0 -0.2703032331
O  O40  1  0.66450000  0.21910000  0.72740000  1.0 -0.0030878557
O  O41  1  0.51920000  0.98740000  0.78210000  1.0 -0.279966599
O  O42  1  0.47480000  0.88620000  0.81860000  1.0 -0.5180799824
O  O43  1  0.50980000  0.88820000  0.32500000  1.0 -0.5607061745
O  O44  1  0.15100000  0.77960000  0.16740000  1.0 -0.5859479965
O  O45  1  0.70120000  0.23080000  0.67350000  1.0 -0.5278439285
O  O46  1  0.12540000  0.21860000  0.63400000  1.0 -0.4210316472
O  O47  1  0.50320000  0.77820000  0.31790000  1.0 -0.4672373339
O  O48  1  0.08290000  0.31110000  0.62650000  1.0 -0.5004404844
O  O49  1  0.06570000  0.28130000  0.12490000  1.0 -0.6271001758
O  O50  1  0.58560000  0.22980000  0.67290000  1.0 -0.5180799824
O  O51  1  0.14180000  0.67040000  0.16620000  1.0 -0.5004404844
O  O52  1  0.59780000  0.85760000  0.83890000  1.0 -0.5859479965
O  O53  1  0.17110000  0.25130000  0.13270000  1.0 -0.5105957301
O  O54  1  0.12100000  0.24100000  0.45100000  1.0 -0.4607531341
O  O55  1  0.16470000  0.28590000  0.95720000  1.0 -0.3862030269
O  O56  1  0.13350000  0.32930000  0.71890000  1.0 -0.4082067223
O  O57  1  0.18180000  0.24840000  0.76780000  1.0 -0.4801374277
O  O58  1  0.05760000  0.23400000  0.21780000  1.0 -0.4607531341
O  O59  1  0.13880000  0.18360000  0.27020000  1.0 -0.5105957301
O  O60  1  0.07800000  0.79140000  0.89010000  1.0 -0.4082067223
O  O61  1  0.57840000  0.32420000  0.31320000  1.0 -0.4672373339
O  O62  1  0.04970000  0.79810000  0.82500000  1.0 -0.4510407643
O  O63  1  0.58830000  0.28770000  0.37860000  1.0 -0.4801374277
O  O64  1  0.98840000  0.99480000  0.79560000  1.0 -0.3952961029
O  O65  1  0.45310000  0.39090000  0.24310000  1.0 -0.4210316472
O  O66  1  0.97910000  0.92350000  0.76780000  1.0 -0.3629059555
O  O67  1  0.43370000  0.33170000  0.38010000  1.0 -0.5368961157
O  O68  1  0.39160000  0.38680000  0.28040000  1.0 -0.4210316472
O  O69  1  0.35750000  0.43110000  0.21320000  1.0 -0.3490584604
O  O70  1  0.94180000  0.01600000  0.72910000  1.0 -0.3292973302
O  O71  1  0.41360000  0.85960000  0.29600000  1.0 -0.0687328738
O  O72  1  0.68610000  0.18410000  0.75440000  1.0 -0.2902288498
O  O73  1  0.06240000  0.74800000  0.15320000  1.0 -0.0300939399
O  O74  1  0.53170000  0.97770000  0.80900000  1.0 -0.0793884458
