# DDEC6 charges by PACMAN v1.1 (https://github.com/mtap-research/PACMAN-charge/)
data_IDUNED_ASR_pacman
_symmetry_space_group_name_H-M   'P 1'
_cell_length_a   11.45560000
_cell_length_b   21.22490000
_cell_length_c   29.47600000
_cell_angle_alpha   90.00000000
_cell_angle_beta   90.00000000
_cell_angle_gamma   90.00000000
_symmetry_Int_Tables_number   1
_chemical_formula_structural   Na3CdNi2H78C62N5O17
_chemical_formula_sum   'Na12 Cd4 Ni8 H312 C248 N20 O68'
_cell_volume   7166.91149583
_cell_formula_units_Z   4
loop_
 _symmetry_equiv_pos_site_id
 _symmetry_equiv_pos_as_xyz
  1  'x, y, z'
loop_
 _atom_site_type_symbol
 _atom_site_label
 _atom_site_symmetry_multiplicity
 _atom_site_fract_x
 _atom_site_fract_y
 _atom_site_fract_z
 _atom_site_occupancy
 _atom_site_charge
Na  Na1  1  0.55960000  0.57203000  0.02119000  1.0 0.8464175025
Na  Na2  1  0.94040000  0.57203000  0.97881000  1.0 0.8464175025
Na  Na3  1  0.94040000  0.92797000  0.52119000  1.0 0.8464175025
Na  Na4  1  0.55960000  0.92797000  0.47881000  1.0 0.8464175025
Na  Na5  1  0.44040000  0.42797000  0.97881000  1.0 0.8464175025
Na  Na6  1  0.05960000  0.42797000  0.02119000  1.0 0.8464175025
Na  Na7  1  0.05960000  0.07203000  0.47881000  1.0 0.8464175025
Na  Na8  1  0.44040000  0.07203000  0.52119000  1.0 0.8464175025
Na  Na9  1  0.34970000  0.25000000  0.25000000  1.0 0.7399058947
Na  Na10  1  0.15030000  0.25000000  0.75000000  1.0 0.7399058947
Na  Na11  1  0.65030000  0.75000000  0.75000000  1.0 0.7399058947
Na  Na12  1  0.84970000  0.75000000  0.25000000  1.0 0.7399058947
Cd  Cd1  1  0.75000000  0.06583000  0.50000000  1.0 0.9220312992
Cd  Cd2  1  0.75000000  0.43417000  0.00000000  1.0 0.9220312992
Cd  Cd3  1  0.25000000  0.93417000  0.50000000  1.0 0.9220312992
Cd  Cd4  1  0.25000000  0.56583000  0.00000000  1.0 0.9220312992
Ni  Ni1  1  0.56899000  0.34676000  0.25632000  1.0 0.3539333651
Ni  Ni2  1  0.93101000  0.34676000  0.74368000  1.0 0.3539333651
Ni  Ni3  1  0.93101000  0.15324000  0.75632000  1.0 0.3539333651
Ni  Ni4  1  0.56899000  0.15324000  0.24368000  1.0 0.3539333651
Ni  Ni5  1  0.43101000  0.65324000  0.74368000  1.0 0.3539333651
Ni  Ni6  1  0.06899000  0.65324000  0.25632000  1.0 0.3539333651
Ni  Ni7  1  0.06899000  0.84676000  0.24368000  1.0 0.3539333651
Ni  Ni8  1  0.43101000  0.84676000  0.75632000  1.0 0.3539333651
H  H1  1  0.10760000  0.21360000  0.23580000  1.0 0.1632831776
H  H2  1  0.16980000  0.24460000  0.19430000  1.0 0.1210518799
H  H3  1  0.78410000  0.43110000  0.27960000  1.0 0.0791856144
H  H4  1  0.94560000  0.34550000  0.30680000  1.0 0.0791856144
H  H5  1  0.94480000  0.32220000  0.25540000  1.0 0.0496092276
H  H6  1  0.07900000  0.43080000  0.26900000  1.0 0.06121893
H  H7  1  0.95540000  0.46540000  0.26700000  1.0 0.0699941754
H  H8  1  0.98810000  0.36290000  0.19760000  1.0 0.06121893
H  H9  1  0.04370000  0.42870000  0.18370000  1.0 0.0791856144
H  H10  1  0.84880000  0.47450000  0.21330000  1.0 0.0699941754
H  H11  1  0.84300000  0.44440000  0.16410000  1.0 0.087739637
H  H12  1  0.80560000  0.33460000  0.20580000  1.0 0.0791856144
H  H13  1  0.66440000  0.43480000  0.15690000  1.0 0.0994306104
H  H14  1  0.23050000  0.36710000  0.19060000  1.0 0.1121635745
H  H15  1  0.18260000  0.41860000  0.12500000  1.0 0.1121635745
H  H16  1  0.51790000  0.46690000  0.10620000  1.0 0.1259836769
H  H17  1  0.80900000  0.29750000  0.32880000  1.0 0.087739637
H  H18  1  0.36490000  0.25170000  0.36140000  1.0 0.1210518799
H  H19  1  0.42810000  0.19000000  0.42000000  1.0 0.1210518799
H  H20  1  0.76020000  0.22380000  0.38670000  1.0 0.1259836769
H  H21  1  0.21950000  0.21280000  0.17950000  1.0 0.1836116845
H  H22  1  0.13500000  0.26760000  0.19000000  1.0 0.2352486709
H  H23  1  0.83610000  0.32090000  0.23690000  1.0 0.06121893
H  H24  1  0.94650000  0.35130000  0.30740000  1.0 0.087739637
H  H25  1  0.89980000  0.42110000  0.30180000  1.0 0.0791856144
H  H26  1  0.03420000  0.35550000  0.23220000  1.0 0.0496092276
H  H27  1  0.08640000  0.41090000  0.26070000  1.0 0.0699941754
H  H28  1  0.97420000  0.47710000  0.22900000  1.0 0.0699941754
H  H29  1  0.04310000  0.43890000  0.19240000  1.0 0.0994306104
H  H30  1  0.86500000  0.38310000  0.16830000  1.0 0.0699941754
H  H31  1  0.82740000  0.45470000  0.17140000  1.0 0.087739637
H  H32  1  0.76900000  0.44090000  0.24810000  1.0 0.0699941754
H  H33  1  0.68330000  0.68680000  0.04650000  1.0 0.087739637
H  H34  1  0.83210000  0.70030000  0.94990000  1.0 0.0699941754
H  H35  1  0.90880000  0.75330000  0.97020000  1.0 0.0791856144
H  H36  1  0.80090000  0.76940000  0.94000000  1.0 0.06121893
H  H37  1  0.69410000  0.79360000  0.05280000  1.0 0.0496092276
H  H38  1  0.71130000  0.82820000  0.00650000  1.0 0.0496092276
H  H39  1  0.81920000  0.81220000  0.03680000  1.0 0.06121893
H  H40  1  0.39240000  0.21360000  0.76420000  1.0 0.1632831776
H  H41  1  0.33020000  0.24460000  0.80570000  1.0 0.1210518799
H  H42  1  0.71590000  0.43110000  0.72040000  1.0 0.0791856144
H  H43  1  0.55440000  0.34550000  0.69320000  1.0 0.0791856144
H  H44  1  0.55520000  0.32220000  0.74460000  1.0 0.0496092276
H  H45  1  0.42100000  0.43080000  0.73100000  1.0 0.06121893
H  H46  1  0.54460000  0.46540000  0.73300000  1.0 0.0699941754
H  H47  1  0.51190000  0.36290000  0.80240000  1.0 0.06121893
H  H48  1  0.45630000  0.42870000  0.81630000  1.0 0.0791856144
H  H49  1  0.65120000  0.47450000  0.78670000  1.0 0.0699941754
H  H50  1  0.65700000  0.44440000  0.83590000  1.0 0.087739637
H  H51  1  0.69440000  0.33460000  0.79420000  1.0 0.0791856144
H  H52  1  0.83560000  0.43480000  0.84310000  1.0 0.0994306104
H  H53  1  0.26950000  0.36710000  0.80940000  1.0 0.1121635745
H  H54  1  0.31740000  0.41860000  0.87500000  1.0 0.1121635745
H  H55  1  0.98210000  0.46690000  0.89380000  1.0 0.1259836769
H  H56  1  0.69100000  0.29750000  0.67120000  1.0 0.087739637
H  H57  1  0.13510000  0.25170000  0.63860000  1.0 0.1210518799
H  H58  1  0.07190000  0.19000000  0.58000000  1.0 0.1210518799
H  H59  1  0.73980000  0.22380000  0.61330000  1.0 0.1259836769
H  H60  1  0.28050000  0.21280000  0.82050000  1.0 0.1836116845
H  H61  1  0.36500000  0.26760000  0.81000000  1.0 0.2352486709
H  H62  1  0.66390000  0.32090000  0.76310000  1.0 0.06121893
H  H63  1  0.55350000  0.35130000  0.69260000  1.0 0.087739637
H  H64  1  0.60020000  0.42110000  0.69820000  1.0 0.0791856144
H  H65  1  0.46580000  0.35550000  0.76780000  1.0 0.0496092276
H  H66  1  0.41360000  0.41090000  0.73930000  1.0 0.0699941754
H  H67  1  0.52580000  0.47710000  0.77100000  1.0 0.0699941754
H  H68  1  0.45690000  0.43890000  0.80760000  1.0 0.0994306104
H  H69  1  0.63500000  0.38310000  0.83170000  1.0 0.0699941754
H  H70  1  0.67260000  0.45470000  0.82860000  1.0 0.087739637
H  H71  1  0.73100000  0.44090000  0.75190000  1.0 0.0699941754
H  H72  1  0.81670000  0.68680000  0.95350000  1.0 0.087739637
H  H73  1  0.66790000  0.70030000  0.05010000  1.0 0.0699941754
H  H74  1  0.59120000  0.75330000  0.02980000  1.0 0.0791856144
H  H75  1  0.69910000  0.76940000  0.06000000  1.0 0.0496092276
H  H76  1  0.80590000  0.79360000  0.94720000  1.0 0.0496092276
H  H77  1  0.78870000  0.82820000  0.99350000  1.0 0.0496092276
H  H78  1  0.68080000  0.81220000  0.96320000  1.0 0.06121893
H  H79  1  0.39240000  0.28640000  0.73580000  1.0 0.1632831776
H  H80  1  0.33020000  0.25540000  0.69430000  1.0 0.1210518799
H  H81  1  0.71590000  0.06890000  0.77960000  1.0 0.0791856144
H  H82  1  0.55440000  0.15450000  0.80680000  1.0 0.0791856144
H  H83  1  0.55520000  0.17780000  0.75540000  1.0 0.0496092276
H  H84  1  0.42100000  0.06920000  0.76900000  1.0 0.06121893
H  H85  1  0.54460000  0.03460000  0.76700000  1.0 0.0699941754
H  H86  1  0.51190000  0.13710000  0.69760000  1.0 0.06121893
H  H87  1  0.45630000  0.07130000  0.68370000  1.0 0.0791856144
H  H88  1  0.65120000  0.02550000  0.71330000  1.0 0.0699941754
H  H89  1  0.65700000  0.05560000  0.66410000  1.0 0.087739637
H  H90  1  0.69440000  0.16540000  0.70580000  1.0 0.0791856144
H  H91  1  0.83560000  0.06520000  0.65690000  1.0 0.0994306104
H  H92  1  0.26950000  0.13290000  0.69060000  1.0 0.1121635745
H  H93  1  0.31740000  0.08140000  0.62500000  1.0 0.1121635745
H  H94  1  0.98210000  0.03310000  0.60620000  1.0 0.1259836769
H  H95  1  0.69100000  0.20250000  0.82880000  1.0 0.087739637
H  H96  1  0.13510000  0.24830000  0.86140000  1.0 0.1210518799
H  H97  1  0.07190000  0.31000000  0.92000000  1.0 0.1210518799
H  H98  1  0.73980000  0.27620000  0.88670000  1.0 0.1259836769
H  H99  1  0.28050000  0.28720000  0.67950000  1.0 0.1836116845
H  H100  1  0.36500000  0.23240000  0.69000000  1.0 0.2352486709
H  H101  1  0.66390000  0.17910000  0.73690000  1.0 0.06121893
H  H102  1  0.55350000  0.14870000  0.80740000  1.0 0.087739637
H  H103  1  0.60020000  0.07890000  0.80180000  1.0 0.0791856144
H  H104  1  0.46580000  0.14450000  0.73220000  1.0 0.0496092276
H  H105  1  0.41360000  0.08910000  0.76070000  1.0 0.0699941754
H  H106  1  0.52580000  0.02290000  0.72900000  1.0 0.0699941754
H  H107  1  0.45690000  0.06110000  0.69240000  1.0 0.0994306104
H  H108  1  0.63500000  0.11690000  0.66830000  1.0 0.0699941754
H  H109  1  0.67260000  0.04530000  0.67140000  1.0 0.087739637
H  H110  1  0.73100000  0.05910000  0.74810000  1.0 0.0699941754
H  H111  1  0.81670000  0.81320000  0.54650000  1.0 0.087739637
H  H112  1  0.66790000  0.79970000  0.44990000  1.0 0.0699941754
H  H113  1  0.59120000  0.74670000  0.47020000  1.0 0.0791856144
H  H114  1  0.69910000  0.73060000  0.44000000  1.0 0.06121893
H  H115  1  0.80590000  0.70640000  0.55280000  1.0 0.0496092276
H  H116  1  0.78870000  0.67180000  0.50650000  1.0 0.0496092276
H  H117  1  0.68080000  0.68780000  0.53680000  1.0 0.06121893
H  H118  1  0.10760000  0.28640000  0.26420000  1.0 0.1632831776
H  H119  1  0.16980000  0.25540000  0.30570000  1.0 0.1210518799
H  H120  1  0.78410000  0.06890000  0.22040000  1.0 0.0791856144
H  H121  1  0.94560000  0.15450000  0.19320000  1.0 0.0791856144
H  H122  1  0.94480000  0.17780000  0.24460000  1.0 0.0496092276
H  H123  1  0.07900000  0.06920000  0.23100000  1.0 0.06121893
H  H124  1  0.95540000  0.03460000  0.23300000  1.0 0.0699941754
H  H125  1  0.98810000  0.13710000  0.30240000  1.0 0.06121893
H  H126  1  0.04370000  0.07130000  0.31630000  1.0 0.0791856144
H  H127  1  0.84880000  0.02550000  0.28670000  1.0 0.0699941754
H  H128  1  0.84300000  0.05560000  0.33590000  1.0 0.087739637
H  H129  1  0.80560000  0.16540000  0.29420000  1.0 0.0791856144
H  H130  1  0.66440000  0.06520000  0.34310000  1.0 0.0994306104
H  H131  1  0.23050000  0.13290000  0.30940000  1.0 0.1121635745
H  H132  1  0.18260000  0.08140000  0.37500000  1.0 0.1121635745
H  H133  1  0.51790000  0.03310000  0.39380000  1.0 0.1259836769
H  H134  1  0.80900000  0.20250000  0.17120000  1.0 0.087739637
H  H135  1  0.36490000  0.24830000  0.13860000  1.0 0.1210518799
H  H136  1  0.42810000  0.31000000  0.08000000  1.0 0.1210518799
H  H137  1  0.76020000  0.27620000  0.11330000  1.0 0.1259836769
H  H138  1  0.21950000  0.28720000  0.32050000  1.0 0.1836116845
H  H139  1  0.13500000  0.23240000  0.31000000  1.0 0.2352486709
H  H140  1  0.83610000  0.17910000  0.26310000  1.0 0.06121893
H  H141  1  0.94650000  0.14870000  0.19260000  1.0 0.087739637
H  H142  1  0.89980000  0.07890000  0.19820000  1.0 0.0791856144
H  H143  1  0.03420000  0.14450000  0.26780000  1.0 0.0496092276
H  H144  1  0.08640000  0.08910000  0.23930000  1.0 0.0699941754
H  H145  1  0.97420000  0.02290000  0.27100000  1.0 0.0699941754
H  H146  1  0.04310000  0.06110000  0.30760000  1.0 0.0994306104
H  H147  1  0.86500000  0.11690000  0.33170000  1.0 0.0699941754
H  H148  1  0.82740000  0.04530000  0.32860000  1.0 0.087739637
H  H149  1  0.76900000  0.05910000  0.25190000  1.0 0.0699941754
H  H150  1  0.68330000  0.81320000  0.45350000  1.0 0.087739637
H  H151  1  0.83210000  0.79970000  0.55010000  1.0 0.0699941754
H  H152  1  0.90880000  0.74670000  0.52980000  1.0 0.0791856144
H  H153  1  0.80090000  0.73060000  0.56000000  1.0 0.06121893
H  H154  1  0.69410000  0.70640000  0.44720000  1.0 0.0496092276
H  H155  1  0.71130000  0.67180000  0.49350000  1.0 0.0496092276
H  H156  1  0.81920000  0.68780000  0.46320000  1.0 0.06121893
H  H157  1  0.89240000  0.78640000  0.76420000  1.0 0.1632831776
H  H158  1  0.83020000  0.75540000  0.80570000  1.0 0.1210518799
H  H159  1  0.21590000  0.56890000  0.72040000  1.0 0.0791856144
H  H160  1  0.05440000  0.65450000  0.69320000  1.0 0.0791856144
H  H161  1  0.05520000  0.67780000  0.74460000  1.0 0.0496092276
H  H162  1  0.92100000  0.56920000  0.73100000  1.0 0.06121893
H  H163  1  0.04460000  0.53460000  0.73300000  1.0 0.0699941754
H  H164  1  0.01190000  0.63710000  0.80240000  1.0 0.06121893
H  H165  1  0.95630000  0.57130000  0.81630000  1.0 0.0791856144
H  H166  1  0.15120000  0.52550000  0.78670000  1.0 0.0699941754
H  H167  1  0.15700000  0.55560000  0.83590000  1.0 0.087739637
H  H168  1  0.19440000  0.66540000  0.79420000  1.0 0.0791856144
H  H169  1  0.33560000  0.56520000  0.84310000  1.0 0.0994306104
H  H170  1  0.76950000  0.63290000  0.80940000  1.0 0.1121635745
H  H171  1  0.81740000  0.58140000  0.87500000  1.0 0.1121635745
H  H172  1  0.48210000  0.53310000  0.89380000  1.0 0.1259836769
H  H173  1  0.19100000  0.70250000  0.67120000  1.0 0.087739637
H  H174  1  0.63510000  0.74830000  0.63860000  1.0 0.1210518799
H  H175  1  0.57190000  0.81000000  0.58000000  1.0 0.1210518799
H  H176  1  0.23980000  0.77620000  0.61330000  1.0 0.1259836769
H  H177  1  0.78050000  0.78720000  0.82050000  1.0 0.1836116845
H  H178  1  0.86500000  0.73240000  0.81000000  1.0 0.2352486709
H  H179  1  0.16390000  0.67910000  0.76310000  1.0 0.06121893
H  H180  1  0.05350000  0.64870000  0.69260000  1.0 0.087739637
H  H181  1  0.10020000  0.57890000  0.69820000  1.0 0.0791856144
H  H182  1  0.96580000  0.64450000  0.76780000  1.0 0.0496092276
H  H183  1  0.91360000  0.58910000  0.73930000  1.0 0.0699941754
H  H184  1  0.02580000  0.52290000  0.77100000  1.0 0.0699941754
H  H185  1  0.95690000  0.56110000  0.80760000  1.0 0.0994306104
H  H186  1  0.13500000  0.61690000  0.83170000  1.0 0.0699941754
H  H187  1  0.17260000  0.54530000  0.82860000  1.0 0.087739637
H  H188  1  0.23100000  0.55910000  0.75190000  1.0 0.0699941754
H  H189  1  0.31670000  0.31320000  0.95350000  1.0 0.087739637
H  H190  1  0.16790000  0.29970000  0.05010000  1.0 0.0699941754
H  H191  1  0.09120000  0.24670000  0.02980000  1.0 0.0791856144
H  H192  1  0.19910000  0.23060000  0.06000000  1.0 0.0496092276
H  H193  1  0.30590000  0.20640000  0.94720000  1.0 0.0496092276
H  H194  1  0.28870000  0.17180000  0.99350000  1.0 0.0496092276
H  H195  1  0.18080000  0.18780000  0.96320000  1.0 0.06121893
H  H196  1  0.60760000  0.78640000  0.23580000  1.0 0.1632831776
H  H197  1  0.66980000  0.75540000  0.19430000  1.0 0.1210518799
H  H198  1  0.28410000  0.56890000  0.27960000  1.0 0.0791856144
H  H199  1  0.44560000  0.65450000  0.30680000  1.0 0.0791856144
H  H200  1  0.44480000  0.67780000  0.25540000  1.0 0.0496092276
H  H201  1  0.57900000  0.56920000  0.26900000  1.0 0.06121893
H  H202  1  0.45540000  0.53460000  0.26700000  1.0 0.0699941754
H  H203  1  0.48810000  0.63710000  0.19760000  1.0 0.06121893
H  H204  1  0.54370000  0.57130000  0.18370000  1.0 0.0791856144
H  H205  1  0.34880000  0.52550000  0.21330000  1.0 0.0699941754
H  H206  1  0.34300000  0.55560000  0.16410000  1.0 0.087739637
H  H207  1  0.30560000  0.66540000  0.20580000  1.0 0.0791856144
H  H208  1  0.16440000  0.56520000  0.15690000  1.0 0.0994306104
H  H209  1  0.73050000  0.63290000  0.19060000  1.0 0.1121635745
H  H210  1  0.68260000  0.58140000  0.12500000  1.0 0.1121635745
H  H211  1  0.01790000  0.53310000  0.10620000  1.0 0.1259836769
H  H212  1  0.30900000  0.70250000  0.32880000  1.0 0.087739637
H  H213  1  0.86490000  0.74830000  0.36140000  1.0 0.1210518799
H  H214  1  0.92810000  0.81000000  0.42000000  1.0 0.1210518799
H  H215  1  0.26020000  0.77620000  0.38670000  1.0 0.1259836769
H  H216  1  0.71950000  0.78720000  0.17950000  1.0 0.1836116845
H  H217  1  0.63500000  0.73240000  0.19000000  1.0 0.2352486709
H  H218  1  0.33610000  0.67910000  0.23690000  1.0 0.06121893
H  H219  1  0.44650000  0.64870000  0.30740000  1.0 0.087739637
H  H220  1  0.39980000  0.57890000  0.30180000  1.0 0.0791856144
H  H221  1  0.53420000  0.64450000  0.23220000  1.0 0.0496092276
H  H222  1  0.58640000  0.58910000  0.26070000  1.0 0.0699941754
H  H223  1  0.47420000  0.52290000  0.22900000  1.0 0.0699941754
H  H224  1  0.54310000  0.56110000  0.19240000  1.0 0.0994306104
H  H225  1  0.36500000  0.61690000  0.16830000  1.0 0.0699941754
H  H226  1  0.32740000  0.54530000  0.17140000  1.0 0.087739637
H  H227  1  0.26900000  0.55910000  0.24810000  1.0 0.0699941754
H  H228  1  0.18330000  0.31320000  0.04650000  1.0 0.087739637
H  H229  1  0.33210000  0.29970000  0.94990000  1.0 0.0699941754
H  H230  1  0.40880000  0.24670000  0.97020000  1.0 0.0791856144
H  H231  1  0.30090000  0.23060000  0.94000000  1.0 0.0496092276
H  H232  1  0.19410000  0.20640000  0.05280000  1.0 0.0496092276
H  H233  1  0.21130000  0.17180000  0.00650000  1.0 0.0496092276
H  H234  1  0.31920000  0.18780000  0.03680000  1.0 0.06121893
H  H235  1  0.60760000  0.71360000  0.26420000  1.0 0.1632831776
H  H236  1  0.66980000  0.74460000  0.30570000  1.0 0.1210518799
H  H237  1  0.28410000  0.93110000  0.22040000  1.0 0.0791856144
H  H238  1  0.44560000  0.84550000  0.19320000  1.0 0.0791856144
H  H239  1  0.44480000  0.82220000  0.24460000  1.0 0.0496092276
H  H240  1  0.57900000  0.93080000  0.23100000  1.0 0.06121893
H  H241  1  0.45540000  0.96540000  0.23300000  1.0 0.0699941754
H  H242  1  0.48810000  0.86290000  0.30240000  1.0 0.06121893
H  H243  1  0.54370000  0.92870000  0.31630000  1.0 0.0791856144
H  H244  1  0.34880000  0.97450000  0.28670000  1.0 0.0699941754
H  H245  1  0.34300000  0.94440000  0.33590000  1.0 0.087739637
H  H246  1  0.30560000  0.83460000  0.29420000  1.0 0.0791856144
H  H247  1  0.16440000  0.93480000  0.34310000  1.0 0.0994306104
H  H248  1  0.73050000  0.86710000  0.30940000  1.0 0.1121635745
H  H249  1  0.68260000  0.91860000  0.37500000  1.0 0.1121635745
H  H250  1  0.01790000  0.96690000  0.39380000  1.0 0.1259836769
H  H251  1  0.30900000  0.79750000  0.17120000  1.0 0.087739637
H  H252  1  0.86490000  0.75170000  0.13860000  1.0 0.1210518799
H  H253  1  0.92810000  0.69000000  0.08000000  1.0 0.1210518799
H  H254  1  0.26020000  0.72380000  0.11330000  1.0 0.1259836769
H  H255  1  0.71950000  0.71280000  0.32050000  1.0 0.1836116845
H  H256  1  0.63500000  0.76760000  0.31000000  1.0 0.2352486709
H  H257  1  0.33610000  0.82090000  0.26310000  1.0 0.06121893
H  H258  1  0.44650000  0.85130000  0.19260000  1.0 0.087739637
H  H259  1  0.39980000  0.92110000  0.19820000  1.0 0.0791856144
H  H260  1  0.53420000  0.85550000  0.26780000  1.0 0.0496092276
H  H261  1  0.58640000  0.91090000  0.23930000  1.0 0.0699941754
H  H262  1  0.47420000  0.97710000  0.27100000  1.0 0.0699941754
H  H263  1  0.54310000  0.93890000  0.30760000  1.0 0.0994306104
H  H264  1  0.36500000  0.88310000  0.33170000  1.0 0.0699941754
H  H265  1  0.32740000  0.95470000  0.32860000  1.0 0.087739637
H  H266  1  0.26900000  0.94090000  0.25190000  1.0 0.0699941754
H  H267  1  0.18330000  0.18680000  0.45350000  1.0 0.087739637
H  H268  1  0.33210000  0.20030000  0.55010000  1.0 0.0699941754
H  H269  1  0.40880000  0.25330000  0.52980000  1.0 0.0791856144
H  H270  1  0.30090000  0.26940000  0.56000000  1.0 0.0496092276
H  H271  1  0.19410000  0.29360000  0.44720000  1.0 0.0496092276
H  H272  1  0.21130000  0.32820000  0.49350000  1.0 0.0496092276
H  H273  1  0.31920000  0.31220000  0.46320000  1.0 0.06121893
H  H274  1  0.89240000  0.71360000  0.73580000  1.0 0.1632831776
H  H275  1  0.83020000  0.74460000  0.69430000  1.0 0.1210518799
H  H276  1  0.21590000  0.93110000  0.77960000  1.0 0.0791856144
H  H277  1  0.05440000  0.84550000  0.80680000  1.0 0.0791856144
H  H278  1  0.05520000  0.82220000  0.75540000  1.0 0.0496092276
H  H279  1  0.92100000  0.93080000  0.76900000  1.0 0.06121893
H  H280  1  0.04460000  0.96540000  0.76700000  1.0 0.0699941754
H  H281  1  0.01190000  0.86290000  0.69760000  1.0 0.06121893
H  H282  1  0.95630000  0.92870000  0.68370000  1.0 0.0791856144
H  H283  1  0.15120000  0.97450000  0.71330000  1.0 0.0699941754
H  H284  1  0.15700000  0.94440000  0.66410000  1.0 0.087739637
H  H285  1  0.19440000  0.83460000  0.70580000  1.0 0.0791856144
H  H286  1  0.33560000  0.93480000  0.65690000  1.0 0.0994306104
H  H287  1  0.76950000  0.86710000  0.69060000  1.0 0.1121635745
H  H288  1  0.81740000  0.91860000  0.62500000  1.0 0.1121635745
H  H289  1  0.48210000  0.96690000  0.60620000  1.0 0.1259836769
H  H290  1  0.19100000  0.79750000  0.82880000  1.0 0.087739637
H  H291  1  0.63510000  0.75170000  0.86140000  1.0 0.1210518799
H  H292  1  0.57190000  0.69000000  0.92000000  1.0 0.1210518799
H  H293  1  0.23980000  0.72380000  0.88670000  1.0 0.1259836769
H  H294  1  0.78050000  0.71280000  0.67950000  1.0 0.1836116845
H  H295  1  0.86500000  0.76760000  0.69000000  1.0 0.2352486709
H  H296  1  0.16390000  0.82090000  0.73690000  1.0 0.06121893
H  H297  1  0.05350000  0.85130000  0.80740000  1.0 0.087739637
H  H298  1  0.10020000  0.92110000  0.80180000  1.0 0.0791856144
H  H299  1  0.96580000  0.85550000  0.73220000  1.0 0.0496092276
H  H300  1  0.91360000  0.91090000  0.76070000  1.0 0.0699941754
H  H301  1  0.02580000  0.97710000  0.72900000  1.0 0.0699941754
H  H302  1  0.95690000  0.93890000  0.69240000  1.0 0.0994306104
H  H303  1  0.13500000  0.88310000  0.66830000  1.0 0.0699941754
H  H304  1  0.17260000  0.95470000  0.67140000  1.0 0.087739637
H  H305  1  0.23100000  0.94090000  0.74810000  1.0 0.0699941754
H  H306  1  0.31670000  0.18680000  0.54650000  1.0 0.087739637
H  H307  1  0.16790000  0.20030000  0.44990000  1.0 0.0699941754
H  H308  1  0.09120000  0.25330000  0.47020000  1.0 0.0791856144
H  H309  1  0.19910000  0.26940000  0.44000000  1.0 0.0496092276
H  H310  1  0.30590000  0.29360000  0.55280000  1.0 0.0496092276
H  H311  1  0.28870000  0.32820000  0.50650000  1.0 0.0496092276
H  H312  1  0.18080000  0.31220000  0.53680000  1.0 0.06121893
C  C1  1  0.79630000  0.38800000  0.26860000  1.0 0.0175088169
C  C2  1  0.92910000  0.35720000  0.27560000  1.0 -0.118132152
C  C3  1  0.99870000  0.42780000  0.25880000  1.0 -0.1290371731
C  C4  1  0.98570000  0.40800000  0.20250000  1.0 -0.0867235502
C  C5  1  0.86010000  0.43620000  0.19580000  1.0 -0.118132152
C  C6  1  0.78100000  0.37630000  0.21620000  1.0 0.0407680022
C  C7  1  0.61170000  0.41512000  0.17623000  1.0 -0.1815606137
C  C8  1  0.49130000  0.41623000  0.16373000  1.0 -0.0797774206
C  C9  1  0.40420000  0.38556000  0.18991000  1.0 0.2255881252
C  C10  1  0.28870000  0.38723000  0.17405000  1.0 -0.3559695175
C  C11  1  0.25990000  0.41792000  0.13459000  1.0 -0.2103622044
C  C12  1  0.34620000  0.44842000  0.10855000  1.0 -0.0459469212
C  C13  1  0.46040000  0.44704000  0.12331000  1.0 -0.1290371731
C  C14  1  0.31280000  0.48325000  0.06664000  1.0 0.5686438093
C  C15  1  0.73160000  0.30180000  0.31980000  1.0 -0.1815606137
C  C16  1  0.64450000  0.26824000  0.34515000  1.0 -0.0797774206
C  C17  1  0.52400000  0.27427000  0.33567000  1.0 0.2959284792
C  C18  1  0.44450000  0.24552000  0.36557000  1.0 -0.250761156
C  C19  1  0.48240000  0.20851000  0.40079000  1.0 -0.0706315224
C  C20  1  0.60160000  0.19821000  0.40823000  1.0 -0.0322561949
C  C21  1  0.68080000  0.22894000  0.38120000  1.0 -0.1386790639
C  C22  1  0.64270000  0.15205000  0.44321000  1.0 0.575241969
C  C23  1  0.81080000  0.35670000  0.25550000  1.0 0.0038170749
C  C24  1  0.91980000  0.38260000  0.28580000  1.0 -0.0706315224
C  C25  1  0.01560000  0.39520000  0.24670000  1.0 -0.1045031985
C  C26  1  0.98190000  0.43600000  0.21500000  1.0 -0.0706315224
C  C27  1  0.85620000  0.41890000  0.18850000  1.0 -0.118132152
C  C28  1  0.77420000  0.40300000  0.22920000  1.0 0.0273724543
C  C29  1  0.72340000  0.68720000  0.01790000  1.0 0.0496092276
C  C30  1  0.83120000  0.74130000  0.96220000  1.0 -0.1870253801
C  C31  1  0.74410000  0.79840000  0.02690000  1.0 -0.1290371731
C  C32  1  0.70370000  0.38800000  0.73140000  1.0 0.0175088169
C  C33  1  0.57090000  0.35720000  0.72440000  1.0 -0.118132152
C  C34  1  0.50130000  0.42780000  0.74120000  1.0 -0.1290371731
C  C35  1  0.51430000  0.40800000  0.79750000  1.0 -0.0867235502
C  C36  1  0.63990000  0.43620000  0.80420000  1.0 -0.118132152
C  C37  1  0.71900000  0.37630000  0.78380000  1.0 0.0407680022
C  C38  1  0.88830000  0.41512000  0.82377000  1.0 -0.1815606137
C  C39  1  0.00870000  0.41623000  0.83627000  1.0 -0.0867235502
C  C40  1  0.09580000  0.38556000  0.81009000  1.0 0.2255881252
C  C41  1  0.21130000  0.38723000  0.82595000  1.0 -0.3559695175
C  C42  1  0.24010000  0.41792000  0.86541000  1.0 -0.2103622044
C  C43  1  0.15380000  0.44842000  0.89145000  1.0 -0.0459469212
C  C44  1  0.03960000  0.44704000  0.87669000  1.0 -0.1290371731
C  C45  1  0.18720000  0.48325000  0.93336000  1.0 0.5686438093
C  C46  1  0.76840000  0.30180000  0.68020000  1.0 -0.1870253801
C  C47  1  0.85550000  0.26824000  0.65485000  1.0 -0.0797774206
C  C48  1  0.97600000  0.27427000  0.66433000  1.0 0.2959284792
C  C49  1  0.05550000  0.24552000  0.63443000  1.0 -0.250761156
C  C50  1  0.01760000  0.20851000  0.59921000  1.0 -0.0706315224
C  C51  1  0.89840000  0.19821000  0.59177000  1.0 -0.0322561949
C  C52  1  0.81920000  0.22894000  0.61880000  1.0 -0.1386790639
C  C53  1  0.85730000  0.15205000  0.55679000  1.0 0.575241969
C  C54  1  0.68920000  0.35670000  0.74450000  1.0 0.0038170749
C  C55  1  0.58020000  0.38260000  0.71420000  1.0 -0.0706315224
C  C56  1  0.48440000  0.39520000  0.75330000  1.0 -0.1045031985
C  C57  1  0.51810000  0.43600000  0.78500000  1.0 -0.0706315224
C  C58  1  0.64380000  0.41890000  0.81150000  1.0 -0.118132152
C  C59  1  0.72580000  0.40300000  0.77080000  1.0 0.0273724543
C  C60  1  0.77660000  0.68720000  0.98210000  1.0 0.0496092276
C  C61  1  0.66880000  0.74130000  0.03780000  1.0 -0.1870253801
C  C62  1  0.75590000  0.79840000  0.97310000  1.0 -0.1290371731
C  C63  1  0.70370000  0.11200000  0.76860000  1.0 0.0175088169
C  C64  1  0.57090000  0.14280000  0.77560000  1.0 -0.118132152
C  C65  1  0.50130000  0.07220000  0.75880000  1.0 -0.1290371731
C  C66  1  0.51430000  0.09200000  0.70250000  1.0 -0.0867235502
C  C67  1  0.63990000  0.06380000  0.69580000  1.0 -0.118132152
C  C68  1  0.71900000  0.12370000  0.71620000  1.0 0.0407680022
C  C69  1  0.88830000  0.08488000  0.67623000  1.0 -0.1815606137
C  C70  1  0.00870000  0.08377000  0.66373000  1.0 -0.0797774206
C  C71  1  0.09580000  0.11444000  0.68991000  1.0 0.2255881252
C  C72  1  0.21130000  0.11277000  0.67405000  1.0 -0.3559695175
C  C73  1  0.24010000  0.08208000  0.63459000  1.0 -0.2103622044
C  C74  1  0.15380000  0.05158000  0.60855000  1.0 -0.0459469212
C  C75  1  0.03960000  0.05296000  0.62331000  1.0 -0.1290371731
C  C76  1  0.18720000  0.01675000  0.56664000  1.0 0.5686438093
C  C77  1  0.76840000  0.19820000  0.81980000  1.0 -0.1870253801
C  C78  1  0.85550000  0.23176000  0.84515000  1.0 -0.0797774206
C  C79  1  0.97600000  0.22573000  0.83567000  1.0 0.2959284792
C  C80  1  0.05550000  0.25448000  0.86557000  1.0 -0.250761156
C  C81  1  0.01760000  0.29149000  0.90079000  1.0 -0.0706315224
C  C82  1  0.89840000  0.30179000  0.90823000  1.0 -0.0322561949
C  C83  1  0.81920000  0.27106000  0.88120000  1.0 -0.1386790639
C  C84  1  0.85730000  0.34795000  0.94321000  1.0 0.575241969
C  C85  1  0.68920000  0.14330000  0.75550000  1.0 0.0038170749
C  C86  1  0.58020000  0.11740000  0.78580000  1.0 -0.0706315224
C  C87  1  0.48440000  0.10480000  0.74670000  1.0 -0.1045031985
C  C88  1  0.51810000  0.06400000  0.71500000  1.0 -0.0706315224
C  C89  1  0.64380000  0.08110000  0.68850000  1.0 -0.118132152
C  C90  1  0.72580000  0.09700000  0.72920000  1.0 0.0273724543
C  C91  1  0.77660000  0.81280000  0.51790000  1.0 0.0496092276
C  C92  1  0.66880000  0.75870000  0.46220000  1.0 -0.1870253801
C  C93  1  0.75590000  0.70160000  0.52690000  1.0 -0.1290371731
C  C94  1  0.79630000  0.11200000  0.23140000  1.0 0.0175088169
C  C95  1  0.92910000  0.14280000  0.22440000  1.0 -0.118132152
C  C96  1  0.99870000  0.07220000  0.24120000  1.0 -0.1290371731
C  C97  1  0.98570000  0.09200000  0.29750000  1.0 -0.0867235502
C  C98  1  0.86010000  0.06380000  0.30420000  1.0 -0.118132152
C  C99  1  0.78100000  0.12370000  0.28380000  1.0 0.0407680022
C  C100  1  0.61170000  0.08488000  0.32377000  1.0 -0.1815606137
C  C101  1  0.49130000  0.08377000  0.33627000  1.0 -0.0797774206
C  C102  1  0.40420000  0.11444000  0.31009000  1.0 0.2255881252
C  C103  1  0.28870000  0.11277000  0.32595000  1.0 -0.3559695175
C  C104  1  0.25990000  0.08208000  0.36541000  1.0 -0.2103622044
C  C105  1  0.34620000  0.05158000  0.39145000  1.0 -0.0459469212
C  C106  1  0.46040000  0.05296000  0.37669000  1.0 -0.1290371731
C  C107  1  0.31280000  0.01675000  0.43336000  1.0 0.5686438093
C  C108  1  0.73160000  0.19820000  0.18020000  1.0 -0.1815606137
C  C109  1  0.64450000  0.23176000  0.15485000  1.0 -0.0797774206
C  C110  1  0.52400000  0.22573000  0.16433000  1.0 0.2959284792
C  C111  1  0.44450000  0.25448000  0.13443000  1.0 -0.250761156
C  C112  1  0.48240000  0.29149000  0.09921000  1.0 -0.0706315224
C  C113  1  0.60160000  0.30179000  0.09177000  1.0 -0.0322561949
C  C114  1  0.68080000  0.27106000  0.11880000  1.0 -0.1386790639
C  C115  1  0.64270000  0.34795000  0.05679000  1.0 0.575241969
C  C116  1  0.81080000  0.14330000  0.24450000  1.0 0.0038170749
C  C117  1  0.91980000  0.11740000  0.21420000  1.0 -0.0706315224
C  C118  1  0.01560000  0.10480000  0.25330000  1.0 -0.1045031985
C  C119  1  0.98190000  0.06400000  0.28500000  1.0 -0.0706315224
C  C120  1  0.85620000  0.08110000  0.31150000  1.0 -0.118132152
C  C121  1  0.77420000  0.09700000  0.27080000  1.0 0.0273724543
C  C122  1  0.72340000  0.81280000  0.48210000  1.0 0.0496092276
C  C123  1  0.83120000  0.75870000  0.53780000  1.0 -0.1870253801
C  C124  1  0.74410000  0.70160000  0.47310000  1.0 -0.1290371731
C  C125  1  0.20370000  0.61200000  0.73140000  1.0 0.0175088169
C  C126  1  0.07090000  0.64280000  0.72440000  1.0 -0.118132152
C  C127  1  0.00130000  0.57220000  0.74120000  1.0 -0.1290371731
C  C128  1  0.01430000  0.59200000  0.79750000  1.0 -0.0867235502
C  C129  1  0.13990000  0.56380000  0.80420000  1.0 -0.118132152
C  C130  1  0.21900000  0.62370000  0.78380000  1.0 0.0407680022
C  C131  1  0.38830000  0.58488000  0.82377000  1.0 -0.1815606137
C  C132  1  0.50870000  0.58377000  0.83627000  1.0 -0.0797774206
C  C133  1  0.59580000  0.61444000  0.81009000  1.0 0.2255881252
C  C134  1  0.71130000  0.61277000  0.82595000  1.0 -0.3559695175
C  C135  1  0.74010000  0.58208000  0.86541000  1.0 -0.2103622044
C  C136  1  0.65380000  0.55158000  0.89145000  1.0 -0.0459469212
C  C137  1  0.53960000  0.55296000  0.87669000  1.0 -0.1290371731
C  C138  1  0.68720000  0.51675000  0.93336000  1.0 0.5686438093
C  C139  1  0.26840000  0.69820000  0.68020000  1.0 -0.1870253801
C  C140  1  0.35550000  0.73176000  0.65485000  1.0 -0.0797774206
C  C141  1  0.47600000  0.72573000  0.66433000  1.0 0.2959284792
C  C142  1  0.55550000  0.75448000  0.63443000  1.0 -0.250761156
C  C143  1  0.51760000  0.79149000  0.59921000  1.0 -0.0706315224
C  C144  1  0.39840000  0.80179000  0.59177000  1.0 -0.0322561949
C  C145  1  0.31920000  0.77106000  0.61880000  1.0 -0.1386790639
C  C146  1  0.35730000  0.84795000  0.55679000  1.0 0.575241969
C  C147  1  0.18920000  0.64330000  0.74450000  1.0 0.0038170749
C  C148  1  0.08020000  0.61740000  0.71420000  1.0 -0.0706315224
C  C149  1  0.98440000  0.60480000  0.75330000  1.0 -0.1045031985
C  C150  1  0.01810000  0.56400000  0.78500000  1.0 -0.0706315224
C  C151  1  0.14380000  0.58110000  0.81150000  1.0 -0.118132152
C  C152  1  0.22580000  0.59700000  0.77080000  1.0 0.0273724543
C  C153  1  0.27660000  0.31280000  0.98210000  1.0 0.0496092276
C  C154  1  0.16880000  0.25870000  0.03780000  1.0 -0.1870253801
C  C155  1  0.25590000  0.20160000  0.97310000  1.0 -0.1290371731
C  C156  1  0.29630000  0.61200000  0.26860000  1.0 0.0175088169
C  C157  1  0.42910000  0.64280000  0.27560000  1.0 -0.118132152
C  C158  1  0.49870000  0.57220000  0.25880000  1.0 -0.1290371731
C  C159  1  0.48570000  0.59200000  0.20250000  1.0 -0.0867235502
C  C160  1  0.36010000  0.56380000  0.19580000  1.0 -0.118132152
C  C161  1  0.28100000  0.62370000  0.21620000  1.0 0.0407680022
C  C162  1  0.11170000  0.58488000  0.17623000  1.0 -0.1815606137
C  C163  1  0.99130000  0.58377000  0.16373000  1.0 -0.0797774206
C  C164  1  0.90420000  0.61444000  0.18991000  1.0 0.2255881252
C  C165  1  0.78870000  0.61277000  0.17405000  1.0 -0.3559695175
C  C166  1  0.75990000  0.58208000  0.13459000  1.0 -0.2103622044
C  C167  1  0.84620000  0.55158000  0.10855000  1.0 -0.0459469212
C  C168  1  0.96040000  0.55296000  0.12331000  1.0 -0.1290371731
C  C169  1  0.81280000  0.51675000  0.06664000  1.0 0.5686438093
C  C170  1  0.23160000  0.69820000  0.31980000  1.0 -0.1870253801
C  C171  1  0.14450000  0.73176000  0.34515000  1.0 -0.0797774206
C  C172  1  0.02400000  0.72573000  0.33567000  1.0 0.2959284792
C  C173  1  0.94450000  0.75448000  0.36557000  1.0 -0.250761156
C  C174  1  0.98240000  0.79149000  0.40079000  1.0 -0.0706315224
C  C175  1  0.10160000  0.80179000  0.40823000  1.0 -0.0322561949
C  C176  1  0.18080000  0.77106000  0.38120000  1.0 -0.1386790639
C  C177  1  0.14270000  0.84795000  0.44321000  1.0 0.575241969
C  C178  1  0.31080000  0.64330000  0.25550000  1.0 0.0038170749
C  C179  1  0.41980000  0.61740000  0.28580000  1.0 -0.0706315224
C  C180  1  0.51560000  0.60480000  0.24670000  1.0 -0.1045031985
C  C181  1  0.48190000  0.56400000  0.21500000  1.0 -0.0706315224
C  C182  1  0.35620000  0.58110000  0.18850000  1.0 -0.118132152
C  C183  1  0.27420000  0.59700000  0.22920000  1.0 0.0273724543
C  C184  1  0.22340000  0.31280000  0.01790000  1.0 0.0496092276
C  C185  1  0.33120000  0.25870000  0.96220000  1.0 -0.1870253801
C  C186  1  0.24410000  0.20160000  0.02690000  1.0 -0.1290371731
C  C187  1  0.29630000  0.88800000  0.23140000  1.0 0.0175088169
C  C188  1  0.42910000  0.85720000  0.22440000  1.0 -0.118132152
C  C189  1  0.49870000  0.92780000  0.24120000  1.0 -0.1290371731
C  C190  1  0.48570000  0.90800000  0.29750000  1.0 -0.0867235502
C  C191  1  0.36010000  0.93620000  0.30420000  1.0 -0.118132152
C  C192  1  0.28100000  0.87630000  0.28380000  1.0 0.0407680022
C  C193  1  0.11170000  0.91512000  0.32377000  1.0 -0.1815606137
C  C194  1  0.99130000  0.91623000  0.33627000  1.0 -0.0797774206
C  C195  1  0.90420000  0.88556000  0.31009000  1.0 0.2255881252
C  C196  1  0.78870000  0.88723000  0.32595000  1.0 -0.3559695175
C  C197  1  0.75990000  0.91792000  0.36541000  1.0 -0.2103622044
C  C198  1  0.84620000  0.94842000  0.39145000  1.0 -0.0459469212
C  C199  1  0.96040000  0.94704000  0.37669000  1.0 -0.1290371731
C  C200  1  0.81280000  0.98325000  0.43336000  1.0 0.5686438093
C  C201  1  0.23160000  0.80180000  0.18020000  1.0 -0.1870253801
C  C202  1  0.14450000  0.76824000  0.15485000  1.0 -0.0797774206
C  C203  1  0.02400000  0.77427000  0.16433000  1.0 0.2959284792
C  C204  1  0.94450000  0.74552000  0.13443000  1.0 -0.250761156
C  C205  1  0.98240000  0.70851000  0.09921000  1.0 -0.0706315224
C  C206  1  0.10160000  0.69821000  0.09177000  1.0 -0.0322561949
C  C207  1  0.18080000  0.72894000  0.11880000  1.0 -0.1386790639
C  C208  1  0.14270000  0.65205000  0.05679000  1.0 0.575241969
C  C209  1  0.31080000  0.85670000  0.24450000  1.0 0.0038170749
C  C210  1  0.41980000  0.88260000  0.21420000  1.0 -0.0706315224
C  C211  1  0.51560000  0.89520000  0.25330000  1.0 -0.1045031985
C  C212  1  0.48190000  0.93600000  0.28500000  1.0 -0.0706315224
C  C213  1  0.35620000  0.91890000  0.31150000  1.0 -0.118132152
C  C214  1  0.27420000  0.90300000  0.27080000  1.0 0.0273724543
C  C215  1  0.22340000  0.18720000  0.48210000  1.0 0.0496092276
C  C216  1  0.33120000  0.24130000  0.53780000  1.0 -0.1870253801
C  C217  1  0.24410000  0.29840000  0.47310000  1.0 -0.1290371731
C  C218  1  0.20370000  0.88800000  0.76860000  1.0 0.0175088169
C  C219  1  0.07090000  0.85720000  0.77560000  1.0 -0.118132152
C  C220  1  0.00130000  0.92780000  0.75880000  1.0 -0.1290371731
C  C221  1  0.01430000  0.90800000  0.70250000  1.0 -0.0867235502
C  C222  1  0.13990000  0.93620000  0.69580000  1.0 -0.118132152
C  C223  1  0.21900000  0.87630000  0.71620000  1.0 0.0407680022
C  C224  1  0.38830000  0.91512000  0.67623000  1.0 -0.1815606137
C  C225  1  0.50870000  0.91623000  0.66373000  1.0 -0.0797774206
C  C226  1  0.59580000  0.88556000  0.68991000  1.0 0.2255881252
C  C227  1  0.71130000  0.88723000  0.67405000  1.0 -0.3559695175
C  C228  1  0.74010000  0.91792000  0.63459000  1.0 -0.2103622044
C  C229  1  0.65380000  0.94842000  0.60855000  1.0 -0.0459469212
C  C230  1  0.53960000  0.94704000  0.62331000  1.0 -0.1290371731
C  C231  1  0.68720000  0.98325000  0.56664000  1.0 0.5686438093
C  C232  1  0.26840000  0.80180000  0.81980000  1.0 -0.1870253801
C  C233  1  0.35550000  0.76824000  0.84515000  1.0 -0.0797774206
C  C234  1  0.47600000  0.77427000  0.83567000  1.0 0.2959284792
C  C235  1  0.55550000  0.74552000  0.86557000  1.0 -0.250761156
C  C236  1  0.51760000  0.70851000  0.90079000  1.0 -0.0706315224
C  C237  1  0.39840000  0.69821000  0.90823000  1.0 -0.0322561949
C  C238  1  0.31920000  0.72894000  0.88120000  1.0 -0.1386790639
C  C239  1  0.35730000  0.65205000  0.94321000  1.0 0.575241969
C  C240  1  0.18920000  0.85670000  0.75550000  1.0 0.0038170749
C  C241  1  0.08020000  0.88260000  0.78580000  1.0 -0.0706315224
C  C242  1  0.98440000  0.89520000  0.74670000  1.0 -0.1045031985
C  C243  1  0.01810000  0.93600000  0.71500000  1.0 -0.0706315224
C  C244  1  0.14380000  0.91890000  0.68850000  1.0 -0.118132152
C  C245  1  0.22580000  0.90300000  0.72920000  1.0 0.0273724543
C  C246  1  0.27660000  0.18720000  0.51790000  1.0 0.0496092276
C  C247  1  0.16880000  0.24130000  0.46220000  1.0 -0.1870253801
C  C248  1  0.25590000  0.29840000  0.52690000  1.0 -0.1290371731
N  N1  1  0.65290000  0.38886000  0.21232000  1.0 -0.2103622044
N  N2  1  0.71000000  0.33726000  0.28545000  1.0 -0.2029762259
N  N3  1  0.84710000  0.38886000  0.78768000  1.0 -0.2103622044
N  N4  1  0.79000000  0.33726000  0.71455000  1.0 -0.2029762259
N  N5  1  0.84710000  0.11114000  0.71232000  1.0 -0.2103622044
N  N6  1  0.79000000  0.16274000  0.78545000  1.0 -0.2029762259
N  N7  1  0.65290000  0.11114000  0.28768000  1.0 -0.2103622044
N  N8  1  0.71000000  0.16274000  0.21455000  1.0 -0.2029762259
N  N9  1  0.34710000  0.61114000  0.78768000  1.0 -0.2103622044
N  N10  1  0.29000000  0.66274000  0.71455000  1.0 -0.2029762259
N  N11  1  0.15290000  0.61114000  0.21232000  1.0 -0.2103622044
N  N12  1  0.21000000  0.66274000  0.28545000  1.0 -0.2029762259
N  N13  1  0.15290000  0.88886000  0.28768000  1.0 -0.2103622044
N  N14  1  0.21000000  0.83726000  0.21455000  1.0 -0.2029762259
N  N15  1  0.34710000  0.88886000  0.71232000  1.0 -0.2103622044
N  N16  1  0.29000000  0.83726000  0.78545000  1.0 -0.2029762259
N  N17  1  0.75000000  0.74190000  0.00000000  1.0 -0.0322561949
N  N18  1  0.75000000  0.75810000  0.50000000  1.0 -0.0322561949
N  N19  1  0.25000000  0.25810000  0.00000000  1.0 -0.0322561949
N  N20  1  0.25000000  0.24190000  0.50000000  1.0 -0.0322561949
O  O1  1  0.14900000  0.24950000  0.22570000  1.0 -0.16504532
O  O2  1  0.42652000  0.35421000  0.22749000  1.0 -0.4853426408
O  O3  1  0.48320000  0.30499000  0.30034000  1.0 -0.5007755747
O  O4  1  0.39193000  0.50567000  0.04137000  1.0 -0.6504043182
O  O5  1  0.20583000  0.49110000  0.05833000  1.0 -0.6022355547
O  O6  1  0.75035000  0.13901000  0.44369000  1.0 -0.5509379497
O  O7  1  0.57140000  0.12747000  0.47012000  1.0 -0.6185380211
O  O8  1  0.17540000  0.23300000  0.20280000  1.0 -0.2958631123
O  O9  1  0.35100000  0.24950000  0.77430000  1.0 -0.16504532
O  O10  1  0.07348000  0.35421000  0.77251000  1.0 -0.4853426408
O  O11  1  0.01680000  0.30499000  0.69966000  1.0 -0.5007755747
O  O12  1  0.10807000  0.50567000  0.95863000  1.0 -0.6504043182
O  O13  1  0.29417000  0.49110000  0.94167000  1.0 -0.6022355547
O  O14  1  0.74965000  0.13901000  0.55631000  1.0 -0.5509379497
O  O15  1  0.92860000  0.12747000  0.52988000  1.0 -0.6185380211
O  O16  1  0.32460000  0.23300000  0.79720000  1.0 -0.2958631123
O  O17  1  0.35100000  0.25050000  0.72570000  1.0 -0.16504532
O  O18  1  0.07348000  0.14579000  0.72749000  1.0 -0.4846031656
O  O19  1  0.01680000  0.19501000  0.80034000  1.0 -0.5007755747
O  O20  1  0.10807000  0.99433000  0.54137000  1.0 -0.6504043182
O  O21  1  0.29417000  0.00890000  0.55833000  1.0 -0.6022355547
O  O22  1  0.74965000  0.36099000  0.94369000  1.0 -0.5509379497
O  O23  1  0.92860000  0.37253000  0.97012000  1.0 -0.6185380211
O  O24  1  0.32460000  0.26700000  0.70280000  1.0 -0.2958631123
O  O25  1  0.14900000  0.25050000  0.27430000  1.0 -0.16504532
O  O26  1  0.42652000  0.14579000  0.27251000  1.0 -0.4846031656
O  O27  1  0.48320000  0.19501000  0.19966000  1.0 -0.5007755747
O  O28  1  0.39193000  0.99433000  0.45863000  1.0 -0.6504043182
O  O29  1  0.20583000  0.00890000  0.44167000  1.0 -0.6022355547
O  O30  1  0.75035000  0.36099000  0.05631000  1.0 -0.5509379497
O  O31  1  0.57140000  0.37253000  0.02988000  1.0 -0.6185380211
O  O32  1  0.17540000  0.26700000  0.29720000  1.0 -0.2958631123
O  O33  1  0.85100000  0.75050000  0.77430000  1.0 -0.16504532
O  O34  1  0.57348000  0.64579000  0.77251000  1.0 -0.4853426408
O  O35  1  0.51680000  0.69501000  0.69966000  1.0 -0.5007755747
O  O36  1  0.60807000  0.49433000  0.95863000  1.0 -0.6504043182
O  O37  1  0.79417000  0.50890000  0.94167000  1.0 -0.6022355547
O  O38  1  0.24965000  0.86099000  0.55631000  1.0 -0.5509379497
O  O39  1  0.42860000  0.87253000  0.52988000  1.0 -0.6185380211
O  O40  1  0.82460000  0.76700000  0.79720000  1.0 -0.2958631123
O  O41  1  0.64900000  0.75050000  0.22570000  1.0 -0.16504532
O  O42  1  0.92652000  0.64579000  0.22749000  1.0 -0.4853426408
O  O43  1  0.98320000  0.69501000  0.30034000  1.0 -0.5007755747
O  O44  1  0.89193000  0.49433000  0.04137000  1.0 -0.6504043182
O  O45  1  0.70583000  0.50890000  0.05833000  1.0 -0.6022355547
O  O46  1  0.25035000  0.86099000  0.44369000  1.0 -0.5509379497
O  O47  1  0.07140000  0.87253000  0.47012000  1.0 -0.6185380211
O  O48  1  0.67540000  0.76700000  0.20280000  1.0 -0.2958631123
O  O49  1  0.64900000  0.74950000  0.27430000  1.0 -0.16504532
O  O50  1  0.92652000  0.85421000  0.27251000  1.0 -0.4853426408
O  O51  1  0.98320000  0.80499000  0.19966000  1.0 -0.5007755747
O  O52  1  0.89193000  0.00567000  0.45863000  1.0 -0.6504043182
O  O53  1  0.70583000  0.99110000  0.44167000  1.0 -0.6022355547
O  O54  1  0.25035000  0.63901000  0.05631000  1.0 -0.5509379497
O  O55  1  0.07140000  0.62747000  0.02988000  1.0 -0.6185380211
O  O56  1  0.67540000  0.73300000  0.29720000  1.0 -0.2945713689
O  O57  1  0.85100000  0.74950000  0.72570000  1.0 -0.16504532
O  O58  1  0.57348000  0.85421000  0.72749000  1.0 -0.4853426408
O  O59  1  0.51680000  0.80499000  0.80034000  1.0 -0.5007755747
O  O60  1  0.60807000  0.00567000  0.54137000  1.0 -0.6504043182
O  O61  1  0.79417000  0.99110000  0.55833000  1.0 -0.6022355547
O  O62  1  0.24965000  0.63901000  0.94369000  1.0 -0.5509379497
O  O63  1  0.42860000  0.62747000  0.97012000  1.0 -0.6185380211
O  O64  1  0.82460000  0.73300000  0.70280000  1.0 -0.2958631123
O  O65  1  0.75000000  0.63510000  0.00000000  1.0 -0.3315271875
O  O66  1  0.75000000  0.86490000  0.50000000  1.0 -0.3315271875
O  O67  1  0.25000000  0.36490000  0.00000000  1.0 -0.3315271875
O  O68  1  0.25000000  0.13510000  0.50000000  1.0 -0.3315271875
