# DDEC6 charges by PACMAN v1.1 (https://github.com/mtap-research/PACMAN-charge/)
data_IDUNIH_FSR_pacman
_symmetry_space_group_name_H-M   'P 1'
_cell_length_a   11.51510000
_cell_length_b   21.68210000
_cell_length_c   29.46900000
_cell_angle_alpha   90.00000000
_cell_angle_beta   90.00000000
_cell_angle_gamma   90.00000000
_symmetry_Int_Tables_number   1
_chemical_formula_structural   Na3CdCu2H82C62N5O19
_chemical_formula_sum   'Na12 Cd4 Cu8 H328 C248 N20 O76'
_cell_volume   7357.57089840
_cell_formula_units_Z   4
loop_
 _symmetry_equiv_pos_site_id
 _symmetry_equiv_pos_as_xyz
  1  'x, y, z'
loop_
 _atom_site_type_symbol
 _atom_site_label
 _atom_site_symmetry_multiplicity
 _atom_site_fract_x
 _atom_site_fract_y
 _atom_site_fract_z
 _atom_site_occupancy
 _atom_site_charge
Na  Na1  1  0.55809000  0.57019000  0.02115000  1.0 0.8393286309
Na  Na2  1  0.94191000  0.57019000  0.97885000  1.0 0.8393286309
Na  Na3  1  0.94191000  0.92981000  0.52115000  1.0 0.8393286309
Na  Na4  1  0.55809000  0.92981000  0.47885000  1.0 0.8393286309
Na  Na5  1  0.44191000  0.42981000  0.97885000  1.0 0.8393286309
Na  Na6  1  0.05809000  0.42981000  0.02115000  1.0 0.8393286309
Na  Na7  1  0.05809000  0.07019000  0.47885000  1.0 0.8393286309
Na  Na8  1  0.44191000  0.07019000  0.52115000  1.0 0.8393286309
Na  Na9  1  0.32890000  0.25000000  0.25000000  1.0 0.7644713363
Na  Na10  1  0.17110000  0.25000000  0.75000000  1.0 0.7644713363
Na  Na11  1  0.67110000  0.75000000  0.75000000  1.0 0.7644713363
Na  Na12  1  0.82890000  0.75000000  0.25000000  1.0 0.7644713363
Cd  Cd1  1  0.75000000  0.06472000  0.50000000  1.0 0.9154004892
Cd  Cd2  1  0.75000000  0.43528000  0.00000000  1.0 0.9154004892
Cd  Cd3  1  0.25000000  0.93528000  0.50000000  1.0 0.9154004892
Cd  Cd4  1  0.25000000  0.56472000  0.00000000  1.0 0.9154004892
Cu  Cu1  1  0.55361000  0.34461000  0.25844000  1.0 0.4264923176
Cu  Cu2  1  0.94639000  0.34461000  0.74156000  1.0 0.4264923176
Cu  Cu3  1  0.94639000  0.15539000  0.75844000  1.0 0.4264923176
Cu  Cu4  1  0.55361000  0.15539000  0.24156000  1.0 0.4264923176
Cu  Cu5  1  0.44639000  0.65539000  0.74156000  1.0 0.4264923176
Cu  Cu6  1  0.05361000  0.65539000  0.25844000  1.0 0.4264923176
Cu  Cu7  1  0.05361000  0.84461000  0.24156000  1.0 0.4264923176
Cu  Cu8  1  0.44639000  0.84461000  0.75844000  1.0 0.4264923176
H  H1  1  0.49970000  0.67380000  0.07860000  1.0 0.301276221
H  H2  1  0.40740000  0.63140000  0.08430000  1.0 0.3242084822
H  H3  1  0.12270000  0.20520000  0.22040000  1.0 0.2447990505
H  H4  1  0.18490000  0.23620000  0.17900000  1.0 0.2141148588
H  H5  1  0.78300000  0.42120000  0.28500000  1.0 0.0704844409
H  H6  1  0.94260000  0.33020000  0.30070000  1.0 0.0771456631
H  H7  1  0.93000000  0.31460000  0.24810000  1.0 0.0599799725
H  H8  1  0.07360000  0.41100000  0.26680000  1.0 0.0599799725
H  H9  1  0.95540000  0.44830000  0.27110000  1.0 0.0704844409
H  H10  1  0.03130000  0.43410000  0.18790000  1.0 0.0599799725
H  H11  1  0.97880000  0.36680000  0.19270000  1.0 0.0704844409
H  H12  1  0.83700000  0.47150000  0.22210000  1.0 0.0771456631
H  H13  1  0.82600000  0.44950000  0.17110000  1.0 0.0996966031
H  H14  1  0.79310000  0.33810000  0.20420000  1.0 0.0704844409
H  H15  1  0.65210000  0.43630000  0.15970000  1.0 0.0898984774
H  H16  1  0.21860000  0.37090000  0.18950000  1.0 0.1198047041
H  H17  1  0.17610000  0.42300000  0.12410000  1.0 0.1198047041
H  H18  1  0.51130000  0.46710000  0.10920000  1.0 0.1256139642
H  H19  1  0.80100000  0.28510000  0.32670000  1.0 0.0898984774
H  H20  1  0.35920000  0.24430000  0.36510000  1.0 0.10924182
H  H21  1  0.42830000  0.18290000  0.42110000  1.0 0.1198047041
H  H22  1  0.75370000  0.21690000  0.38470000  1.0 0.1198047041
H  H23  1  0.23160000  0.19170000  0.16350000  1.0 0.1486155307
H  H24  1  0.14710000  0.24660000  0.17410000  1.0 0.2596977157
H  H25  1  0.81540000  0.31130000  0.22900000  1.0 0.0704844409
H  H26  1  0.94000000  0.34470000  0.30770000  1.0 0.0771456631
H  H27  1  0.89890000  0.41350000  0.29710000  1.0 0.0599799725
H  H28  1  0.99050000  0.34120000  0.21880000  1.0 0.0505560784
H  H29  1  0.08450000  0.37670000  0.24830000  1.0 0.0599799725
H  H30  1  0.94440000  0.46310000  0.24470000  1.0 0.0704844409
H  H31  1  0.02210000  0.45240000  0.20130000  1.0 0.0704844409
H  H32  1  0.85560000  0.37870000  0.17260000  1.0 0.0898984774
H  H33  1  0.81810000  0.44920000  0.17160000  1.0 0.0996966031
H  H34  1  0.76370000  0.43750000  0.25480000  1.0 0.0599799725
H  H35  1  0.68200000  0.68390000  0.04640000  1.0 0.0898984774
H  H36  1  0.83200000  0.69720000  0.94900000  1.0 0.0704844409
H  H37  1  0.90860000  0.75020000  0.96930000  1.0 0.0704844409
H  H38  1  0.80080000  0.76620000  0.93910000  1.0 0.0599799725
H  H39  1  0.68350000  0.79330000  0.04740000  1.0 0.0505560784
H  H40  1  0.70070000  0.82780000  0.00110000  1.0 0.0350702252
H  H41  1  0.80860000  0.81180000  0.03140000  1.0 0.0771456631
H  H42  1  0.00030000  0.67380000  0.92140000  1.0 0.301276221
H  H43  1  0.09260000  0.63140000  0.91570000  1.0 0.3242084822
H  H44  1  0.37730000  0.20520000  0.77960000  1.0 0.2447990505
H  H45  1  0.31510000  0.23620000  0.82100000  1.0 0.2141148588
H  H46  1  0.71700000  0.42120000  0.71500000  1.0 0.0704844409
H  H47  1  0.55740000  0.33020000  0.69930000  1.0 0.0771456631
H  H48  1  0.57000000  0.31460000  0.75190000  1.0 0.0599799725
H  H49  1  0.42640000  0.41100000  0.73320000  1.0 0.0599799725
H  H50  1  0.54460000  0.44830000  0.72890000  1.0 0.0704844409
H  H51  1  0.46870000  0.43410000  0.81210000  1.0 0.0599799725
H  H52  1  0.52120000  0.36680000  0.80730000  1.0 0.0704844409
H  H53  1  0.66300000  0.47150000  0.77790000  1.0 0.0771456631
H  H54  1  0.67400000  0.44950000  0.82890000  1.0 0.0996966031
H  H55  1  0.70690000  0.33810000  0.79580000  1.0 0.0704844409
H  H56  1  0.84790000  0.43630000  0.84030000  1.0 0.0898984774
H  H57  1  0.28140000  0.37090000  0.81050000  1.0 0.1198047041
H  H58  1  0.32390000  0.42300000  0.87590000  1.0 0.1198047041
H  H59  1  0.98870000  0.46710000  0.89080000  1.0 0.1256139642
H  H60  1  0.69900000  0.28510000  0.67330000  1.0 0.0898984774
H  H61  1  0.14080000  0.24430000  0.63490000  1.0 0.10924182
H  H62  1  0.07170000  0.18290000  0.57890000  1.0 0.1198047041
H  H63  1  0.74630000  0.21690000  0.61530000  1.0 0.1198047041
H  H64  1  0.26840000  0.19170000  0.83650000  1.0 0.1486155307
H  H65  1  0.35290000  0.24660000  0.82590000  1.0 0.2596977157
H  H66  1  0.68460000  0.31130000  0.77100000  1.0 0.0704844409
H  H67  1  0.56000000  0.34470000  0.69230000  1.0 0.0771456631
H  H68  1  0.60110000  0.41350000  0.70290000  1.0 0.0599799725
H  H69  1  0.50950000  0.34120000  0.78120000  1.0 0.0505560784
H  H70  1  0.41550000  0.37670000  0.75170000  1.0 0.0599799725
H  H71  1  0.55560000  0.46310000  0.75530000  1.0 0.0704844409
H  H72  1  0.47790000  0.45240000  0.79870000  1.0 0.0704844409
H  H73  1  0.64440000  0.37870000  0.82740000  1.0 0.0898984774
H  H74  1  0.68190000  0.44920000  0.82840000  1.0 0.0996966031
H  H75  1  0.73630000  0.43750000  0.74520000  1.0 0.0599799725
H  H76  1  0.81800000  0.68390000  0.95360000  1.0 0.0898984774
H  H77  1  0.66800000  0.69720000  0.05100000  1.0 0.0704844409
H  H78  1  0.59140000  0.75020000  0.03070000  1.0 0.0704844409
H  H79  1  0.69920000  0.76620000  0.06090000  1.0 0.0599799725
H  H80  1  0.81650000  0.79330000  0.95260000  1.0 0.0505560784
H  H81  1  0.79930000  0.82780000  0.99890000  1.0 0.0350702252
H  H82  1  0.69140000  0.81180000  0.96860000  1.0 0.0771456631
H  H83  1  0.00030000  0.82620000  0.57860000  1.0 0.301276221
H  H84  1  0.09260000  0.86860000  0.58430000  1.0 0.3242084822
H  H85  1  0.37730000  0.29480000  0.72040000  1.0 0.2447990505
H  H86  1  0.31510000  0.26380000  0.67900000  1.0 0.2141148588
H  H87  1  0.71700000  0.07880000  0.78500000  1.0 0.0704844409
H  H88  1  0.55740000  0.16980000  0.80070000  1.0 0.0771456631
H  H89  1  0.57000000  0.18540000  0.74810000  1.0 0.0599799725
H  H90  1  0.42640000  0.08900000  0.76680000  1.0 0.0599799725
H  H91  1  0.54460000  0.05170000  0.77110000  1.0 0.0704844409
H  H92  1  0.46870000  0.06590000  0.68790000  1.0 0.0599799725
H  H93  1  0.52120000  0.13320000  0.69270000  1.0 0.0704844409
H  H94  1  0.66300000  0.02850000  0.72210000  1.0 0.0771456631
H  H95  1  0.67400000  0.05050000  0.67110000  1.0 0.0996966031
H  H96  1  0.70690000  0.16190000  0.70420000  1.0 0.0704844409
H  H97  1  0.84790000  0.06370000  0.65970000  1.0 0.0898984774
H  H98  1  0.28140000  0.12910000  0.68950000  1.0 0.1198047041
H  H99  1  0.32390000  0.07700000  0.62410000  1.0 0.1198047041
H  H100  1  0.98870000  0.03290000  0.60920000  1.0 0.1256139642
H  H101  1  0.69900000  0.21490000  0.82670000  1.0 0.0898984774
H  H102  1  0.14080000  0.25570000  0.86510000  1.0 0.10924182
H  H103  1  0.07170000  0.31710000  0.92110000  1.0 0.1198047041
H  H104  1  0.74630000  0.28310000  0.88470000  1.0 0.1198047041
H  H105  1  0.26840000  0.30830000  0.66350000  1.0 0.1486155307
H  H106  1  0.35290000  0.25340000  0.67410000  1.0 0.2596977157
H  H107  1  0.68460000  0.18870000  0.72900000  1.0 0.0704844409
H  H108  1  0.56000000  0.15530000  0.80770000  1.0 0.0771456631
H  H109  1  0.60110000  0.08650000  0.79710000  1.0 0.0599799725
H  H110  1  0.50950000  0.15880000  0.71880000  1.0 0.0505560784
H  H111  1  0.41550000  0.12330000  0.74830000  1.0 0.0599799725
H  H112  1  0.55560000  0.03690000  0.74470000  1.0 0.0704844409
H  H113  1  0.47790000  0.04760000  0.70130000  1.0 0.0704844409
H  H114  1  0.64440000  0.12130000  0.67260000  1.0 0.0898984774
H  H115  1  0.68190000  0.05080000  0.67160000  1.0 0.0996966031
H  H116  1  0.73630000  0.06250000  0.75480000  1.0 0.0599799725
H  H117  1  0.81800000  0.81610000  0.54640000  1.0 0.0898984774
H  H118  1  0.66800000  0.80280000  0.44900000  1.0 0.0704844409
H  H119  1  0.59140000  0.74980000  0.46930000  1.0 0.0704844409
H  H120  1  0.69920000  0.73380000  0.43910000  1.0 0.0599799725
H  H121  1  0.81650000  0.70670000  0.54740000  1.0 0.0505560784
H  H122  1  0.79930000  0.67220000  0.50110000  1.0 0.0350702252
H  H123  1  0.69140000  0.68820000  0.53140000  1.0 0.0771456631
H  H124  1  0.49970000  0.82620000  0.42140000  1.0 0.301276221
H  H125  1  0.40740000  0.86860000  0.41570000  1.0 0.3242084822
H  H126  1  0.12270000  0.29480000  0.27960000  1.0 0.2447990505
H  H127  1  0.18490000  0.26380000  0.32100000  1.0 0.2141148588
H  H128  1  0.78300000  0.07880000  0.21500000  1.0 0.0704844409
H  H129  1  0.94260000  0.16980000  0.19930000  1.0 0.0771456631
H  H130  1  0.93000000  0.18540000  0.25190000  1.0 0.0599799725
H  H131  1  0.07360000  0.08900000  0.23320000  1.0 0.0599799725
H  H132  1  0.95540000  0.05170000  0.22890000  1.0 0.0704844409
H  H133  1  0.03130000  0.06590000  0.31210000  1.0 0.0599799725
H  H134  1  0.97880000  0.13320000  0.30730000  1.0 0.0704844409
H  H135  1  0.83700000  0.02850000  0.27790000  1.0 0.0771456631
H  H136  1  0.82600000  0.05050000  0.32890000  1.0 0.0996966031
H  H137  1  0.79310000  0.16190000  0.29580000  1.0 0.0704844409
H  H138  1  0.65210000  0.06370000  0.34030000  1.0 0.0898984774
H  H139  1  0.21860000  0.12910000  0.31050000  1.0 0.1198047041
H  H140  1  0.17610000  0.07700000  0.37590000  1.0 0.1198047041
H  H141  1  0.51130000  0.03290000  0.39080000  1.0 0.1256139642
H  H142  1  0.80100000  0.21490000  0.17330000  1.0 0.0898984774
H  H143  1  0.35920000  0.25570000  0.13490000  1.0 0.10924182
H  H144  1  0.42830000  0.31710000  0.07890000  1.0 0.1198047041
H  H145  1  0.75370000  0.28310000  0.11530000  1.0 0.1198047041
H  H146  1  0.23160000  0.30830000  0.33650000  1.0 0.1486155307
H  H147  1  0.14710000  0.25340000  0.32590000  1.0 0.2596977157
H  H148  1  0.81540000  0.18870000  0.27100000  1.0 0.0704844409
H  H149  1  0.94000000  0.15530000  0.19230000  1.0 0.0771456631
H  H150  1  0.89890000  0.08650000  0.20290000  1.0 0.0599799725
H  H151  1  0.99050000  0.15880000  0.28120000  1.0 0.0505560784
H  H152  1  0.08450000  0.12330000  0.25170000  1.0 0.0599799725
H  H153  1  0.94440000  0.03690000  0.25530000  1.0 0.0704844409
H  H154  1  0.02210000  0.04760000  0.29870000  1.0 0.0704844409
H  H155  1  0.85560000  0.12130000  0.32740000  1.0 0.0898984774
H  H156  1  0.81810000  0.05080000  0.32840000  1.0 0.0996966031
H  H157  1  0.76370000  0.06250000  0.24520000  1.0 0.0599799725
H  H158  1  0.68200000  0.81610000  0.45360000  1.0 0.0898984774
H  H159  1  0.83200000  0.80280000  0.55100000  1.0 0.0704844409
H  H160  1  0.90860000  0.74980000  0.53070000  1.0 0.0704844409
H  H161  1  0.80080000  0.73380000  0.56090000  1.0 0.0599799725
H  H162  1  0.68350000  0.70670000  0.45260000  1.0 0.0505560784
H  H163  1  0.70070000  0.67220000  0.49890000  1.0 0.0350702252
H  H164  1  0.80860000  0.68820000  0.46860000  1.0 0.0771456631
H  H165  1  0.50030000  0.32620000  0.92140000  1.0 0.301276221
H  H166  1  0.59260000  0.36860000  0.91570000  1.0 0.3242084822
H  H167  1  0.87730000  0.79480000  0.77960000  1.0 0.2447990505
H  H168  1  0.81510000  0.76380000  0.82100000  1.0 0.2141148588
H  H169  1  0.21700000  0.57880000  0.71500000  1.0 0.0704844409
H  H170  1  0.05740000  0.66980000  0.69930000  1.0 0.0771456631
H  H171  1  0.07000000  0.68540000  0.75190000  1.0 0.0599799725
H  H172  1  0.92640000  0.58900000  0.73320000  1.0 0.0599799725
H  H173  1  0.04460000  0.55170000  0.72890000  1.0 0.0704844409
H  H174  1  0.96870000  0.56590000  0.81210000  1.0 0.0599799725
H  H175  1  0.02120000  0.63320000  0.80730000  1.0 0.0704844409
H  H176  1  0.16300000  0.52850000  0.77790000  1.0 0.0771456631
H  H177  1  0.17400000  0.55050000  0.82890000  1.0 0.0996966031
H  H178  1  0.20690000  0.66190000  0.79580000  1.0 0.0704844409
H  H179  1  0.34790000  0.56370000  0.84030000  1.0 0.0898984774
H  H180  1  0.78140000  0.62910000  0.81050000  1.0 0.1198047041
H  H181  1  0.82390000  0.57700000  0.87590000  1.0 0.1198047041
H  H182  1  0.48870000  0.53290000  0.89080000  1.0 0.1256139642
H  H183  1  0.19900000  0.71490000  0.67330000  1.0 0.0898984774
H  H184  1  0.64080000  0.75570000  0.63490000  1.0 0.10924182
H  H185  1  0.57170000  0.81710000  0.57890000  1.0 0.1198047041
H  H186  1  0.24630000  0.78310000  0.61530000  1.0 0.1198047041
H  H187  1  0.76840000  0.80830000  0.83650000  1.0 0.1486155307
H  H188  1  0.85290000  0.75340000  0.82590000  1.0 0.2596977157
H  H189  1  0.18460000  0.68870000  0.77100000  1.0 0.0704844409
H  H190  1  0.06000000  0.65530000  0.69230000  1.0 0.0771456631
H  H191  1  0.10110000  0.58650000  0.70290000  1.0 0.0599799725
H  H192  1  0.00950000  0.65880000  0.78120000  1.0 0.0505560784
H  H193  1  0.91550000  0.62330000  0.75170000  1.0 0.0599799725
H  H194  1  0.05560000  0.53690000  0.75530000  1.0 0.0704844409
H  H195  1  0.97790000  0.54760000  0.79870000  1.0 0.0704844409
H  H196  1  0.14440000  0.62130000  0.82740000  1.0 0.0898984774
H  H197  1  0.18190000  0.55080000  0.82840000  1.0 0.0996966031
H  H198  1  0.23630000  0.56250000  0.74520000  1.0 0.0599799725
H  H199  1  0.31800000  0.31610000  0.95360000  1.0 0.0898984774
H  H200  1  0.16800000  0.30280000  0.05100000  1.0 0.0704844409
H  H201  1  0.09140000  0.24980000  0.03070000  1.0 0.0704844409
H  H202  1  0.19920000  0.23380000  0.06090000  1.0 0.0599799725
H  H203  1  0.31650000  0.20670000  0.95260000  1.0 0.0505560784
H  H204  1  0.29930000  0.17220000  0.99890000  1.0 0.0350702252
H  H205  1  0.19140000  0.18820000  0.96860000  1.0 0.0771456631
H  H206  1  0.99970000  0.32620000  0.07860000  1.0 0.301276221
H  H207  1  0.90740000  0.36860000  0.08430000  1.0 0.3242084822
H  H208  1  0.62270000  0.79480000  0.22040000  1.0 0.2447990505
H  H209  1  0.68490000  0.76380000  0.17900000  1.0 0.2141148588
H  H210  1  0.28300000  0.57880000  0.28500000  1.0 0.0704844409
H  H211  1  0.44260000  0.66980000  0.30070000  1.0 0.0771456631
H  H212  1  0.43000000  0.68540000  0.24810000  1.0 0.0599799725
H  H213  1  0.57360000  0.58900000  0.26680000  1.0 0.0599799725
H  H214  1  0.45540000  0.55170000  0.27110000  1.0 0.0704844409
H  H215  1  0.53130000  0.56590000  0.18790000  1.0 0.0599799725
H  H216  1  0.47880000  0.63320000  0.19270000  1.0 0.0704844409
H  H217  1  0.33700000  0.52850000  0.22210000  1.0 0.0771456631
H  H218  1  0.32600000  0.55050000  0.17110000  1.0 0.0996966031
H  H219  1  0.29310000  0.66190000  0.20420000  1.0 0.0704844409
H  H220  1  0.15210000  0.56370000  0.15970000  1.0 0.0898984774
H  H221  1  0.71860000  0.62910000  0.18950000  1.0 0.1198047041
H  H222  1  0.67610000  0.57700000  0.12410000  1.0 0.1198047041
H  H223  1  0.01130000  0.53290000  0.10920000  1.0 0.1256139642
H  H224  1  0.30100000  0.71490000  0.32670000  1.0 0.0898984774
H  H225  1  0.85920000  0.75570000  0.36510000  1.0 0.10924182
H  H226  1  0.92830000  0.81710000  0.42110000  1.0 0.1198047041
H  H227  1  0.25370000  0.78310000  0.38470000  1.0 0.1198047041
H  H228  1  0.73160000  0.80830000  0.16350000  1.0 0.1486155307
H  H229  1  0.64710000  0.75340000  0.17410000  1.0 0.2596977157
H  H230  1  0.31540000  0.68870000  0.22900000  1.0 0.0704844409
H  H231  1  0.44000000  0.65530000  0.30770000  1.0 0.0771456631
H  H232  1  0.39890000  0.58650000  0.29710000  1.0 0.0599799725
H  H233  1  0.49050000  0.65880000  0.21880000  1.0 0.0505560784
H  H234  1  0.58450000  0.62330000  0.24830000  1.0 0.0599799725
H  H235  1  0.44440000  0.53690000  0.24470000  1.0 0.0704844409
H  H236  1  0.52210000  0.54760000  0.20130000  1.0 0.0704844409
H  H237  1  0.35560000  0.62130000  0.17260000  1.0 0.0898984774
H  H238  1  0.31810000  0.55080000  0.17160000  1.0 0.0996966031
H  H239  1  0.26370000  0.56250000  0.25480000  1.0 0.0599799725
H  H240  1  0.18200000  0.31610000  0.04640000  1.0 0.0898984774
H  H241  1  0.33200000  0.30280000  0.94900000  1.0 0.0704844409
H  H242  1  0.40860000  0.24980000  0.96930000  1.0 0.0704844409
H  H243  1  0.30080000  0.23380000  0.93910000  1.0 0.0599799725
H  H244  1  0.18350000  0.20670000  0.04740000  1.0 0.0505560784
H  H245  1  0.20070000  0.17220000  0.00110000  1.0 0.0350702252
H  H246  1  0.30860000  0.18820000  0.03140000  1.0 0.0771456631
H  H247  1  0.99970000  0.17380000  0.42140000  1.0 0.301276221
H  H248  1  0.90740000  0.13140000  0.41570000  1.0 0.3242084822
H  H249  1  0.62270000  0.70520000  0.27960000  1.0 0.2447990505
H  H250  1  0.68490000  0.73620000  0.32100000  1.0 0.2141148588
H  H251  1  0.28300000  0.92120000  0.21500000  1.0 0.0704844409
H  H252  1  0.44260000  0.83020000  0.19930000  1.0 0.0771456631
H  H253  1  0.43000000  0.81460000  0.25190000  1.0 0.0599799725
H  H254  1  0.57360000  0.91100000  0.23320000  1.0 0.0599799725
H  H255  1  0.45540000  0.94830000  0.22890000  1.0 0.0704844409
H  H256  1  0.53130000  0.93410000  0.31210000  1.0 0.0599799725
H  H257  1  0.47880000  0.86680000  0.30730000  1.0 0.0704844409
H  H258  1  0.33700000  0.97150000  0.27790000  1.0 0.0771456631
H  H259  1  0.32600000  0.94950000  0.32890000  1.0 0.0996966031
H  H260  1  0.29310000  0.83810000  0.29580000  1.0 0.0704844409
H  H261  1  0.15210000  0.93630000  0.34030000  1.0 0.0898984774
H  H262  1  0.71860000  0.87090000  0.31050000  1.0 0.1198047041
H  H263  1  0.67610000  0.92300000  0.37590000  1.0 0.1198047041
H  H264  1  0.01130000  0.96710000  0.39080000  1.0 0.1256139642
H  H265  1  0.30100000  0.78510000  0.17330000  1.0 0.0898984774
H  H266  1  0.85920000  0.74430000  0.13490000  1.0 0.10924182
H  H267  1  0.92830000  0.68290000  0.07890000  1.0 0.1198047041
H  H268  1  0.25370000  0.71690000  0.11530000  1.0 0.1198047041
H  H269  1  0.73160000  0.69170000  0.33650000  1.0 0.1486155307
H  H270  1  0.64710000  0.74660000  0.32590000  1.0 0.2596977157
H  H271  1  0.31540000  0.81130000  0.27100000  1.0 0.0704844409
H  H272  1  0.44000000  0.84470000  0.19230000  1.0 0.0771456631
H  H273  1  0.39890000  0.91350000  0.20290000  1.0 0.0599799725
H  H274  1  0.49050000  0.84120000  0.28120000  1.0 0.0505560784
H  H275  1  0.58450000  0.87670000  0.25170000  1.0 0.0599799725
H  H276  1  0.44440000  0.96310000  0.25530000  1.0 0.0704844409
H  H277  1  0.52210000  0.95240000  0.29870000  1.0 0.0704844409
H  H278  1  0.35560000  0.87870000  0.32740000  1.0 0.0898984774
H  H279  1  0.31810000  0.94920000  0.32840000  1.0 0.0996966031
H  H280  1  0.26370000  0.93750000  0.24520000  1.0 0.0599799725
H  H281  1  0.18200000  0.18390000  0.45360000  1.0 0.0898984774
H  H282  1  0.33200000  0.19720000  0.55100000  1.0 0.0704844409
H  H283  1  0.40860000  0.25020000  0.53070000  1.0 0.0704844409
H  H284  1  0.30080000  0.26620000  0.56090000  1.0 0.0599799725
H  H285  1  0.18350000  0.29330000  0.45260000  1.0 0.0505560784
H  H286  1  0.20070000  0.32780000  0.49890000  1.0 0.0350702252
H  H287  1  0.30860000  0.31180000  0.46860000  1.0 0.0771456631
H  H288  1  0.50030000  0.17380000  0.57860000  1.0 0.301276221
H  H289  1  0.59260000  0.13140000  0.58430000  1.0 0.3242084822
H  H290  1  0.87730000  0.70520000  0.72040000  1.0 0.2447990505
H  H291  1  0.81510000  0.73620000  0.67900000  1.0 0.2141148588
H  H292  1  0.21700000  0.92120000  0.78500000  1.0 0.0704844409
H  H293  1  0.05740000  0.83020000  0.80070000  1.0 0.0771456631
H  H294  1  0.07000000  0.81460000  0.74810000  1.0 0.0599799725
H  H295  1  0.92640000  0.91100000  0.76680000  1.0 0.0599799725
H  H296  1  0.04460000  0.94830000  0.77110000  1.0 0.0704844409
H  H297  1  0.96870000  0.93410000  0.68790000  1.0 0.0599799725
H  H298  1  0.02120000  0.86680000  0.69270000  1.0 0.0704844409
H  H299  1  0.16300000  0.97150000  0.72210000  1.0 0.0771456631
H  H300  1  0.17400000  0.94950000  0.67110000  1.0 0.0996966031
H  H301  1  0.20690000  0.83810000  0.70420000  1.0 0.0704844409
H  H302  1  0.34790000  0.93630000  0.65970000  1.0 0.0898984774
H  H303  1  0.78140000  0.87090000  0.68950000  1.0 0.1198047041
H  H304  1  0.82390000  0.92300000  0.62410000  1.0 0.1198047041
H  H305  1  0.48870000  0.96710000  0.60920000  1.0 0.1256139642
H  H306  1  0.19900000  0.78510000  0.82670000  1.0 0.0898984774
H  H307  1  0.64080000  0.74430000  0.86510000  1.0 0.10924182
H  H308  1  0.57170000  0.68290000  0.92110000  1.0 0.1198047041
H  H309  1  0.24630000  0.71690000  0.88470000  1.0 0.1198047041
H  H310  1  0.76840000  0.69170000  0.66350000  1.0 0.1486155307
H  H311  1  0.85290000  0.74660000  0.67410000  1.0 0.2596977157
H  H312  1  0.18460000  0.81130000  0.72900000  1.0 0.0704844409
H  H313  1  0.06000000  0.84470000  0.80770000  1.0 0.0771456631
H  H314  1  0.10110000  0.91350000  0.79710000  1.0 0.0599799725
H  H315  1  0.00950000  0.84120000  0.71880000  1.0 0.0505560784
H  H316  1  0.91550000  0.87670000  0.74830000  1.0 0.0599799725
H  H317  1  0.05560000  0.96310000  0.74470000  1.0 0.0704844409
H  H318  1  0.97790000  0.95240000  0.70130000  1.0 0.0704844409
H  H319  1  0.14440000  0.87870000  0.67260000  1.0 0.0898984774
H  H320  1  0.18190000  0.94920000  0.67160000  1.0 0.0996966031
H  H321  1  0.23630000  0.93750000  0.75480000  1.0 0.0599799725
H  H322  1  0.31800000  0.18390000  0.54640000  1.0 0.0898984774
H  H323  1  0.16800000  0.19720000  0.44900000  1.0 0.0704844409
H  H324  1  0.09140000  0.25020000  0.46930000  1.0 0.0704844409
H  H325  1  0.19920000  0.26620000  0.43910000  1.0 0.0599799725
H  H326  1  0.31650000  0.29330000  0.54740000  1.0 0.0505560784
H  H327  1  0.29930000  0.32780000  0.50110000  1.0 0.0350702252
H  H328  1  0.19140000  0.31180000  0.53140000  1.0 0.0771456631
C  C1  1  0.79020000  0.38080000  0.27040000  1.0 0.0187041876
C  C2  1  0.92180000  0.34630000  0.27110000  1.0 -0.1123976623
C  C3  1  0.99240000  0.41230000  0.25800000  1.0 -0.0800877246
C  C4  1  0.97550000  0.40880000  0.20400000  1.0 -0.0881522158
C  C5  1  0.84630000  0.43690000  0.20170000  1.0 -0.0984806626
C  C6  1  0.76980000  0.37720000  0.21810000  1.0 0.0350702252
C  C7  1  0.60000000  0.41670000  0.17910000  1.0 -0.1664262162
C  C8  1  0.48000000  0.41800000  0.16623000  1.0 -0.069855052
C  C9  1  0.39140000  0.38700000  0.19067000  1.0 0.2508624634
C  C10  1  0.27820000  0.39030000  0.17370000  1.0 -0.3197518745
C  C11  1  0.25250000  0.42130000  0.13430000  1.0 -0.1979866782
C  C12  1  0.34040000  0.45030000  0.10951000  1.0 -0.0389237599
C  C13  1  0.45240000  0.44810000  0.12567000  1.0 -0.1217459449
C  C14  1  0.31050000  0.48410000  0.06653000  1.0 0.5716397902
C  C15  1  0.72390000  0.29190000  0.31870000  1.0 -0.2145342027
C  C16  1  0.63580000  0.26070000  0.34450000  1.0 -0.069855052
C  C17  1  0.51580000  0.26750000  0.33670000  1.0 0.3242084822
C  C18  1  0.43890000  0.23840000  0.36790000  1.0 -0.239470096
C  C19  1  0.48070000  0.20200000  0.40166000  1.0 -0.0800877246
C  C20  1  0.59940000  0.19200000  0.40835000  1.0 -0.0559718208
C  C21  1  0.67430000  0.22190000  0.38029000  1.0 -0.13687116
C  C22  1  0.64260000  0.14810000  0.44294000  1.0 0.5821555695
C  C23  1  0.79650000  0.34370000  0.25100000  1.0 0.0050577782
C  C24  1  0.91440000  0.37310000  0.28430000  1.0 -0.1123976623
C  C25  1  0.00340000  0.37530000  0.23950000  1.0 -0.0984806626
C  C26  1  0.96330000  0.43420000  0.22070000  1.0 -0.0881522158
C  C27  1  0.84450000  0.41560000  0.19070000  1.0 -0.0984806626
C  C28  1  0.76160000  0.40420000  0.23230000  1.0 0.0334763853
C  C29  1  0.72210000  0.68430000  0.01780000  1.0 0.0505560784
C  C30  1  0.83100000  0.73820000  0.96130000  1.0 -0.1979866782
C  C31  1  0.73300000  0.79800000  0.02150000  1.0 -0.1299321092
C  C32  1  0.70980000  0.38080000  0.72960000  1.0 0.0187041876
C  C33  1  0.57820000  0.34630000  0.72890000  1.0 -0.1123976623
C  C34  1  0.50760000  0.41230000  0.74200000  1.0 -0.0800877246
C  C35  1  0.52450000  0.40880000  0.79600000  1.0 -0.0881522158
C  C36  1  0.65370000  0.43690000  0.79830000  1.0 -0.0984806626
C  C37  1  0.73020000  0.37720000  0.78190000  1.0 0.0350702252
C  C38  1  0.90000000  0.41670000  0.82090000  1.0 -0.1664262162
C  C39  1  0.02000000  0.41800000  0.83377000  1.0 -0.069855052
C  C40  1  0.10860000  0.38700000  0.80933000  1.0 0.2508624634
C  C41  1  0.22180000  0.39030000  0.82630000  1.0 -0.3197518745
C  C42  1  0.24750000  0.42130000  0.86570000  1.0 -0.1979866782
C  C43  1  0.15960000  0.45030000  0.89049000  1.0 -0.0389237599
C  C44  1  0.04760000  0.44810000  0.87433000  1.0 -0.1217459449
C  C45  1  0.18950000  0.48410000  0.93347000  1.0 0.5716397902
C  C46  1  0.77610000  0.29190000  0.68130000  1.0 -0.2145342027
C  C47  1  0.86420000  0.26070000  0.65550000  1.0 -0.069855052
C  C48  1  0.98420000  0.26750000  0.66330000  1.0 0.3242084822
C  C49  1  0.06110000  0.23840000  0.63210000  1.0 -0.239470096
C  C50  1  0.01930000  0.20200000  0.59834000  1.0 -0.0800877246
C  C51  1  0.90060000  0.19200000  0.59165000  1.0 -0.0559718208
C  C52  1  0.82570000  0.22190000  0.61971000  1.0 -0.13687116
C  C53  1  0.85740000  0.14810000  0.55706000  1.0 0.5821555695
C  C54  1  0.70350000  0.34370000  0.74900000  1.0 0.0050577782
C  C55  1  0.58560000  0.37310000  0.71570000  1.0 -0.1123976623
C  C56  1  0.49660000  0.37530000  0.76050000  1.0 -0.0984806626
C  C57  1  0.53670000  0.43420000  0.77930000  1.0 -0.0881522158
C  C58  1  0.65550000  0.41560000  0.80930000  1.0 -0.0984806626
C  C59  1  0.73840000  0.40420000  0.76770000  1.0 0.0334763853
C  C60  1  0.77790000  0.68430000  0.98220000  1.0 0.0505560784
C  C61  1  0.66900000  0.73820000  0.03870000  1.0 -0.1979866782
C  C62  1  0.76700000  0.79800000  0.97850000  1.0 -0.1299321092
C  C63  1  0.70980000  0.11920000  0.77040000  1.0 0.0187041876
C  C64  1  0.57820000  0.15370000  0.77110000  1.0 -0.1123976623
C  C65  1  0.50760000  0.08770000  0.75800000  1.0 -0.0800877246
C  C66  1  0.52450000  0.09120000  0.70400000  1.0 -0.0881522158
C  C67  1  0.65370000  0.06310000  0.70170000  1.0 -0.0984806626
C  C68  1  0.73020000  0.12280000  0.71810000  1.0 0.0350702252
C  C69  1  0.90000000  0.08330000  0.67910000  1.0 -0.1664262162
C  C70  1  0.02000000  0.08200000  0.66623000  1.0 -0.069855052
C  C71  1  0.10860000  0.11300000  0.69067000  1.0 0.2508624634
C  C72  1  0.22180000  0.10970000  0.67370000  1.0 -0.3197518745
C  C73  1  0.24750000  0.07870000  0.63430000  1.0 -0.1979866782
C  C74  1  0.15960000  0.04970000  0.60951000  1.0 -0.0389237599
C  C75  1  0.04760000  0.05190000  0.62567000  1.0 -0.1217459449
C  C76  1  0.18950000  0.01590000  0.56653000  1.0 0.5716397902
C  C77  1  0.77610000  0.20810000  0.81870000  1.0 -0.2145342027
C  C78  1  0.86420000  0.23930000  0.84450000  1.0 -0.069855052
C  C79  1  0.98420000  0.23250000  0.83670000  1.0 0.3242084822
C  C80  1  0.06110000  0.26160000  0.86790000  1.0 -0.239470096
C  C81  1  0.01930000  0.29800000  0.90166000  1.0 -0.0800877246
C  C82  1  0.90060000  0.30800000  0.90835000  1.0 -0.0559718208
C  C83  1  0.82570000  0.27810000  0.88029000  1.0 -0.13687116
C  C84  1  0.85740000  0.35190000  0.94294000  1.0 0.5821555695
C  C85  1  0.70350000  0.15630000  0.75100000  1.0 0.0050577782
C  C86  1  0.58560000  0.12690000  0.78430000  1.0 -0.1123976623
C  C87  1  0.49660000  0.12470000  0.73950000  1.0 -0.0984806626
C  C88  1  0.53670000  0.06580000  0.72070000  1.0 -0.0881522158
C  C89  1  0.65550000  0.08440000  0.69070000  1.0 -0.0984806626
C  C90  1  0.73840000  0.09580000  0.73230000  1.0 0.0334763853
C  C91  1  0.77790000  0.81570000  0.51780000  1.0 0.0505560784
C  C92  1  0.66900000  0.76180000  0.46130000  1.0 -0.1979866782
C  C93  1  0.76700000  0.70200000  0.52150000  1.0 -0.1299321092
C  C94  1  0.79020000  0.11920000  0.22960000  1.0 0.0187041876
C  C95  1  0.92180000  0.15370000  0.22890000  1.0 -0.1123976623
C  C96  1  0.99240000  0.08770000  0.24200000  1.0 -0.0800877246
C  C97  1  0.97550000  0.09120000  0.29600000  1.0 -0.0881522158
C  C98  1  0.84630000  0.06310000  0.29830000  1.0 -0.0984806626
C  C99  1  0.76980000  0.12280000  0.28190000  1.0 0.0350702252
C  C100  1  0.60000000  0.08330000  0.32090000  1.0 -0.1664262162
C  C101  1  0.48000000  0.08200000  0.33377000  1.0 -0.069855052
C  C102  1  0.39140000  0.11300000  0.30933000  1.0 0.2508624634
C  C103  1  0.27820000  0.10970000  0.32630000  1.0 -0.3197518745
C  C104  1  0.25250000  0.07870000  0.36570000  1.0 -0.1979866782
C  C105  1  0.34040000  0.04970000  0.39049000  1.0 -0.0389237599
C  C106  1  0.45240000  0.05190000  0.37433000  1.0 -0.1217459449
C  C107  1  0.31050000  0.01590000  0.43347000  1.0 0.5716397902
C  C108  1  0.72390000  0.20810000  0.18130000  1.0 -0.2145342027
C  C109  1  0.63580000  0.23930000  0.15550000  1.0 -0.069855052
C  C110  1  0.51580000  0.23250000  0.16330000  1.0 0.3242084822
C  C111  1  0.43890000  0.26160000  0.13210000  1.0 -0.239470096
C  C112  1  0.48070000  0.29800000  0.09834000  1.0 -0.0800877246
C  C113  1  0.59940000  0.30800000  0.09165000  1.0 -0.0559718208
C  C114  1  0.67430000  0.27810000  0.11971000  1.0 -0.13687116
C  C115  1  0.64260000  0.35190000  0.05706000  1.0 0.5821555695
C  C116  1  0.79650000  0.15630000  0.24900000  1.0 0.0050577782
C  C117  1  0.91440000  0.12690000  0.21570000  1.0 -0.1123976623
C  C118  1  0.00340000  0.12470000  0.26050000  1.0 -0.0984806626
C  C119  1  0.96330000  0.06580000  0.27930000  1.0 -0.0881522158
C  C120  1  0.84450000  0.08440000  0.30930000  1.0 -0.0984806626
C  C121  1  0.76160000  0.09580000  0.26770000  1.0 0.0334763853
C  C122  1  0.72210000  0.81570000  0.48220000  1.0 0.0505560784
C  C123  1  0.83100000  0.76180000  0.53870000  1.0 -0.1979866782
C  C124  1  0.73300000  0.70200000  0.47850000  1.0 -0.1299321092
C  C125  1  0.20980000  0.61920000  0.72960000  1.0 0.0187041876
C  C126  1  0.07820000  0.65370000  0.72890000  1.0 -0.1123976623
C  C127  1  0.00760000  0.58770000  0.74200000  1.0 -0.0800877246
C  C128  1  0.02450000  0.59120000  0.79600000  1.0 -0.0881522158
C  C129  1  0.15370000  0.56310000  0.79830000  1.0 -0.0984806626
C  C130  1  0.23020000  0.62280000  0.78190000  1.0 0.0350702252
C  C131  1  0.40000000  0.58330000  0.82090000  1.0 -0.1664262162
C  C132  1  0.52000000  0.58200000  0.83377000  1.0 -0.069855052
C  C133  1  0.60860000  0.61300000  0.80933000  1.0 0.2508624634
C  C134  1  0.72180000  0.60970000  0.82630000  1.0 -0.3197518745
C  C135  1  0.74750000  0.57870000  0.86570000  1.0 -0.1979866782
C  C136  1  0.65960000  0.54970000  0.89049000  1.0 -0.0389237599
C  C137  1  0.54760000  0.55190000  0.87433000  1.0 -0.1217459449
C  C138  1  0.68950000  0.51590000  0.93347000  1.0 0.5716397902
C  C139  1  0.27610000  0.70810000  0.68130000  1.0 -0.2145342027
C  C140  1  0.36420000  0.73930000  0.65550000  1.0 -0.069855052
C  C141  1  0.48420000  0.73250000  0.66330000  1.0 0.3242084822
C  C142  1  0.56110000  0.76160000  0.63210000  1.0 -0.239470096
C  C143  1  0.51930000  0.79800000  0.59834000  1.0 -0.0800877246
C  C144  1  0.40060000  0.80800000  0.59165000  1.0 -0.0559718208
C  C145  1  0.32570000  0.77810000  0.61971000  1.0 -0.13687116
C  C146  1  0.35740000  0.85190000  0.55706000  1.0 0.5821555695
C  C147  1  0.20350000  0.65630000  0.74900000  1.0 0.0050577782
C  C148  1  0.08560000  0.62690000  0.71570000  1.0 -0.1123976623
C  C149  1  0.99660000  0.62470000  0.76050000  1.0 -0.0984806626
C  C150  1  0.03670000  0.56580000  0.77930000  1.0 -0.0881522158
C  C151  1  0.15550000  0.58440000  0.80930000  1.0 -0.0984806626
C  C152  1  0.23840000  0.59580000  0.76770000  1.0 0.0334763853
C  C153  1  0.27790000  0.31570000  0.98220000  1.0 0.0505560784
C  C154  1  0.16900000  0.26180000  0.03870000  1.0 -0.1979866782
C  C155  1  0.26700000  0.20200000  0.97850000  1.0 -0.1299321092
C  C156  1  0.29020000  0.61920000  0.27040000  1.0 0.0187041876
C  C157  1  0.42180000  0.65370000  0.27110000  1.0 -0.1123976623
C  C158  1  0.49240000  0.58770000  0.25800000  1.0 -0.0800877246
C  C159  1  0.47550000  0.59120000  0.20400000  1.0 -0.0881522158
C  C160  1  0.34630000  0.56310000  0.20170000  1.0 -0.0984806626
C  C161  1  0.26980000  0.62280000  0.21810000  1.0 0.0350702252
C  C162  1  0.10000000  0.58330000  0.17910000  1.0 -0.1664262162
C  C163  1  0.98000000  0.58200000  0.16623000  1.0 -0.069855052
C  C164  1  0.89140000  0.61300000  0.19067000  1.0 0.2508624634
C  C165  1  0.77820000  0.60970000  0.17370000  1.0 -0.3197518745
C  C166  1  0.75250000  0.57870000  0.13430000  1.0 -0.1979866782
C  C167  1  0.84040000  0.54970000  0.10951000  1.0 -0.0389237599
C  C168  1  0.95240000  0.55190000  0.12567000  1.0 -0.1217459449
C  C169  1  0.81050000  0.51590000  0.06653000  1.0 0.5716397902
C  C170  1  0.22390000  0.70810000  0.31870000  1.0 -0.2145342027
C  C171  1  0.13580000  0.73930000  0.34450000  1.0 -0.069855052
C  C172  1  0.01580000  0.73250000  0.33670000  1.0 0.3242084822
C  C173  1  0.93890000  0.76160000  0.36790000  1.0 -0.239470096
C  C174  1  0.98070000  0.79800000  0.40166000  1.0 -0.0800877246
C  C175  1  0.09940000  0.80800000  0.40835000  1.0 -0.0559718208
C  C176  1  0.17430000  0.77810000  0.38029000  1.0 -0.13687116
C  C177  1  0.14260000  0.85190000  0.44294000  1.0 0.5821555695
C  C178  1  0.29650000  0.65630000  0.25100000  1.0 0.0050577782
C  C179  1  0.41440000  0.62690000  0.28430000  1.0 -0.1123976623
C  C180  1  0.50340000  0.62470000  0.23950000  1.0 -0.0984806626
C  C181  1  0.46330000  0.56580000  0.22070000  1.0 -0.0881522158
C  C182  1  0.34450000  0.58440000  0.19070000  1.0 -0.0984806626
C  C183  1  0.26160000  0.59580000  0.23230000  1.0 0.0334763853
C  C184  1  0.22210000  0.31570000  0.01780000  1.0 0.0505560784
C  C185  1  0.33100000  0.26180000  0.96130000  1.0 -0.1979866782
C  C186  1  0.23300000  0.20200000  0.02150000  1.0 -0.1299321092
C  C187  1  0.29020000  0.88080000  0.22960000  1.0 0.0187041876
C  C188  1  0.42180000  0.84630000  0.22890000  1.0 -0.1123976623
C  C189  1  0.49240000  0.91230000  0.24200000  1.0 -0.0800877246
C  C190  1  0.47550000  0.90880000  0.29600000  1.0 -0.0881522158
C  C191  1  0.34630000  0.93690000  0.29830000  1.0 -0.0984806626
C  C192  1  0.26980000  0.87720000  0.28190000  1.0 0.0350702252
C  C193  1  0.10000000  0.91670000  0.32090000  1.0 -0.1664262162
C  C194  1  0.98000000  0.91800000  0.33377000  1.0 -0.069855052
C  C195  1  0.89140000  0.88700000  0.30933000  1.0 0.2508624634
C  C196  1  0.77820000  0.89030000  0.32630000  1.0 -0.3197518745
C  C197  1  0.75250000  0.92130000  0.36570000  1.0 -0.1979866782
C  C198  1  0.84040000  0.95030000  0.39049000  1.0 -0.0389237599
C  C199  1  0.95240000  0.94810000  0.37433000  1.0 -0.1217459449
C  C200  1  0.81050000  0.98410000  0.43347000  1.0 0.5716397902
C  C201  1  0.22390000  0.79190000  0.18130000  1.0 -0.2145342027
C  C202  1  0.13580000  0.76070000  0.15550000  1.0 -0.069855052
C  C203  1  0.01580000  0.76750000  0.16330000  1.0 0.3242084822
C  C204  1  0.93890000  0.73840000  0.13210000  1.0 -0.239470096
C  C205  1  0.98070000  0.70200000  0.09834000  1.0 -0.0800877246
C  C206  1  0.09940000  0.69200000  0.09165000  1.0 -0.0559718208
C  C207  1  0.17430000  0.72190000  0.11971000  1.0 -0.13687116
C  C208  1  0.14260000  0.64810000  0.05706000  1.0 0.5821555695
C  C209  1  0.29650000  0.84370000  0.24900000  1.0 0.0050577782
C  C210  1  0.41440000  0.87310000  0.21570000  1.0 -0.1123976623
C  C211  1  0.50340000  0.87530000  0.26050000  1.0 -0.0984806626
C  C212  1  0.46330000  0.93420000  0.27930000  1.0 -0.0881522158
C  C213  1  0.34450000  0.91560000  0.30930000  1.0 -0.0984806626
C  C214  1  0.26160000  0.90420000  0.26770000  1.0 0.0334763853
C  C215  1  0.22210000  0.18430000  0.48220000  1.0 0.0505560784
C  C216  1  0.33100000  0.23820000  0.53870000  1.0 -0.1979866782
C  C217  1  0.23300000  0.29800000  0.47850000  1.0 -0.1299321092
C  C218  1  0.20980000  0.88080000  0.77040000  1.0 0.0187041876
C  C219  1  0.07820000  0.84630000  0.77110000  1.0 -0.1123976623
C  C220  1  0.00760000  0.91230000  0.75800000  1.0 -0.0800877246
C  C221  1  0.02450000  0.90880000  0.70400000  1.0 -0.0881522158
C  C222  1  0.15370000  0.93690000  0.70170000  1.0 -0.0984806626
C  C223  1  0.23020000  0.87720000  0.71810000  1.0 0.0350702252
C  C224  1  0.40000000  0.91670000  0.67910000  1.0 -0.1664262162
C  C225  1  0.52000000  0.91800000  0.66623000  1.0 -0.069855052
C  C226  1  0.60860000  0.88700000  0.69067000  1.0 0.2508624634
C  C227  1  0.72180000  0.89030000  0.67370000  1.0 -0.3197518745
C  C228  1  0.74750000  0.92130000  0.63430000  1.0 -0.1979866782
C  C229  1  0.65960000  0.95030000  0.60951000  1.0 -0.0389237599
C  C230  1  0.54760000  0.94810000  0.62567000  1.0 -0.1217459449
C  C231  1  0.68950000  0.98410000  0.56653000  1.0 0.5716397902
C  C232  1  0.27610000  0.79190000  0.81870000  1.0 -0.2154575893
C  C233  1  0.36420000  0.76070000  0.84450000  1.0 -0.069855052
C  C234  1  0.48420000  0.76750000  0.83670000  1.0 0.3242084822
C  C235  1  0.56110000  0.73840000  0.86790000  1.0 -0.239470096
C  C236  1  0.51930000  0.70200000  0.90166000  1.0 -0.0800877246
C  C237  1  0.40060000  0.69200000  0.90835000  1.0 -0.0559718208
C  C238  1  0.32570000  0.72190000  0.88029000  1.0 -0.13687116
C  C239  1  0.35740000  0.64810000  0.94294000  1.0 0.5821555695
C  C240  1  0.20350000  0.84370000  0.75100000  1.0 0.0050577782
C  C241  1  0.08560000  0.87310000  0.78430000  1.0 -0.1123976623
C  C242  1  0.99660000  0.87530000  0.73950000  1.0 -0.0984806626
C  C243  1  0.03670000  0.93420000  0.72070000  1.0 -0.0881522158
C  C244  1  0.15550000  0.91560000  0.69070000  1.0 -0.0984806626
C  C245  1  0.23840000  0.90420000  0.73230000  1.0 0.0334763853
C  C246  1  0.27790000  0.18430000  0.51780000  1.0 0.0505560784
C  C247  1  0.16900000  0.23820000  0.46130000  1.0 -0.1979866782
C  C248  1  0.26700000  0.29800000  0.52150000  1.0 -0.1299321092
N  N1  1  0.64230000  0.39120000  0.21459000  1.0 -0.239470096
N  N2  1  0.70320000  0.32930000  0.28464000  1.0 -0.2294577164
N  N3  1  0.85770000  0.39120000  0.78541000  1.0 -0.239470096
N  N4  1  0.79680000  0.32930000  0.71536000  1.0 -0.2294577164
N  N5  1  0.85770000  0.10880000  0.71459000  1.0 -0.239470096
N  N6  1  0.79680000  0.17070000  0.78464000  1.0 -0.2294577164
N  N7  1  0.64230000  0.10880000  0.28541000  1.0 -0.239470096
N  N8  1  0.70320000  0.17070000  0.21536000  1.0 -0.2294577164
N  N9  1  0.35770000  0.60880000  0.78541000  1.0 -0.239470096
N  N10  1  0.29680000  0.67070000  0.71536000  1.0 -0.2294577164
N  N11  1  0.14230000  0.60880000  0.21459000  1.0 -0.239470096
N  N12  1  0.20320000  0.67070000  0.28464000  1.0 -0.2294577164
N  N13  1  0.14230000  0.89120000  0.28541000  1.0 -0.239470096
N  N14  1  0.20320000  0.82930000  0.21536000  1.0 -0.2294577164
N  N15  1  0.35770000  0.89120000  0.71459000  1.0 -0.239470096
N  N16  1  0.29680000  0.82930000  0.78464000  1.0 -0.2294577164
N  N17  1  0.75000000  0.73870000  0.00000000  1.0 -0.0289114788
N  N18  1  0.75000000  0.76130000  0.50000000  1.0 -0.0289114788
N  N19  1  0.25000000  0.26130000  0.00000000  1.0 -0.0289114788
N  N20  1  0.25000000  0.23870000  0.50000000  1.0 -0.0289114788
O  O1  1  0.48660000  0.63250000  0.08274000  1.0 -0.7500688964
O  O2  1  0.16420000  0.24110000  0.21030000  1.0 -0.3556733289
O  O3  1  0.40930000  0.35560000  0.22870000  1.0 -0.5389773556
O  O4  1  0.47110000  0.29660000  0.30238000  1.0 -0.5389773556
O  O5  1  0.39200000  0.50559000  0.04244000  1.0 -0.6361894244
O  O6  1  0.20510000  0.49189000  0.05724000  1.0 -0.584013299
O  O7  1  0.75020000  0.13610000  0.44306000  1.0 -0.5485810125
O  O8  1  0.57350000  0.12303000  0.46996000  1.0 -0.5908926883
O  O9  1  0.18750000  0.21190000  0.18680000  1.0 -0.239470096
O  O10  1  0.01340000  0.63250000  0.91726000  1.0 -0.7500688964
O  O11  1  0.33580000  0.24110000  0.78970000  1.0 -0.3556733289
O  O12  1  0.09070000  0.35560000  0.77130000  1.0 -0.5389773556
O  O13  1  0.02890000  0.29660000  0.69762000  1.0 -0.5389773556
O  O14  1  0.10800000  0.50559000  0.95756000  1.0 -0.6361894244
O  O15  1  0.29490000  0.49189000  0.94276000  1.0 -0.584013299
O  O16  1  0.74980000  0.13610000  0.55694000  1.0 -0.5485810125
O  O17  1  0.92650000  0.12303000  0.53004000  1.0 -0.5908926883
O  O18  1  0.31250000  0.21190000  0.81320000  1.0 -0.239470096
O  O19  1  0.01340000  0.86750000  0.58274000  1.0 -0.7500688964
O  O20  1  0.33580000  0.25890000  0.71030000  1.0 -0.3556733289
O  O21  1  0.09070000  0.14440000  0.72870000  1.0 -0.5389773556
O  O22  1  0.02890000  0.20340000  0.80238000  1.0 -0.5389773556
O  O23  1  0.10800000  0.99441000  0.54244000  1.0 -0.6361894244
O  O24  1  0.29490000  0.00811000  0.55724000  1.0 -0.584013299
O  O25  1  0.74980000  0.36390000  0.94306000  1.0 -0.5485810125
O  O26  1  0.92650000  0.37697000  0.96996000  1.0 -0.5908926883
O  O27  1  0.31250000  0.28810000  0.68680000  1.0 -0.239470096
O  O28  1  0.48660000  0.86750000  0.41726000  1.0 -0.7500688964
O  O29  1  0.16420000  0.25890000  0.28970000  1.0 -0.3556733289
O  O30  1  0.40930000  0.14440000  0.27130000  1.0 -0.5389773556
O  O31  1  0.47110000  0.20340000  0.19762000  1.0 -0.5389773556
O  O32  1  0.39200000  0.99441000  0.45756000  1.0 -0.6361894244
O  O33  1  0.20510000  0.00811000  0.44276000  1.0 -0.584013299
O  O34  1  0.75020000  0.36390000  0.05694000  1.0 -0.5485810125
O  O35  1  0.57350000  0.37697000  0.03004000  1.0 -0.5908926883
O  O36  1  0.18750000  0.28810000  0.31320000  1.0 -0.239470096
O  O37  1  0.51340000  0.36750000  0.91726000  1.0 -0.7500688964
O  O38  1  0.83580000  0.75890000  0.78970000  1.0 -0.3556733289
O  O39  1  0.59070000  0.64440000  0.77130000  1.0 -0.5389773556
O  O40  1  0.52890000  0.70340000  0.69762000  1.0 -0.5389773556
O  O41  1  0.60800000  0.49441000  0.95756000  1.0 -0.6361894244
O  O42  1  0.79490000  0.50811000  0.94276000  1.0 -0.584013299
O  O43  1  0.24980000  0.86390000  0.55694000  1.0 -0.5485810125
O  O44  1  0.42650000  0.87697000  0.53004000  1.0 -0.5908926883
O  O45  1  0.81250000  0.78810000  0.81320000  1.0 -0.239470096
O  O46  1  0.98660000  0.36750000  0.08274000  1.0 -0.7500688964
O  O47  1  0.66420000  0.75890000  0.21030000  1.0 -0.3556733289
O  O48  1  0.90930000  0.64440000  0.22870000  1.0 -0.5389773556
O  O49  1  0.97110000  0.70340000  0.30238000  1.0 -0.5389773556
O  O50  1  0.89200000  0.49441000  0.04244000  1.0 -0.6361894244
O  O51  1  0.70510000  0.50811000  0.05724000  1.0 -0.584013299
O  O52  1  0.25020000  0.86390000  0.44306000  1.0 -0.5485810125
O  O53  1  0.07350000  0.87697000  0.46996000  1.0 -0.5908926883
O  O54  1  0.68750000  0.78810000  0.18680000  1.0 -0.239470096
O  O55  1  0.98660000  0.13250000  0.41726000  1.0 -0.7500688964
O  O56  1  0.66420000  0.74110000  0.28970000  1.0 -0.3556733289
O  O57  1  0.90930000  0.85560000  0.27130000  1.0 -0.5389773556
O  O58  1  0.97110000  0.79660000  0.19762000  1.0 -0.5389773556
O  O59  1  0.89200000  0.00559000  0.45756000  1.0 -0.6361894244
O  O60  1  0.70510000  0.99189000  0.44276000  1.0 -0.584013299
O  O61  1  0.25020000  0.63610000  0.05694000  1.0 -0.5485810125
O  O62  1  0.07350000  0.62303000  0.03004000  1.0 -0.5908926883
O  O63  1  0.68750000  0.71190000  0.31320000  1.0 -0.239470096
O  O64  1  0.51340000  0.13250000  0.58274000  1.0 -0.7500688964
O  O65  1  0.83580000  0.74110000  0.71030000  1.0 -0.3556733289
O  O66  1  0.59070000  0.85560000  0.72870000  1.0 -0.5389773556
O  O67  1  0.52890000  0.79660000  0.80238000  1.0 -0.5389773556
O  O68  1  0.60800000  0.00559000  0.54244000  1.0 -0.6361894244
O  O69  1  0.79490000  0.99189000  0.55724000  1.0 -0.584013299
O  O70  1  0.24980000  0.63610000  0.94306000  1.0 -0.5485810125
O  O71  1  0.42650000  0.62303000  0.96996000  1.0 -0.5908926883
O  O72  1  0.81250000  0.71190000  0.68680000  1.0 -0.239470096
O  O73  1  0.75000000  0.63320000  0.00000000  1.0 -0.3197518745
O  O74  1  0.75000000  0.86680000  0.50000000  1.0 -0.3197518745
O  O75  1  0.25000000  0.36680000  0.00000000  1.0 -0.3197518745
O  O76  1  0.25000000  0.13320000  0.50000000  1.0 -0.3197518745
