# DDEC6 charges by PACMAN v1.1 (https://github.com/mtap-research/PACMAN-charge/)
data_IDUYOX_ASR_pacman
_symmetry_space_group_name_H-M   'P 1'
_cell_length_a   10.65800000
_cell_length_b   18.46130000
_cell_length_c   21.09200000
_cell_angle_alpha   89.06800000
_cell_angle_beta   88.11900000
_cell_angle_gamma   85.21500000
_symmetry_Int_Tables_number   1
_chemical_formula_structural   Cu5H18C41O21
_chemical_formula_sum   'Cu10 H36 C82 O42'
_cell_volume   4132.99936565
_cell_formula_units_Z   2
loop_
 _symmetry_equiv_pos_site_id
 _symmetry_equiv_pos_as_xyz
  1  'x, y, z'
loop_
 _atom_site_type_symbol
 _atom_site_label
 _atom_site_symmetry_multiplicity
 _atom_site_fract_x
 _atom_site_fract_y
 _atom_site_fract_z
 _atom_site_occupancy
 _atom_site_charge
Cu  Cu1  1  0.50504000  0.57171000  0.87954000  1.0 0.8807619277
Cu  Cu2  1  0.49496000  0.42829000  0.12046000  1.0 0.8807619277
Cu  Cu3  1  0.36203000  0.49523000  0.99446000  1.0 0.9253447119
Cu  Cu4  1  0.63797000  0.50477000  0.00554000  1.0 0.9253447119
Cu  Cu5  1  0.13851000  0.00690000  0.49590000  1.0 0.6967750254
Cu  Cu6  1  0.86149000  0.99310000  0.50410000  1.0 0.6967750254
Cu  Cu7  1  0.97378000  0.13202000  0.56644000  1.0 0.5916817251
Cu  Cu8  1  0.02622000  0.86798000  0.43356000  1.0 0.5916817251
Cu  Cu9  1  0.98380000  0.07670000  0.61820000  1.0 0.3045000198
Cu  Cu10  1  0.01620000  0.92330000  0.38180000  1.0 0.3045000198
H  H1  1  0.27050000  0.19080000  0.67700000  1.0 0.112507796
H  H2  1  0.72950000  0.80920000  0.32300000  1.0 0.112507796
H  H3  1  0.99810000  0.56730000  0.94670000  1.0 0.1385886668
H  H4  1  0.00190000  0.43270000  0.05330000  1.0 0.1385886668
H  H5  1  0.80230000  0.67990000  0.81080000  1.0 0.1205071964
H  H6  1  0.19770000  0.32010000  0.18920000  1.0 0.1205071964
H  H7  1  0.65050000  0.19000000  0.67370000  1.0 0.112507796
H  H8  1  0.34950000  0.81000000  0.32630000  1.0 0.112507796
H  H9  1  0.18210000  0.67790000  0.81070000  1.0 0.112507796
H  H10  1  0.81790000  0.32210000  0.18930000  1.0 0.112507796
H  H11  1  0.30030000  0.22480000  0.78280000  1.0 0.112507796
H  H12  1  0.69970000  0.77520000  0.21720000  1.0 0.112507796
H  H13  1  0.48470000  0.05180000  0.56290000  1.0 0.1385886668
H  H14  1  0.51530000  0.94820000  0.43710000  1.0 0.1385886668
H  H15  1  0.59600000  0.31100000  0.69450000  1.0 0.112507796
H  H16  1  0.40400000  0.68900000  0.30550000  1.0 0.112507796
H  H17  1  0.29860000  0.31130000  0.86120000  1.0 0.1205071964
H  H18  1  0.70140000  0.68870000  0.13880000  1.0 0.1205071964
H  H19  1  0.59470000  0.39750000  0.77320000  1.0 0.1205071964
H  H20  1  0.40530000  0.60250000  0.22680000  1.0 0.1205071964
H  H21  1  0.81340000  0.78010000  0.75480000  1.0 0.0825946865
H  H22  1  0.18660000  0.21990000  0.24520000  1.0 0.0825946865
H  H23  1  0.80600000  0.84430000  0.65950000  1.0 0.1385886668
H  H24  1  0.19400000  0.15570000  0.34050000  1.0 0.1385886668
H  H25  1  0.16370000  0.69780000  0.70760000  1.0 0.0929979931
H  H26  1  0.83630000  0.30220000  0.29240000  1.0 0.0929979931
H  H27  1  0.16010000  0.76820000  0.61580000  1.0 0.112507796
H  H28  1  0.83990000  0.23180000  0.38420000  1.0 0.112507796
H  H29  1  0.80430000  0.74410000  0.73950000  1.0 0.0825946865
H  H30  1  0.19570000  0.25590000  0.26050000  1.0 0.0825946865
H  H31  1  0.79250000  0.83750000  0.66300000  1.0 0.1205071964
H  H32  1  0.20750000  0.16250000  0.33700000  1.0 0.1205071964
H  H33  1  0.14010000  0.89010000  0.70800000  1.0 0.1205071964
H  H34  1  0.85990000  0.10990000  0.29200000  1.0 0.1205071964
H  H35  1  0.15190000  0.79670000  0.78440000  1.0 0.0929979931
H  H36  1  0.84810000  0.20330000  0.21560000  1.0 0.0929979931
C  C1  1  0.76380000  0.59060000  0.90708000  1.0 0.5916817251
C  C2  1  0.23620000  0.40940000  0.09292000  1.0 0.5916817251
C  C3  1  0.36080000  0.11890000  0.61590000  1.0 0.0008239194
C  C4  1  0.63920000  0.88110000  0.38410000  1.0 0.0008239194
C  C5  1  0.35120000  0.17230000  0.66120000  1.0 -0.1691285309
C  C6  1  0.64880000  0.82770000  0.33880000  1.0 -0.1691285309
C  C7  1  0.24550000  0.09350000  0.58720000  1.0 0.5339628521
C  C8  1  0.75450000  0.90650000  0.41280000  1.0 0.5339628521
C  C9  1  0.99640000  0.59710000  0.90953000  1.0 -0.1080920913
C  C10  1  0.00360000  0.40290000  0.09047000  1.0 -0.1080920913
C  C11  1  0.10750000  0.61940000  0.88230000  1.0 -0.0202618845
C  C12  1  0.89250000  0.38060000  0.11770000  1.0 -0.0202618845
C  C13  1  0.88290000  0.61900000  0.88186000  1.0 -0.0304086444
C  C14  1  0.11710000  0.38100000  0.11814000  1.0 -0.0304086444
C  C15  1  0.45890000  0.19950000  0.68390000  1.0 0.0712586387
C  C16  1  0.54110000  0.80050000  0.31610000  1.0 0.0712586387
C  C17  1  0.45180000  0.25730000  0.73200000  1.0 0.0712586387
C  C18  1  0.54820000  0.74270000  0.26800000  1.0 0.0712586387
C  C19  1  0.71260000  0.09240000  0.58755000  1.0 0.5453041259
C  C20  1  0.28740000  0.90760000  0.41245000  1.0 0.5453041259
C  C21  1  0.88070000  0.66420000  0.82870000  1.0 -0.1587887753
C  C22  1  0.11930000  0.33580000  0.17130000  1.0 -0.1587887753
C  C23  1  0.57610000  0.17160000  0.65920000  1.0 -0.1587887753
C  C24  1  0.42390000  0.82840000  0.34080000  1.0 -0.1587887753
C  C25  1  0.99140000  0.68690000  0.80110000  1.0 0.0644423242
C  C26  1  0.00860000  0.31310000  0.19890000  1.0 0.0644423242
C  C27  1  0.10530000  0.66340000  0.82890000  1.0 -0.1587887753
C  C28  1  0.89470000  0.33660000  0.17110000  1.0 -0.1587887753
C  C29  1  0.23040000  0.58960000  0.90780000  1.0 0.5916817251
C  C30  1  0.76960000  0.41040000  0.09220000  1.0 0.5916817251
C  C31  1  0.36150000  0.25940000  0.78120000  1.0 -0.1489205298
C  C32  1  0.63850000  0.74060000  0.21880000  1.0 -0.1489205298
C  C33  1  0.47810000  0.09000000  0.59280000  1.0 -0.1449816462
C  C34  1  0.52190000  0.91000000  0.40720000  1.0 -0.1449816462
C  C35  1  0.44850000  0.41990000  0.87520000  1.0 0.5748043123
C  C36  1  0.55150000  0.58010000  0.12480000  1.0 0.5748043123
C  C37  1  0.44720000  0.36320000  0.82530000  1.0 -0.0304086444
C  C38  1  0.55280000  0.63680000  0.17470000  1.0 -0.0304086444
C  C39  1  0.53630000  0.31030000  0.72890000  1.0 -0.1587887753
C  C40  1  0.46370000  0.68970000  0.27110000  1.0 -0.1587887753
C  C41  1  0.35990000  0.31110000  0.82740000  1.0 -0.0944941764
C  C42  1  0.64010000  0.68890000  0.17260000  1.0 -0.0944941764
C  C43  1  0.53480000  0.36210000  0.77550000  1.0 -0.101135352
C  C44  1  0.46520000  0.63790000  0.22450000  1.0 -0.101135352
C  C45  1  0.58560000  0.11850000  0.61480000  1.0 -0.0032310749
C  C46  1  0.41440000  0.88150000  0.38520000  1.0 -0.0032310749
C  C47  1  0.93080000  0.26220000  0.62520000  1.0 0.0825946865
C  C48  1  0.06920000  0.73780000  0.37480000  1.0 0.0825946865
C  C49  1  0.99700000  0.00370000  0.62600000  1.0 0.1205071964
C  C50  1  0.00300000  0.99630000  0.37400000  1.0 0.112507796
C  C51  1  0.46960000  0.63830000  0.99400000  1.0 0.4519034537
C  C52  1  0.53040000  0.36170000  0.00600000  1.0 0.4519034537
C  C53  1  0.88390000  0.77600000  0.72600000  1.0 -0.1196269455
C  C54  1  0.11610000  0.22400000  0.27400000  1.0 -0.1196269455
C  C55  1  0.98900000  0.73120000  0.74080000  1.0 0.0458127882
C  C56  1  0.01100000  0.26880000  0.25920000  1.0 0.0458127882
C  C57  1  0.88030000  0.81510000  0.66970000  1.0 -0.0645696719
C  C58  1  0.11970000  0.18490000  0.33030000  1.0 -0.0645696719
C  C59  1  0.98160000  0.81230000  0.62850000  1.0 -0.0090499215
C  C60  1  0.01840000  0.18770000  0.37150000  1.0 -0.0090499215
C  C61  1  0.97570000  0.85510000  0.56640000  1.0 0.2919885281
C  C62  1  0.02430000  0.14490000  0.43360000  1.0 0.2919885281
C  C63  1  0.09040000  0.72860000  0.69850000  1.0 -0.1080920913
C  C64  1  0.90960000  0.27140000  0.30150000  1.0 -0.1080920913
C  C65  1  0.08780000  0.76960000  0.64350000  1.0 -0.2030713197
C  C66  1  0.91220000  0.23040000  0.35650000  1.0 -0.2030713197
C  C67  1  0.85600000  0.28660000  0.57930000  1.0 -0.0202618845
C  C68  1  0.14400000  0.71340000  0.42070000  1.0 -0.0202618845
C  C69  1  0.87200000  0.77400000  0.73300000  1.0 -0.1291537222
C  C70  1  0.12800000  0.22600000  0.26700000  1.0 -0.1291537222
C  C71  1  0.86500000  0.82900000  0.68760000  1.0 -0.0678352837
C  C72  1  0.13500000  0.17100000  0.31240000  1.0 -0.0678352837
C  C73  1  0.96500000  0.87260000  0.67830000  1.0 0.0209765287
C  C74  1  0.03500000  0.12740000  0.32170000  1.0 0.0209765287
C  C75  1  0.07200000  0.86050000  0.71440000  1.0 -0.1829291892
C  C76  1  0.92800000  0.13950000  0.28560000  1.0 -0.1829291892
C  C77  1  0.07900000  0.80500000  0.75980000  1.0 -0.101135352
C  C78  1  0.92100000  0.19500000  0.24020000  1.0 -0.101135352
C  C79  1  0.97900000  0.76160000  0.76910000  1.0 0.0389168785
C  C80  1  0.02100000  0.23840000  0.23090000  1.0 0.0389168785
C  C81  1  0.95000000  0.92790000  0.62400000  1.0 0.2314337629
C  C82  1  0.05000000  0.07210000  0.37600000  1.0 0.2314337629
O  O1  1  0.49360000  0.56372000  0.97151000  1.0 -0.7113605079
O  O2  1  0.50640000  0.43628000  0.02849000  1.0 -0.7113605079
O  O3  1  0.25870000  0.03771000  0.55423000  1.0 -0.5080373284
O  O4  1  0.74130000  0.96229000  0.44577000  1.0 -0.5080373284
O  O5  1  0.22800000  0.56199000  0.96316000  1.0 -0.5080373284
O  O6  1  0.77200000  0.43801000  0.03684000  1.0 -0.5080373284
O  O7  1  0.71940000  0.03896000  0.55174000  1.0 -0.5080373284
O  O8  1  0.28060000  0.96104000  0.44826000  1.0 -0.5080373284
O  O9  1  0.77050000  0.54822000  0.95397000  1.0 -0.5080373284
O  O10  1  0.22950000  0.45178000  0.04603000  1.0 -0.5080373284
O  O11  1  0.32430000  0.59330000  0.87156000  1.0 -0.5470188794
O  O12  1  0.67570000  0.40670000  0.12844000  1.0 -0.5470188794
O  O13  1  0.35290000  0.42740000  0.91307000  1.0 -0.5572789845
O  O14  1  0.64710000  0.57260000  0.08693000  1.0 -0.5572789845
O  O15  1  0.14500000  0.13360000  0.59740000  1.0 -0.5080373284
O  O16  1  0.85500000  0.86640000  0.40260000  1.0 -0.5080373284
O  O17  1  0.54300000  0.45580000  0.87667000  1.0 -0.5770598587
O  O18  1  0.45700000  0.54420000  0.12333000  1.0 -0.5770598587
O  O19  1  0.80010000  0.12900000  0.60200000  1.0 -0.4939112601
O  O20  1  0.19990000  0.87100000  0.39800000  1.0 -0.4939112601
O  O21  1  0.66550000  0.61300000  0.87976000  1.0 -0.5470188794
O  O22  1  0.33450000  0.38700000  0.12024000  1.0 -0.5470188794
O  O23  1  0.95750000  0.23890000  0.56320000  1.0 0.0341594953
O  O24  1  0.04250000  0.76110000  0.43680000  1.0 0.0389168785
O  O25  1  0.99300000  0.02793000  0.55637000  1.0 -0.1196269455
O  O26  1  0.00700000  0.97207000  0.44363000  1.0 -0.1196269455
O  O27  1  0.07230000  0.85390000  0.53140000  1.0 -0.4665933189
O  O28  1  0.92770000  0.14610000  0.46860000  1.0 -0.4665933189
O  O29  1  0.87320000  0.88970000  0.55485000  1.0 -0.1691285309
O  O30  1  0.12680000  0.11030000  0.44515000  1.0 -0.1691285309
O  O31  1  0.42760000  0.69700000  0.01670000  1.0 -0.2905604479
O  O32  1  0.57240000  0.30300000  0.98330000  1.0 -0.2905604479
O  O33  1  0.95940000  0.23300000  0.59310000  1.0 0.1385886668
O  O34  1  0.04060000  0.76700000  0.40690000  1.0 0.1343926403
O  O35  1  0.03800000  0.96440000  0.61990000  1.0 0.0209765287
O  O36  1  0.96200000  0.03560000  0.38010000  1.0 0.0209765287
O  O37  1  0.86700000  0.92660000  0.59470000  1.0 -0.0678352837
O  O38  1  0.13300000  0.07340000  0.40530000  1.0 -0.0678352837
O  O39  1  0.98300000  0.06340000  0.53130000  1.0 -0.2638057408
O  O40  1  0.01700000  0.93660000  0.46870000  1.0 -0.2638057408
O  O41  1  0.03130000  0.98130000  0.67620000  1.0 -0.1196269455
O  O42  1  0.96870000  0.01870000  0.32380000  1.0 -0.1196269455
