# DDEC6 charges by PACMAN v1.1 (https://github.com/mtap-research/PACMAN-charge/)
data_IFAREN_FSR_pacman
_symmetry_space_group_name_H-M   'P 1'
_cell_length_a   18.21740000
_cell_length_b   20.29870000
_cell_length_c   31.32640000
_cell_angle_alpha   90.00000000
_cell_angle_beta   116.11500000
_cell_angle_gamma   90.00000000
_symmetry_Int_Tables_number   1
_chemical_formula_structural   Co3Mo10P4H44C54(N4O15)3
_chemical_formula_sum   'Co12 Mo40 P16 H176 C216 N48 O180'
_cell_volume   10401.57398674
_cell_formula_units_Z   4
loop_
 _symmetry_equiv_pos_site_id
 _symmetry_equiv_pos_as_xyz
  1  'x, y, z'
loop_
 _atom_site_type_symbol
 _atom_site_label
 _atom_site_symmetry_multiplicity
 _atom_site_fract_x
 _atom_site_fract_y
 _atom_site_fract_z
 _atom_site_occupancy
 _atom_site_charge
Co  Co1  1  0.54892000  0.08408000  0.72616000  1.0 0.9462024671
Co  Co2  1  0.45108000  0.58408000  0.77384000  1.0 0.9462024671
Co  Co3  1  0.45108000  0.91592000  0.27384000  1.0 0.9462024671
Co  Co4  1  0.54892000  0.41592000  0.22616000  1.0 0.9462024671
Co  Co5  1  0.25570000  0.14266000  0.50151000  1.0 0.6084645939
Co  Co6  1  0.74430000  0.64266000  0.99849000  1.0 0.6084645939
Co  Co7  1  0.74430000  0.85734000  0.49849000  1.0 0.6084645939
Co  Co8  1  0.25570000  0.35734000  0.00151000  1.0 0.6084645939
Co  Co9  1  0.98581000  0.12977000  0.26990000  1.0 0.9223164123
Co  Co10  1  0.01419000  0.62977000  0.23010000  1.0 0.9223164123
Co  Co11  1  0.01419000  0.87023000  0.73010000  1.0 0.9223164123
Co  Co12  1  0.98581000  0.37023000  0.76990000  1.0 0.9223164123
Mo  Mo1  1  0.95059000  0.37477000  0.20200000  1.0 2.1797095788
Mo  Mo2  1  0.04941000  0.87477000  0.29800000  1.0 2.1797095788
Mo  Mo3  1  0.04941000  0.62523000  0.79800000  1.0 2.1797095788
Mo  Mo4  1  0.95059000  0.12523000  0.70200000  1.0 2.1797095788
Mo  Mo5  1  0.03036000  0.44059000  0.13269000  1.0 2.1279111755
Mo  Mo6  1  0.96964000  0.94059000  0.36731000  1.0 2.1279111755
Mo  Mo7  1  0.96964000  0.55941000  0.86731000  1.0 2.1279111755
Mo  Mo8  1  0.03036000  0.05941000  0.63269000  1.0 2.1279111755
Mo  Mo9  1  0.07021000  0.31379000  0.07390000  1.0 2.1395264221
Mo  Mo10  1  0.92979000  0.81379000  0.42610000  1.0 2.1395264221
Mo  Mo11  1  0.92979000  0.68621000  0.92610000  1.0 2.1395264221
Mo  Mo12  1  0.07021000  0.18621000  0.57390000  1.0 2.1395264221
Mo  Mo13  1  0.99497000  0.17081000  0.09291000  1.0 2.2018202198
Mo  Mo14  1  0.00503000  0.67081000  0.40709000  1.0 2.2018202198
Mo  Mo15  1  0.00503000  0.82919000  0.90709000  1.0 2.2018202198
Mo  Mo16  1  0.99497000  0.32919000  0.59291000  1.0 2.2018202198
Mo  Mo17  1  0.88157000  0.20817000  0.15500000  1.0 2.2162535697
Mo  Mo18  1  0.11843000  0.70817000  0.34500000  1.0 2.2145453346
Mo  Mo19  1  0.11843000  0.79183000  0.84500000  1.0 2.2162535697
Mo  Mo20  1  0.88157000  0.29183000  0.65500000  1.0 2.2162535697
Mo  Mo21  1  0.51543000  0.95212000  0.64575000  1.0 2.1470046294
Mo  Mo22  1  0.48457000  0.45212000  0.85425000  1.0 2.1470046294
Mo  Mo23  1  0.48457000  0.04788000  0.35425000  1.0 2.1470046294
Mo  Mo24  1  0.51543000  0.54788000  0.14575000  1.0 2.1470046294
Mo  Mo25  1  0.40489000  0.88313000  0.69598000  1.0 2.1558707607
Mo  Mo26  1  0.59511000  0.38313000  0.80402000  1.0 2.1558707607
Mo  Mo27  1  0.59511000  0.11687000  0.30402000  1.0 2.1558707607
Mo  Mo28  1  0.40489000  0.61687000  0.19598000  1.0 2.1558707607
Mo  Mo29  1  0.58093000  0.21648000  0.81312000  1.0 2.2162535697
Mo  Mo30  1  0.41907000  0.71648000  0.68688000  1.0 2.2162535697
Mo  Mo31  1  0.41907000  0.78352000  0.18688000  1.0 2.2162535697
Mo  Mo32  1  0.58093000  0.28352000  0.31312000  1.0 2.2162535697
Mo  Mo33  1  0.49507000  0.18819000  0.89765000  1.0 2.1885279668
Mo  Mo34  1  0.50493000  0.68819000  0.60235000  1.0 2.1885279668
Mo  Mo35  1  0.50493000  0.81181000  0.10235000  1.0 2.1885279668
Mo  Mo36  1  0.49507000  0.31181000  0.39765000  1.0 2.1885279668
Mo  Mo37  1  0.41828000  0.33786000  0.90693000  1.0 2.1395264221
Mo  Mo38  1  0.58172000  0.83786000  0.59307000  1.0 2.1395264221
Mo  Mo39  1  0.58172000  0.66214000  0.09307000  1.0 2.1395264221
Mo  Mo40  1  0.41828000  0.16214000  0.40693000  1.0 2.1395264221
P  P1  1  0.88783000  0.31924000  0.08167000  1.0 1.4113247347
P  P2  1  0.11217000  0.81924000  0.41833000  1.0 1.4113247347
P  P3  1  0.11217000  0.68076000  0.91833000  1.0 1.4113247347
P  P4  1  0.88783000  0.18076000  0.58167000  1.0 1.4113247347
P  P5  1  0.08231000  0.27560000  0.18481000  1.0 1.4113247347
P  P6  1  0.91769000  0.77560000  0.31519000  1.0 1.4113247347
P  P7  1  0.91769000  0.72440000  0.81519000  1.0 1.4113247347
P  P8  1  0.08231000  0.22440000  0.68481000  1.0 1.4113247347
P  P9  1  0.41652000  0.19916000  0.29982000  1.0 1.4113247347
P  P10  1  0.58348000  0.69916000  0.20018000  1.0 1.4113247347
P  P11  1  0.58348000  0.80084000  0.70018000  1.0 1.4113247347
P  P12  1  0.41652000  0.30084000  0.79982000  1.0 1.4113247347
P  P13  1  0.61279000  0.32155000  0.90985000  1.0 1.4174196375
P  P14  1  0.38721000  0.82155000  0.59015000  1.0 1.4174196375
P  P15  1  0.38721000  0.67845000  0.09015000  1.0 1.4174196375
P  P16  1  0.61279000  0.17845000  0.40985000  1.0 1.4174196375
H  H1  1  0.48180000  0.04730000  0.79980000  1.0 0.1405398708
H  H2  1  0.51820000  0.54730000  0.70020000  1.0 0.1405398708
H  H3  1  0.51820000  0.95270000  0.20020000  1.0 0.1405398708
H  H4  1  0.48180000  0.45270000  0.29980000  1.0 0.1405398708
H  H5  1  0.36110000  0.05790000  0.80660000  1.0 0.1405398708
H  H6  1  0.63890000  0.55790000  0.69340000  1.0 0.1405398708
H  H7  1  0.63890000  0.94210000  0.19340000  1.0 0.1405398708
H  H8  1  0.36110000  0.44210000  0.30660000  1.0 0.1405398708
H  H9  1  0.24060000  0.08600000  0.73890000  1.0 0.1321031553
H  H10  1  0.75940000  0.58600000  0.76110000  1.0 0.1321031553
H  H11  1  0.75940000  0.91400000  0.26110000  1.0 0.1321031553
H  H12  1  0.24060000  0.41400000  0.23890000  1.0 0.1321031553
H  H13  1  0.24560000  0.09920000  0.66520000  1.0 0.1405398708
H  H14  1  0.75440000  0.59920000  0.83480000  1.0 0.1405398708
H  H15  1  0.75440000  0.90080000  0.33480000  1.0 0.1405398708
H  H16  1  0.24560000  0.40080000  0.16520000  1.0 0.1405398708
H  H17  1  0.57210000  0.18290000  0.58600000  1.0 0.1321031553
H  H18  1  0.42790000  0.68290000  0.91400000  1.0 0.1321031553
H  H19  1  0.42790000  0.81710000  0.41400000  1.0 0.1321031553
H  H20  1  0.57210000  0.31710000  0.08600000  1.0 0.1321031553
H  H21  1  0.71490000  0.19780000  0.62230000  1.0 0.1405398708
H  H22  1  0.28510000  0.69780000  0.87770000  1.0 0.1405398708
H  H23  1  0.28510000  0.80220000  0.37770000  1.0 0.1405398708
H  H24  1  0.71490000  0.30220000  0.12230000  1.0 0.1405398708
H  H25  1  0.78790000  0.17960000  0.70390000  1.0 0.1405398708
H  H26  1  0.21210000  0.67960000  0.79610000  1.0 0.1405398708
H  H27  1  0.21210000  0.82040000  0.29610000  1.0 0.1405398708
H  H28  1  0.78790000  0.32040000  0.20390000  1.0 0.1405398708
H  H29  1  0.72090000  0.14090000  0.74720000  1.0 0.1321031553
H  H30  1  0.27910000  0.64090000  0.75280000  1.0 0.1321031553
H  H31  1  0.27910000  0.85910000  0.25280000  1.0 0.1321031553
H  H32  1  0.72090000  0.35910000  0.24720000  1.0 0.1321031553
H  H33  1  0.10160000  0.04830000  0.47250000  1.0 0.1206335377
H  H34  1  0.89840000  0.54830000  0.02750000  1.0 0.1206335377
H  H35  1  0.89840000  0.95170000  0.52750000  1.0 0.1206335377
H  H36  1  0.10160000  0.45170000  0.97250000  1.0 0.1206335377
H  H37  1  0.05770000  0.96400000  0.50620000  1.0 0.1405398708
H  H38  1  0.94230000  0.46400000  0.99380000  1.0 0.1405398708
H  H39  1  0.94230000  0.03600000  0.49380000  1.0 0.1405398708
H  H40  1  0.05770000  0.53600000  0.00620000  1.0 0.1405398708
H  H41  1  0.13730000  0.93580000  0.58560000  1.0 0.1321031553
H  H42  1  0.86270000  0.43580000  0.91440000  1.0 0.1321031553
H  H43  1  0.86270000  0.06420000  0.41440000  1.0 0.1321031553
H  H44  1  0.13730000  0.56420000  0.08560000  1.0 0.1321031553
H  H45  1  0.25950000  0.99460000  0.63030000  1.0 0.1405398708
H  H46  1  0.74050000  0.49460000  0.86970000  1.0 0.1405398708
H  H47  1  0.74050000  0.00540000  0.36970000  1.0 0.1405398708
H  H48  1  0.25950000  0.50540000  0.13030000  1.0 0.1405398708
H  H49  1  0.50230000  0.27880000  0.59830000  1.0 0.1321031553
H  H50  1  0.49770000  0.77880000  0.90170000  1.0 0.1321031553
H  H51  1  0.49770000  0.72120000  0.40170000  1.0 0.1321031553
H  H52  1  0.50230000  0.22120000  0.09830000  1.0 0.1321031553
H  H53  1  0.47650000  0.36610000  0.54430000  1.0 0.1405398708
H  H54  1  0.52350000  0.86610000  0.95570000  1.0 0.1405398708
H  H55  1  0.52350000  0.63390000  0.45570000  1.0 0.1405398708
H  H56  1  0.47650000  0.13390000  0.04430000  1.0 0.1405398708
H  H57  1  0.37130000  0.35690000  0.46790000  1.0 0.1512527043
H  H58  1  0.62870000  0.85690000  0.03210000  1.0 0.1512527043
H  H59  1  0.62870000  0.64310000  0.53210000  1.0 0.1512527043
H  H60  1  0.37130000  0.14310000  0.96790000  1.0 0.1512527043
H  H61  1  0.28730000  0.26360000  0.44790000  1.0 0.1206335377
H  H62  1  0.71270000  0.76360000  0.05210000  1.0 0.1206335377
H  H63  1  0.71270000  0.73640000  0.55210000  1.0 0.1206335377
H  H64  1  0.28730000  0.23640000  0.94790000  1.0 0.1206335377
H  H65  1  0.23180000  0.26910000  0.55240000  1.0 0.1206335377
H  H66  1  0.76820000  0.76910000  0.94760000  1.0 0.1206335377
H  H67  1  0.76820000  0.73090000  0.44760000  1.0 0.1206335377
H  H68  1  0.23180000  0.23090000  0.05240000  1.0 0.1206335377
H  H69  1  0.14990000  0.36210000  0.53240000  1.0 0.1512527043
H  H70  1  0.85010000  0.86210000  0.96760000  1.0 0.1512527043
H  H71  1  0.85010000  0.63790000  0.46760000  1.0 0.1512527043
H  H72  1  0.14990000  0.13790000  0.03240000  1.0 0.1512527043
H  H73  1  0.04380000  0.37180000  0.45580000  1.0 0.1405398708
H  H74  1  0.95620000  0.87180000  0.04420000  1.0 0.1405398708
H  H75  1  0.95620000  0.62820000  0.54420000  1.0 0.1405398708
H  H76  1  0.04380000  0.12820000  0.95580000  1.0 0.1405398708
H  H77  1  0.02090000  0.28660000  0.40100000  1.0 0.1321031553
H  H78  1  0.97910000  0.78660000  0.09900000  1.0 0.1321031553
H  H79  1  0.97910000  0.71340000  0.59900000  1.0 0.1321031553
H  H80  1  0.02090000  0.21340000  0.90100000  1.0 0.1321031553
H  H81  1  0.22910000  0.96690000  0.38610000  1.0 0.1512527043
H  H82  1  0.77090000  0.46690000  0.11390000  1.0 0.1512527043
H  H83  1  0.77090000  0.03310000  0.61390000  1.0 0.1512527043
H  H84  1  0.22910000  0.53310000  0.88610000  1.0 0.1512527043
H  H85  1  0.34680000  0.90610000  0.43520000  1.0 0.1206335377
H  H86  1  0.65320000  0.40610000  0.06480000  1.0 0.1206335377
H  H87  1  0.65320000  0.09390000  0.56480000  1.0 0.1206335377
H  H88  1  0.34680000  0.59390000  0.93520000  1.0 0.1206335377
H  H89  1  0.44020000  0.95170000  0.50790000  1.0 0.1512527043
H  H90  1  0.55980000  0.45170000  0.99210000  1.0 0.1512527043
H  H91  1  0.55980000  0.04830000  0.49210000  1.0 0.1512527043
H  H92  1  0.44020000  0.54830000  0.00790000  1.0 0.1512527043
H  H93  1  0.41140000  0.05310000  0.53070000  1.0 0.1206335377
H  H94  1  0.58860000  0.55310000  0.96930000  1.0 0.1206335377
H  H95  1  0.58860000  0.94690000  0.46930000  1.0 0.1206335377
H  H96  1  0.41140000  0.44690000  0.03070000  1.0 0.1206335377
H  H97  1  0.81310000  0.19550000  0.24510000  1.0 0.1206335377
H  H98  1  0.18690000  0.69550000  0.25490000  1.0 0.1206335377
H  H99  1  0.18690000  0.80450000  0.75490000  1.0 0.1206335377
H  H100  1  0.81310000  0.30450000  0.74510000  1.0 0.1206335377
H  H101  1  0.73840000  0.22590000  0.28620000  1.0 0.1321031553
H  H102  1  0.26160000  0.72590000  0.21380000  1.0 0.1321031553
H  H103  1  0.26160000  0.77410000  0.71380000  1.0 0.1321031553
H  H104  1  0.73840000  0.27410000  0.78620000  1.0 0.1321031553
H  H105  1  0.80000000  0.21890000  0.36960000  1.0 0.1405398708
H  H106  1  0.20000000  0.71890000  0.13040000  1.0 0.1405398708
H  H107  1  0.20000000  0.78110000  0.63040000  1.0 0.1405398708
H  H108  1  0.80000000  0.28110000  0.86960000  1.0 0.1405398708
H  H109  1  0.93850000  0.18880000  0.41010000  1.0 0.1405398708
H  H110  1  0.06150000  0.68880000  0.08990000  1.0 0.1405398708
H  H111  1  0.06150000  0.81120000  0.58990000  1.0 0.1405398708
H  H112  1  0.93850000  0.31120000  0.91010000  1.0 0.1405398708
H  H113  1  0.26880000  0.04910000  0.34670000  1.0 0.1321031553
H  H114  1  0.73120000  0.54910000  0.15330000  1.0 0.1321031553
H  H115  1  0.73120000  0.95090000  0.65330000  1.0 0.1321031553
H  H116  1  0.26880000  0.45090000  0.84670000  1.0 0.1321031553
H  H117  1  0.27910000  0.01350000  0.27780000  1.0 0.1321031553
H  H118  1  0.72090000  0.51350000  0.22220000  1.0 0.1321031553
H  H119  1  0.72090000  0.98650000  0.72220000  1.0 0.1321031553
H  H120  1  0.27910000  0.48650000  0.77780000  1.0 0.1321031553
H  H121  1  0.15960000  0.00880000  0.20550000  1.0 0.1405398708
H  H122  1  0.84040000  0.50880000  0.29450000  1.0 0.1405398708
H  H123  1  0.84040000  0.99120000  0.79450000  1.0 0.1405398708
H  H124  1  0.15960000  0.49120000  0.70550000  1.0 0.1405398708
H  H125  1  0.03730000  0.04620000  0.20380000  1.0 0.1321031553
H  H126  1  0.96270000  0.54620000  0.29620000  1.0 0.1321031553
H  H127  1  0.96270000  0.95380000  0.79620000  1.0 0.1321031553
H  H128  1  0.03730000  0.45380000  0.70380000  1.0 0.1321031553
H  H129  1  0.85900000  0.37720000  0.01240000  1.0 0.1512527043
H  H130  1  0.14100000  0.87720000  0.48760000  1.0 0.1512527043
H  H131  1  0.14100000  0.62280000  0.98760000  1.0 0.1512527043
H  H132  1  0.85900000  0.12280000  0.51240000  1.0 0.1512527043
H  H133  1  0.81290000  0.40990000  0.04040000  1.0 0.1405398708
H  H134  1  0.18710000  0.90990000  0.45960000  1.0 0.1405398708
H  H135  1  0.18710000  0.59010000  0.95960000  1.0 0.1405398708
H  H136  1  0.81290000  0.09010000  0.54040000  1.0 0.1405398708
H  H137  1  0.17070000  0.19290000  0.18920000  1.0 0.1512527043
H  H138  1  0.82930000  0.69290000  0.31080000  1.0 0.1512527043
H  H139  1  0.82930000  0.80710000  0.81080000  1.0 0.1512527043
H  H140  1  0.17070000  0.30710000  0.68920000  1.0 0.1512527043
H  H141  1  0.15100000  0.19020000  0.23380000  1.0 0.1512527043
H  H142  1  0.84900000  0.69020000  0.26620000  1.0 0.1512527043
H  H143  1  0.84900000  0.80980000  0.76620000  1.0 0.1512527043
H  H144  1  0.15100000  0.30980000  0.73380000  1.0 0.1512527043
H  H145  1  0.25210000  0.27170000  0.27280000  1.0 0.1206335377
H  H146  1  0.74790000  0.77170000  0.22720000  1.0 0.1206335377
H  H147  1  0.74790000  0.72830000  0.72720000  1.0 0.1206335377
H  H148  1  0.25210000  0.22830000  0.77280000  1.0 0.1206335377
H  H149  1  0.27210000  0.27450000  0.22780000  1.0 0.106546712
H  H150  1  0.72790000  0.77450000  0.27220000  1.0 0.106546712
H  H151  1  0.72790000  0.72550000  0.77220000  1.0 0.106546712
H  H152  1  0.27210000  0.22550000  0.72780000  1.0 0.106546712
H  H153  1  0.30170000  0.15800000  0.23780000  1.0 0.1512527043
H  H154  1  0.69830000  0.65800000  0.26220000  1.0 0.1512527043
H  H155  1  0.69830000  0.84200000  0.76220000  1.0 0.1512527043
H  H156  1  0.30170000  0.34200000  0.73780000  1.0 0.1512527043
H  H157  1  0.28940000  0.15990000  0.28500000  1.0 0.1405398708
H  H158  1  0.71060000  0.65990000  0.21500000  1.0 0.1405398708
H  H159  1  0.71060000  0.84010000  0.71500000  1.0 0.1405398708
H  H160  1  0.28940000  0.34010000  0.78500000  1.0 0.1405398708
H  H161  1  0.70230000  0.40750000  0.94790000  1.0 0.1512527043
H  H162  1  0.29770000  0.90750000  0.55210000  1.0 0.1512527043
H  H163  1  0.29770000  0.59250000  0.05210000  1.0 0.1512527043
H  H164  1  0.70230000  0.09250000  0.44790000  1.0 0.1512527043
H  H165  1  0.74790000  0.35180000  0.93240000  1.0 0.1512527043
H  H166  1  0.25210000  0.85180000  0.56760000  1.0 0.1512527043
H  H167  1  0.25210000  0.64820000  0.06760000  1.0 0.1512527043
H  H168  1  0.74790000  0.14820000  0.43240000  1.0 0.1512527043
H  H169  1  0.70750000  0.33650000  0.01030000  1.0 0.0998751609
H  H170  1  0.29250000  0.83650000  0.48970000  1.0 0.0998751609
H  H171  1  0.29250000  0.66350000  0.98970000  1.0 0.0998751609
H  H172  1  0.70750000  0.16350000  0.51030000  1.0 0.0998751609
H  H173  1  0.75920000  0.28490000  0.99600000  1.0 0.1206335377
H  H174  1  0.24080000  0.78490000  0.50400000  1.0 0.1206335377
H  H175  1  0.24080000  0.71510000  0.00400000  1.0 0.1206335377
H  H176  1  0.75920000  0.21510000  0.49600000  1.0 0.1206335377
C  C1  1  0.43310000  0.05770000  0.77220000  1.0 0.1206335377
C  C2  1  0.56690000  0.55770000  0.72780000  1.0 0.1206335377
C  C3  1  0.56690000  0.94230000  0.22780000  1.0 0.1206335377
C  C4  1  0.43310000  0.44230000  0.27220000  1.0 0.1206335377
C  C5  1  0.36180000  0.06420000  0.77670000  1.0 -0.1009961982
C  C6  1  0.63820000  0.56420000  0.72330000  1.0 -0.1009961982
C  C7  1  0.63820000  0.93580000  0.22330000  1.0 -0.1009961982
C  C8  1  0.36180000  0.43580000  0.27670000  1.0 -0.1009961982
C  C9  1  0.29050000  0.08040000  0.73660000  1.0 0.0117543116
C  C10  1  0.70950000  0.58040000  0.76340000  1.0 0.0117543116
C  C11  1  0.70950000  0.91960000  0.26340000  1.0 0.0117543116
C  C12  1  0.29050000  0.41960000  0.23660000  1.0 0.0117543116
C  C13  1  0.29340000  0.08820000  0.69320000  1.0 -0.1497177306
C  C14  1  0.70660000  0.58820000  0.80680000  1.0 -0.1497177306
C  C15  1  0.70660000  0.91180000  0.30680000  1.0 -0.1497177306
C  C16  1  0.29340000  0.41180000  0.19320000  1.0 -0.1497177306
C  C17  1  0.36728000  0.07940000  0.69188000  1.0 0.1697884714
C  C18  1  0.63272000  0.57940000  0.80812000  1.0 0.1697884714
C  C19  1  0.63272000  0.92060000  0.30812000  1.0 0.1697884714
C  C20  1  0.36728000  0.42060000  0.19188000  1.0 0.1697884714
C  C21  1  0.37978000  0.09530000  0.64898000  1.0 0.1512527043
C  C22  1  0.62022000  0.59530000  0.85102000  1.0 0.1512527043
C  C23  1  0.62022000  0.90470000  0.35102000  1.0 0.1512527043
C  C24  1  0.37978000  0.40470000  0.14898000  1.0 0.1512527043
C  C25  1  0.47559000  0.14710000  0.62909000  1.0 0.1405398708
C  C26  1  0.52441000  0.64710000  0.87091000  1.0 0.1405398708
C  C27  1  0.52441000  0.85290000  0.37091000  1.0 0.1405398708
C  C28  1  0.47559000  0.35290000  0.12909000  1.0 0.1405398708
C  C29  1  0.56510000  0.15630000  0.64740000  1.0 0.1803201502
C  C30  1  0.43490000  0.65630000  0.85260000  1.0 0.1803201502
C  C31  1  0.43490000  0.84370000  0.35260000  1.0 0.1803201502
C  C32  1  0.56510000  0.34370000  0.14740000  1.0 0.1803201502
C  C33  1  0.60330000  0.17570000  0.61920000  1.0 -0.1815074903
C  C34  1  0.39670000  0.67570000  0.88080000  1.0 -0.1815074903
C  C35  1  0.39670000  0.82430000  0.38080000  1.0 -0.1815074903
C  C36  1  0.60330000  0.32430000  0.11920000  1.0 -0.1815074903
C  C37  1  0.68750000  0.18420000  0.64050000  1.0 -0.0093285808
C  C38  1  0.31250000  0.68420000  0.85950000  1.0 -0.0093285808
C  C39  1  0.31250000  0.81580000  0.35950000  1.0 -0.0093285808
C  C40  1  0.68750000  0.31580000  0.14050000  1.0 -0.0093285808
C  C41  1  0.73050000  0.17240000  0.68840000  1.0 -0.1094174949
C  C42  1  0.26950000  0.67240000  0.81160000  1.0 -0.1094174949
C  C43  1  0.26950000  0.82760000  0.31160000  1.0 -0.1094174949
C  C44  1  0.73050000  0.32760000  0.18840000  1.0 -0.1094174949
C  C45  1  0.69020000  0.15010000  0.71430000  1.0 0.0998751609
C  C46  1  0.30980000  0.65010000  0.78570000  1.0 0.0998751609
C  C47  1  0.30980000  0.84990000  0.28570000  1.0 0.0998751609
C  C48  1  0.69020000  0.34990000  0.21430000  1.0 0.0998751609
C  C49  1  0.13373000  0.03750000  0.50503000  1.0 0.106546712
C  C50  1  0.86627000  0.53750000  0.99497000  1.0 0.106546712
C  C51  1  0.86627000  0.96250000  0.49497000  1.0 0.106546712
C  C52  1  0.13373000  0.46250000  0.00503000  1.0 0.106546712
C  C53  1  0.10717000  0.98680000  0.52477000  1.0 -0.1201645305
C  C54  1  0.89283000  0.48680000  0.97523000  1.0 -0.1201645305
C  C55  1  0.89283000  0.01320000  0.47523000  1.0 -0.1201645305
C  C56  1  0.10717000  0.51320000  0.02477000  1.0 -0.1201645305
C  C57  1  0.15380000  0.97050000  0.57140000  1.0 -0.0093285808
C  C58  1  0.84620000  0.47050000  0.92860000  1.0 -0.0093285808
C  C59  1  0.84620000  0.02950000  0.42860000  1.0 -0.0093285808
C  C60  1  0.15380000  0.52950000  0.07140000  1.0 -0.0093285808
C  C61  1  0.22601000  0.00550000  0.59801000  1.0 -0.1201645305
C  C62  1  0.77399000  0.50550000  0.90199000  1.0 -0.1201645305
C  C63  1  0.77399000  0.99450000  0.40199000  1.0 -0.1201645305
C  C64  1  0.22601000  0.49450000  0.09801000  1.0 -0.1201645305
C  C65  1  0.24725000  0.05630000  0.57615000  1.0 0.1803201502
C  C66  1  0.75275000  0.55630000  0.92385000  1.0 0.1803201502
C  C67  1  0.75275000  0.94370000  0.42385000  1.0 0.1803201502
C  C68  1  0.24725000  0.44370000  0.07615000  1.0 0.1803201502
C  C69  1  0.32289000  0.09620000  0.60049000  1.0 0.1512527043
C  C70  1  0.67711000  0.59620000  0.89951000  1.0 0.1512527043
C  C71  1  0.67711000  0.90380000  0.39951000  1.0 0.1512527043
C  C72  1  0.32289000  0.40380000  0.10049000  1.0 0.1512527043
C  C73  1  0.41151000  0.16780000  0.58611000  1.0 0.106546712
C  C74  1  0.58849000  0.66780000  0.91389000  1.0 0.106546712
C  C75  1  0.58849000  0.83220000  0.41389000  1.0 0.106546712
C  C76  1  0.41151000  0.33220000  0.08611000  1.0 0.106546712
C  C77  1  0.40830000  0.22160000  0.55320000  1.0 0.1697884714
C  C78  1  0.59170000  0.72160000  0.94680000  1.0 0.1697884714
C  C79  1  0.59170000  0.77840000  0.44680000  1.0 0.1697884714
C  C80  1  0.40830000  0.27840000  0.05320000  1.0 0.1697884714
C  C81  1  0.45840000  0.27630000  0.56730000  1.0 -0.1815074903
C  C82  1  0.54160000  0.77630000  0.93270000  1.0 -0.1815074903
C  C83  1  0.54160000  0.72370000  0.43270000  1.0 -0.1815074903
C  C84  1  0.45840000  0.22370000  0.06730000  1.0 -0.1815074903
C  C85  1  0.44330000  0.32770000  0.53510000  1.0 -0.0169832574
C  C86  1  0.55670000  0.82770000  0.96490000  1.0 -0.0169832574
C  C87  1  0.55670000  0.67230000  0.46490000  1.0 -0.0169832574
C  C88  1  0.44330000  0.17230000  0.03510000  1.0 -0.0169832574
C  C89  1  0.38100000  0.32280000  0.49060000  1.0 -0.1094174949
C  C90  1  0.61900000  0.82280000  0.00940000  1.0 -0.1094174949
C  C91  1  0.61900000  0.67720000  0.50940000  1.0 -0.1094174949
C  C92  1  0.38100000  0.17720000  0.99060000  1.0 -0.1094174949
C  C93  1  0.33130000  0.26680000  0.47880000  1.0 0.1206335377
C  C94  1  0.66870000  0.76680000  0.02120000  1.0 0.1206335377
C  C95  1  0.66870000  0.73320000  0.52120000  1.0 0.1206335377
C  C96  1  0.33130000  0.23320000  0.97880000  1.0 0.1206335377
C  C97  1  0.18770000  0.27220000  0.52140000  1.0 0.0998751609
C  C98  1  0.81230000  0.77220000  0.97860000  1.0 0.0998751609
C  C99  1  0.81230000  0.72780000  0.47860000  1.0 0.0998751609
C  C100  1  0.18770000  0.22780000  0.02140000  1.0 0.0998751609
C  C101  1  0.13990000  0.32800000  0.50980000  1.0 -0.1201645305
C  C102  1  0.86010000  0.82800000  0.99020000  1.0 -0.1329155716
C  C103  1  0.86010000  0.67200000  0.49020000  1.0 -0.1201645305
C  C104  1  0.13990000  0.17200000  0.00980000  1.0 -0.1201645305
C  C105  1  0.07700000  0.33350000  0.46470000  1.0 -0.0169832574
C  C106  1  0.92300000  0.83350000  0.03530000  1.0 -0.0169832574
C  C107  1  0.92300000  0.66650000  0.53530000  1.0 -0.0169832574
C  C108  1  0.07700000  0.16650000  0.96470000  1.0 -0.0169832574
C  C109  1  0.06280000  0.28290000  0.43260000  1.0 -0.1577767442
C  C110  1  0.93720000  0.78290000  0.06740000  1.0 -0.1577767442
C  C111  1  0.93720000  0.71710000  0.56740000  1.0 -0.1577767442
C  C112  1  0.06280000  0.21710000  0.93260000  1.0 -0.1577767442
C  C113  1  0.11040000  0.22670000  0.44720000  1.0 0.1803201502
C  C114  1  0.88960000  0.72670000  0.05280000  1.0 0.1803201502
C  C115  1  0.88960000  0.77330000  0.55280000  1.0 0.1803201502
C  C116  1  0.11040000  0.27330000  0.94720000  1.0 0.1803201502
C  C117  1  0.10419000  0.17050000  0.41529000  1.0 0.1206335377
C  C118  1  0.89581000  0.67050000  0.08471000  1.0 0.1206335377
C  C119  1  0.89581000  0.82950000  0.58471000  1.0 0.1206335377
C  C120  1  0.10419000  0.32950000  0.91529000  1.0 0.1206335377
C  C121  1  0.18476000  0.08880000  0.40356000  1.0 0.1512527043
C  C122  1  0.81524000  0.58880000  0.09644000  1.0 0.1512527043
C  C123  1  0.81524000  0.91120000  0.59644000  1.0 0.1512527043
C  C124  1  0.18476000  0.41120000  0.90356000  1.0 0.1512527043
C  C125  1  0.25654000  0.04570000  0.43094000  1.0 0.1803201502
C  C126  1  0.74346000  0.54570000  0.06906000  1.0 0.1803201502
C  C127  1  0.74346000  0.95430000  0.56906000  1.0 0.1803201502
C  C128  1  0.25654000  0.45430000  0.93094000  1.0 0.1803201502
C  C129  1  0.26780000  0.98420000  0.41570000  1.0 -0.1577767442
C  C130  1  0.73220000  0.48420000  0.08430000  1.0 -0.1577767442
C  C131  1  0.73220000  0.01580000  0.58430000  1.0 -0.1577767442
C  C132  1  0.26780000  0.51580000  0.91570000  1.0 -0.1577767442
C  C133  1  0.33710000  0.94830000  0.44480000  1.0 -0.0169832574
C  C134  1  0.66290000  0.44830000  0.05520000  1.0 -0.0169832574
C  C135  1  0.66290000  0.05170000  0.55520000  1.0 -0.0169832574
C  C136  1  0.33710000  0.55170000  0.94480000  1.0 -0.0169832574
C  C137  1  0.39185000  0.97470000  0.48795000  1.0 -0.1009961982
C  C138  1  0.60815000  0.47470000  0.01205000  1.0 -0.1009961982
C  C139  1  0.60815000  0.02530000  0.51205000  1.0 -0.1009961982
C  C140  1  0.39185000  0.52530000  0.98795000  1.0 -0.1009961982
C  C141  1  0.37404000  0.03510000  0.50104000  1.0 0.1206335377
C  C142  1  0.62596000  0.53510000  0.99896000  1.0 0.1206335377
C  C143  1  0.62596000  0.96490000  0.49896000  1.0 0.1206335377
C  C144  1  0.37404000  0.46490000  0.00104000  1.0 0.1206335377
C  C145  1  0.83850000  0.19360000  0.27890000  1.0 0.0998751609
C  C146  1  0.16150000  0.69360000  0.22110000  1.0 0.0998751609
C  C147  1  0.16150000  0.80640000  0.72110000  1.0 0.0998751609
C  C148  1  0.83850000  0.30640000  0.77890000  1.0 0.0998751609
C  C149  1  0.79350000  0.21170000  0.30310000  1.0 -0.1094174949
C  C150  1  0.20650000  0.71170000  0.19690000  1.0 -0.1094174949
C  C151  1  0.20650000  0.78830000  0.69690000  1.0 -0.1094174949
C  C152  1  0.79350000  0.28830000  0.80310000  1.0 -0.1094174949
C  C153  1  0.83040000  0.20860000  0.35240000  1.0 0.0043873349
C  C154  1  0.16960000  0.70860000  0.14760000  1.0 0.0043873349
C  C155  1  0.16960000  0.79140000  0.64760000  1.0 0.0043873349
C  C156  1  0.83040000  0.29140000  0.85240000  1.0 0.0043873349
C  C157  1  0.91180000  0.19050000  0.37630000  1.0 -0.1815074903
C  C158  1  0.08820000  0.69050000  0.12370000  1.0 -0.1815074903
C  C159  1  0.08820000  0.80950000  0.62370000  1.0 -0.1815074903
C  C160  1  0.91180000  0.30950000  0.87630000  1.0 -0.1815074903
C  C161  1  0.95368000  0.17490000  0.34978000  1.0 0.1645101709
C  C162  1  0.04632000  0.67490000  0.15022000  1.0 0.1645101709
C  C163  1  0.04632000  0.82510000  0.65022000  1.0 0.1645101709
C  C164  1  0.95368000  0.32510000  0.84978000  1.0 0.1645101709
C  C165  1  0.04102000  0.15460000  0.37082000  1.0 0.1321031553
C  C166  1  0.95898000  0.65460000  0.12918000  1.0 0.1321031553
C  C167  1  0.95898000  0.84540000  0.62918000  1.0 0.1321031553
C  C168  1  0.04102000  0.34540000  0.87082000  1.0 0.1321031553
C  C169  1  0.13267000  0.08900000  0.35487000  1.0 0.1405398708
C  C170  1  0.86733000  0.58900000  0.14513000  1.0 0.1405398708
C  C171  1  0.86733000  0.91100000  0.64513000  1.0 0.1405398708
C  C172  1  0.13267000  0.41100000  0.85487000  1.0 0.1405398708
C  C173  1  0.14734000  0.06520000  0.31454000  1.0 0.1645101709
C  C174  1  0.85266000  0.56520000  0.18546000  1.0 0.1645101709
C  C175  1  0.85266000  0.93480000  0.68546000  1.0 0.1645101709
C  C176  1  0.14734000  0.43480000  0.81454000  1.0 0.1645101709
C  C177  1  0.22139000  0.04730000  0.31709000  1.0 -0.1329155716
C  C178  1  0.77861000  0.54730000  0.18291000  1.0 -0.1329155716
C  C179  1  0.77861000  0.95270000  0.68291000  1.0 -0.1329155716
C  C180  1  0.22139000  0.45270000  0.81709000  1.0 -0.1329155716
C  C181  1  0.22790000  0.02630000  0.27630000  1.0 -0.0039234942
C  C182  1  0.77210000  0.52630000  0.22370000  1.0 -0.0039234942
C  C183  1  0.77210000  0.97370000  0.72370000  1.0 -0.0039234942
C  C184  1  0.22790000  0.47370000  0.77630000  1.0 -0.0039234942
C  C185  1  0.15800000  0.02440000  0.23370000  1.0 -0.1094174949
C  C186  1  0.84200000  0.52440000  0.26630000  1.0 -0.1094174949
C  C187  1  0.84200000  0.97560000  0.76630000  1.0 -0.1094174949
C  C188  1  0.15800000  0.47560000  0.73370000  1.0 -0.1094174949
C  C189  1  0.08520000  0.04600000  0.23320000  1.0 0.1206335377
C  C190  1  0.91480000  0.54600000  0.26680000  1.0 0.1206335377
C  C191  1  0.91480000  0.95400000  0.76680000  1.0 0.1206335377
C  C192  1  0.08520000  0.45400000  0.73320000  1.0 0.1206335377
C  C193  1  0.82674000  0.36740000  0.03014000  1.0 -0.4892323462
C  C194  1  0.17326000  0.86740000  0.46986000  1.0 -0.4892323462
C  C195  1  0.17326000  0.63260000  0.96986000  1.0 -0.4892323462
C  C196  1  0.82674000  0.13260000  0.53014000  1.0 -0.4892323462
C  C197  1  0.16652000  0.22020000  0.21422000  1.0 -0.4674020979
C  C198  1  0.83348000  0.72020000  0.28578000  1.0 -0.4674020979
C  C199  1  0.83348000  0.77980000  0.78578000  1.0 -0.4674020979
C  C200  1  0.16652000  0.27980000  0.71422000  1.0 -0.4674020979
C  C201  1  0.25259000  0.24580000  0.24619000  1.0 -0.0622484545
C  C202  1  0.74741000  0.74580000  0.25381000  1.0 -0.0622484545
C  C203  1  0.74741000  0.75420000  0.75381000  1.0 -0.0622484545
C  C204  1  0.25259000  0.25420000  0.74619000  1.0 -0.0622484545
C  C205  1  0.30900000  0.18590000  0.26530000  1.0 -0.4674020979
C  C206  1  0.69100000  0.68590000  0.23470000  1.0 -0.4674020979
C  C207  1  0.69100000  0.81410000  0.73470000  1.0 -0.4674020979
C  C208  1  0.30900000  0.31410000  0.76530000  1.0 -0.4674020979
C  C209  1  0.70998000  0.35940000  0.94678000  1.0 -0.4892323462
C  C210  1  0.29002000  0.85940000  0.55322000  1.0 -0.4892323462
C  C211  1  0.29002000  0.64060000  0.05322000  1.0 -0.4892323462
C  C212  1  0.70998000  0.14060000  0.44678000  1.0 -0.4892323462
C  C213  1  0.74761000  0.33230000  0.99701000  1.0 -0.0358004599
C  C214  1  0.25239000  0.83230000  0.50299000  1.0 -0.0358004599
C  C215  1  0.25239000  0.66770000  0.00299000  1.0 -0.0358004599
C  C216  1  0.74761000  0.16770000  0.49701000  1.0 -0.0358004599
N  N1  1  0.43745000  0.06530000  0.73075000  1.0 -0.2628595545
N  N2  1  0.56255000  0.56530000  0.76925000  1.0 -0.2628595545
N  N3  1  0.56255000  0.93470000  0.26925000  1.0 -0.2628595545
N  N4  1  0.43745000  0.43470000  0.23075000  1.0 -0.2628595545
N  N5  1  0.45594000  0.11450000  0.65964000  1.0 -0.2883948135
N  N6  1  0.54406000  0.61450000  0.84036000  1.0 -0.2883948135
N  N7  1  0.54406000  0.88550000  0.34036000  1.0 -0.2883948135
N  N8  1  0.45594000  0.38550000  0.15964000  1.0 -0.2883948135
N  N9  1  0.60853000  0.14130000  0.69383000  1.0 -0.2628595545
N  N10  1  0.39147000  0.64130000  0.80617000  1.0 -0.2628595545
N  N11  1  0.39147000  0.85870000  0.30617000  1.0 -0.2628595545
N  N12  1  0.60853000  0.35870000  0.19383000  1.0 -0.2628595545
N  N13  1  0.20210000  0.07160000  0.52960000  1.0 -0.2390040618
N  N14  1  0.79790000  0.57160000  0.97040000  1.0 -0.2390040618
N  N15  1  0.79790000  0.92840000  0.47040000  1.0 -0.2390040618
N  N16  1  0.20210000  0.42840000  0.02960000  1.0 -0.2390040618
N  N17  1  0.33940000  0.13600000  0.57210000  1.0 -0.2342147278
N  N18  1  0.66060000  0.63600000  0.92790000  1.0 -0.2342147278
N  N19  1  0.66060000  0.86400000  0.42790000  1.0 -0.2342147278
N  N20  1  0.33940000  0.36400000  0.07210000  1.0 -0.2390040618
N  N21  1  0.34367000  0.21780000  0.50937000  1.0 -0.2390040618
N  N22  1  0.65633000  0.71780000  0.99063000  1.0 -0.2390040618
N  N23  1  0.65633000  0.78220000  0.49063000  1.0 -0.2390040618
N  N24  1  0.34367000  0.28220000  0.00937000  1.0 -0.2390040618
N  N25  1  0.17508000  0.22200000  0.49108000  1.0 -0.2390040618
N  N26  1  0.82492000  0.72200000  0.00892000  1.0 -0.2390040618
N  N27  1  0.82492000  0.77800000  0.50892000  1.0 -0.2390040618
N  N28  1  0.17508000  0.27800000  0.99108000  1.0 -0.2390040618
N  N29  1  0.17093000  0.13270000  0.43113000  1.0 -0.2390040618
N  N30  1  0.82907000  0.63270000  0.06887000  1.0 -0.2390040618
N  N31  1  0.82907000  0.86730000  0.56887000  1.0 -0.2390040618
N  N32  1  0.17093000  0.36730000  0.93113000  1.0 -0.2390040618
N  N33  1  0.30753000  0.06960000  0.47453000  1.0 -0.2390040618
N  N34  1  0.69247000  0.56960000  0.02547000  1.0 -0.2390040618
N  N35  1  0.69247000  0.93040000  0.52547000  1.0 -0.2390040618
N  N36  1  0.30753000  0.43040000  0.97453000  1.0 -0.2390040618
N  N37  1  0.91630000  0.17370000  0.30140000  1.0 -0.2772159624
N  N38  1  0.08370000  0.67370000  0.19860000  1.0 -0.2772159624
N  N39  1  0.08370000  0.82630000  0.69860000  1.0 -0.2772159624
N  N40  1  0.91630000  0.32630000  0.80140000  1.0 -0.2772159624
N  N41  1  0.05983000  0.11820000  0.34163000  1.0 -0.2514082219
N  N42  1  0.94017000  0.61820000  0.15837000  1.0 -0.2514082219
N  N43  1  0.94017000  0.88180000  0.65837000  1.0 -0.2514082219
N  N44  1  0.05983000  0.38180000  0.84163000  1.0 -0.2514082219
N  N45  1  0.07930000  0.06660000  0.27190000  1.0 -0.2705862569
N  N46  1  0.92070000  0.56660000  0.22810000  1.0 -0.2705862569
N  N47  1  0.92070000  0.93340000  0.72810000  1.0 -0.2705862569
N  N48  1  0.07930000  0.43340000  0.77190000  1.0 -0.2705862569
O  O1  1  0.93467000  0.15313000  0.20097000  1.0 -0.667844032
O  O2  1  0.06533000  0.65313000  0.29903000  1.0 -0.667844032
O  O3  1  0.06533000  0.84687000  0.79903000  1.0 -0.667844032
O  O4  1  0.93467000  0.34687000  0.70097000  1.0 -0.667844032
O  O5  1  0.78378000  0.18950000  0.14258000  1.0 -0.6006586822
O  O6  1  0.21622000  0.68950000  0.35742000  1.0 -0.6006586822
O  O7  1  0.21622000  0.81050000  0.85742000  1.0 -0.6006586822
O  O8  1  0.78378000  0.31050000  0.64258000  1.0 -0.6006586822
O  O9  1  0.90297000  0.28588000  0.18939000  1.0 -0.840159863
O  O10  1  0.09703000  0.78588000  0.31061000  1.0 -0.840159863
O  O11  1  0.09703000  0.71412000  0.81061000  1.0 -0.840159863
O  O12  1  0.90297000  0.21412000  0.68939000  1.0 -0.840159863
O  O13  1  0.98005000  0.38130000  0.26175000  1.0 -0.5806071657
O  O14  1  0.01995000  0.88130000  0.23825000  1.0 -0.5806071657
O  O15  1  0.01995000  0.61870000  0.73825000  1.0 -0.5806071657
O  O16  1  0.98005000  0.11870000  0.76175000  1.0 -0.5806071657
O  O17  1  0.86092000  0.41664000  0.17842000  1.0 -0.6420539913
O  O18  1  0.13908000  0.91664000  0.32158000  1.0 -0.6420539913
O  O19  1  0.13908000  0.58336000  0.82158000  1.0 -0.6420539913
O  O20  1  0.86092000  0.08336000  0.67842000  1.0 -0.6420539913
O  O21  1  0.02193000  0.43619000  0.19283000  1.0 -0.8227351802
O  O22  1  0.97807000  0.93619000  0.30717000  1.0 -0.8227351802
O  O23  1  0.97807000  0.56381000  0.80717000  1.0 -0.8227351802
O  O24  1  0.02193000  0.06381000  0.69283000  1.0 -0.8227351802
O  O25  1  0.93673000  0.36570000  0.12387000  1.0 -0.8581915307
O  O26  1  0.06327000  0.86570000  0.37613000  1.0 -0.8682766663
O  O27  1  0.06327000  0.63430000  0.87613000  1.0 -0.8682766663
O  O28  1  0.93673000  0.13430000  0.62387000  1.0 -0.8682766663
O  O29  1  0.01014000  0.22796000  0.15565000  1.0 -0.8227351802
O  O30  1  0.98986000  0.72796000  0.34435000  1.0 -0.8227351802
O  O31  1  0.98986000  0.77204000  0.84435000  1.0 -0.8227351802
O  O32  1  0.01014000  0.27204000  0.65565000  1.0 -0.8227351802
O  O33  1  0.94570000  0.27753000  0.06814000  1.0 -0.8274770277
O  O34  1  0.05430000  0.77753000  0.43186000  1.0 -0.8274770277
O  O35  1  0.05430000  0.72247000  0.93186000  1.0 -0.8274770277
O  O36  1  0.94570000  0.22247000  0.56814000  1.0 -0.8274770277
O  O37  1  0.08279000  0.22056000  0.09389000  1.0 -0.8581915307
O  O38  1  0.91721000  0.72056000  0.40611000  1.0 -0.8682766663
O  O39  1  0.91721000  0.77944000  0.90611000  1.0 -0.8682766663
O  O40  1  0.08279000  0.27944000  0.59389000  1.0 -0.8682766663
O  O41  1  0.94506000  0.14562000  0.03496000  1.0 -0.6006586822
O  O42  1  0.05494000  0.64562000  0.46504000  1.0 -0.6051232564
O  O43  1  0.05494000  0.85438000  0.96504000  1.0 -0.6006586822
O  O44  1  0.94506000  0.35438000  0.53496000  1.0 -0.6006586822
O  O45  1  0.17121000  0.32877000  0.09071000  1.0 -0.6580373506
O  O46  1  0.82879000  0.82877000  0.40929000  1.0 -0.6580373506
O  O47  1  0.82879000  0.67123000  0.90929000  1.0 -0.6580373506
O  O48  1  0.17121000  0.17123000  0.59071000  1.0 -0.6580373506
O  O49  1  0.02728000  0.39831000  0.07718000  1.0 -0.8771329719
O  O50  1  0.97272000  0.89831000  0.42282000  1.0 -0.8771329719
O  O51  1  0.97272000  0.60169000  0.92282000  1.0 -0.8771329719
O  O52  1  0.02728000  0.10169000  0.57718000  1.0 -0.8771329719
O  O53  1  0.96589000  0.50454000  0.10549000  1.0 -0.6580373506
O  O54  1  0.03411000  0.00454000  0.39451000  1.0 -0.6580373506
O  O55  1  0.03411000  0.49546000  0.89451000  1.0 -0.6580373506
O  O56  1  0.96589000  0.99546000  0.60549000  1.0 -0.6580373506
O  O57  1  0.89494000  0.15639000  0.10454000  1.0 -0.9399161535
O  O58  1  0.10506000  0.65639000  0.39546000  1.0 -0.9399161535
O  O59  1  0.10506000  0.84361000  0.89546000  1.0 -0.9399161535
O  O60  1  0.89494000  0.34361000  0.60454000  1.0 -0.9399161535
O  O61  1  0.83351000  0.27577000  0.09481000  1.0 -0.7318290594
O  O62  1  0.16649000  0.77577000  0.40519000  1.0 -0.7318290594
O  O63  1  0.16649000  0.72423000  0.90519000  1.0 -0.7318290594
O  O64  1  0.83351000  0.22423000  0.59481000  1.0 -0.7318290594
O  O65  1  0.02976000  0.30568000  0.01366000  1.0 -0.629677673
O  O66  1  0.97024000  0.80568000  0.48634000  1.0 -0.629677673
O  O67  1  0.97024000  0.69432000  0.98634000  1.0 -0.629677673
O  O68  1  0.02976000  0.19432000  0.51366000  1.0 -0.629677673
O  O69  1  0.09713000  0.32576000  0.15303000  1.0 -0.840159863
O  O70  1  0.90287000  0.82576000  0.34697000  1.0 -0.840159863
O  O71  1  0.90287000  0.67424000  0.84697000  1.0 -0.840159863
O  O72  1  0.09713000  0.17424000  0.65303000  1.0 -0.840159863
O  O73  1  0.12520000  0.47430000  0.15620000  1.0 -0.6006586822
O  O74  1  0.87480000  0.97430000  0.34380000  1.0 -0.6051232564
O  O75  1  0.87480000  0.52570000  0.84380000  1.0 -0.6051232564
O  O76  1  0.12520000  0.02570000  0.65620000  1.0 -0.6051232564
O  O77  1  0.06221000  0.31031000  0.22156000  1.0 -0.6815357703
O  O78  1  0.93779000  0.81031000  0.27844000  1.0 -0.6815357703
O  O79  1  0.93779000  0.68969000  0.77844000  1.0 -0.6815357703
O  O80  1  0.06221000  0.18969000  0.72156000  1.0 -0.6815357703
O  O81  1  0.56917000  0.00040000  0.69547000  1.0 -0.6815357703
O  O82  1  0.43083000  0.50040000  0.80453000  1.0 -0.6815357703
O  O83  1  0.43083000  0.99960000  0.30453000  1.0 -0.6815357703
O  O84  1  0.56917000  0.49960000  0.19547000  1.0 -0.6815357703
O  O85  1  0.55005000  0.16320000  0.76605000  1.0 -0.6580373506
O  O86  1  0.44995000  0.66320000  0.73395000  1.0 -0.6580373506
O  O87  1  0.44995000  0.83680000  0.23395000  1.0 -0.6580373506
O  O88  1  0.55005000  0.33680000  0.26605000  1.0 -0.6580373506
O  O89  1  0.43075000  0.22036000  0.35035000  1.0 -0.8486620645
O  O90  1  0.56925000  0.72036000  0.14965000  1.0 -0.8486620645
O  O91  1  0.56925000  0.77964000  0.64965000  1.0 -0.8486620645
O  O92  1  0.43075000  0.27964000  0.85035000  1.0 -0.8486620645
O  O93  1  0.46587000  0.25250000  0.93467000  1.0 -0.8682766663
O  O94  1  0.53413000  0.75250000  0.56533000  1.0 -0.8682766663
O  O95  1  0.53413000  0.74750000  0.06533000  1.0 -0.8682766663
O  O96  1  0.46587000  0.24750000  0.43467000  1.0 -0.8682766663
O  O97  1  0.54390000  0.36765000  0.90760000  1.0 -0.8486620645
O  O98  1  0.45610000  0.86765000  0.59240000  1.0 -0.8486620645
O  O99  1  0.45610000  0.63235000  0.09240000  1.0 -0.8486620645
O  O100  1  0.54390000  0.13235000  0.40760000  1.0 -0.8486620645
O  O101  1  0.54209000  0.17740000  0.85429000  1.0 -0.8486620645
O  O102  1  0.45791000  0.67740000  0.64571000  1.0 -0.8486620645
O  O103  1  0.45791000  0.82260000  0.14571000  1.0 -0.8486620645
O  O104  1  0.54209000  0.32260000  0.35429000  1.0 -0.8486620645
O  O105  1  0.44752000  0.25180000  0.27772000  1.0 -0.7245638418
O  O106  1  0.55248000  0.75180000  0.22228000  1.0 -0.7245638418
O  O107  1  0.55248000  0.74820000  0.72228000  1.0 -0.7245638418
O  O108  1  0.44752000  0.24820000  0.77772000  1.0 -0.7245638418
O  O109  1  0.58718000  0.29378000  0.77748000  1.0 -0.8771329719
O  O110  1  0.41282000  0.79378000  0.72252000  1.0 -0.8771329719
O  O111  1  0.41282000  0.70622000  0.22252000  1.0 -0.8771329719
O  O112  1  0.58718000  0.20622000  0.27748000  1.0 -0.8771329719
O  O113  1  0.60783000  0.31040000  0.85943000  1.0 -0.8581915307
O  O114  1  0.39217000  0.81040000  0.64057000  1.0 -0.8581915307
O  O115  1  0.39217000  0.68960000  0.14057000  1.0 -0.8581915307
O  O116  1  0.60783000  0.18960000  0.35943000  1.0 -0.8581915307
O  O117  1  0.45997000  0.13296000  0.30197000  1.0 -0.840159863
O  O118  1  0.54003000  0.63296000  0.19803000  1.0 -0.840159863
O  O119  1  0.54003000  0.86704000  0.69803000  1.0 -0.840159863
O  O120  1  0.45997000  0.36704000  0.80197000  1.0 -0.840159863
O  O121  1  0.68253000  0.19760000  0.84353000  1.0 -0.5922833728
O  O122  1  0.31747000  0.69760000  0.65647000  1.0 -0.5922833728
O  O123  1  0.31747000  0.80240000  0.15647000  1.0 -0.5922833728
O  O124  1  0.68253000  0.30240000  0.34353000  1.0 -0.5922833728
O  O125  1  0.41547000  0.94263000  0.65196000  1.0 -0.8486620645
O  O126  1  0.58453000  0.44263000  0.84804000  1.0 -0.8486620645
O  O127  1  0.58453000  0.05737000  0.34804000  1.0 -0.8486620645
O  O128  1  0.41547000  0.55737000  0.15196000  1.0 -0.8486620645
O  O129  1  0.48299000  0.00821000  0.60059000  1.0 -0.6488704356
O  O130  1  0.51701000  0.50821000  0.89941000  1.0 -0.6488704356
O  O131  1  0.51701000  0.99179000  0.39941000  1.0 -0.6488704356
O  O132  1  0.48299000  0.49179000  0.10059000  1.0 -0.6488704356
O  O133  1  0.60028000  0.90964000  0.63708000  1.0 -0.8581915307
O  O134  1  0.39972000  0.40964000  0.86292000  1.0 -0.8581915307
O  O135  1  0.39972000  0.09036000  0.36292000  1.0 -0.8581915307
O  O136  1  0.60028000  0.59036000  0.13708000  1.0 -0.8581915307
O  O137  1  0.45113000  0.37720000  0.95993000  1.0 -0.6420539913
O  O138  1  0.54887000  0.87720000  0.54007000  1.0 -0.6420539913
O  O139  1  0.54887000  0.62280000  0.04007000  1.0 -0.6420539913
O  O140  1  0.45113000  0.12280000  0.45993000  1.0 -0.6420539913
O  O141  1  0.55112000  0.13470000  0.94182000  1.0 -0.5922833728
O  O142  1  0.44888000  0.63470000  0.55818000  1.0 -0.5922833728
O  O143  1  0.44888000  0.86530000  0.05818000  1.0 -0.5922833728
O  O144  1  0.55112000  0.36530000  0.44182000  1.0 -0.5922833728
O  O145  1  0.31669000  0.32240000  0.89029000  1.0 -0.6580373506
O  O146  1  0.68331000  0.82240000  0.60971000  1.0 -0.6580373506
O  O147  1  0.68331000  0.67760000  0.10971000  1.0 -0.6580373506
O  O148  1  0.31669000  0.17760000  0.39029000  1.0 -0.6580373506
O  O149  1  0.60836000  0.25531000  0.93116000  1.0 -0.7318290594
O  O150  1  0.39164000  0.75531000  0.56884000  1.0 -0.7318290594
O  O151  1  0.39164000  0.74469000  0.06884000  1.0 -0.7318290594
O  O152  1  0.60836000  0.24469000  0.43116000  1.0 -0.7318290594
O  O153  1  0.45810000  0.91960000  0.74940000  1.0 -0.5684239316
O  O154  1  0.54190000  0.41960000  0.75060000  1.0 -0.5684239316
O  O155  1  0.54190000  0.08040000  0.25060000  1.0 -0.5684239316
O  O156  1  0.45810000  0.58040000  0.24940000  1.0 -0.5684239316
O  O157  1  0.30551000  0.89960000  0.68231000  1.0 -0.629677673
O  O158  1  0.69449000  0.39960000  0.81769000  1.0 -0.629677673
O  O159  1  0.69449000  0.10040000  0.31769000  1.0 -0.629677673
O  O160  1  0.30551000  0.60040000  0.18231000  1.0 -0.629677673
O  O161  1  0.40367000  0.14840000  0.86947000  1.0 -0.6488704356
O  O162  1  0.59633000  0.64840000  0.63053000  1.0 -0.6488704356
O  O163  1  0.59633000  0.85160000  0.13053000  1.0 -0.6488704356
O  O164  1  0.40367000  0.35160000  0.36947000  1.0 -0.6488704356
O  O165  1  0.04740000  0.10220000  0.12270000  1.0 -0.6420539913
O  O166  1  0.95260000  0.60220000  0.37730000  1.0 -0.6420539913
O  O167  1  0.95260000  0.89780000  0.87730000  1.0 -0.6420539913
O  O168  1  0.04740000  0.39780000  0.62270000  1.0 -0.6420539913
O  O169  1  0.05505000  0.21530000  0.28125000  1.0 -0.3106358993
O  O170  1  0.94495000  0.71530000  0.21875000  1.0 -0.3106358993
O  O171  1  0.94495000  0.78470000  0.71875000  1.0 -0.3106358993
O  O172  1  0.05505000  0.28470000  0.78125000  1.0 -0.3106358993
O  O173  1  0.90551000  0.04554000  0.25211000  1.0 -0.2514082219
O  O174  1  0.09449000  0.54554000  0.24789000  1.0 -0.2514082219
O  O175  1  0.09449000  0.95446000  0.74789000  1.0 -0.2628595545
O  O176  1  0.90551000  0.45446000  0.75211000  1.0 -0.2514082219
O  O177  1  0.64067000  0.04900000  0.78817000  1.0 -0.4892323462
O  O178  1  0.35933000  0.54900000  0.71183000  1.0 -0.4892323462
O  O179  1  0.35933000  0.95100000  0.21183000  1.0 -0.4892323462
O  O180  1  0.64067000  0.45100000  0.28817000  1.0 -0.4892323462
