# DDEC6 charges by PACMAN v1.1 (https://github.com/mtap-research/PACMAN-charge/)
data_IFEPUG06_ASR_pacman
_symmetry_space_group_name_H-M   'P 1'
_cell_length_a   18.76050000
_cell_length_b   18.76050000
_cell_length_c   18.76050000
_cell_angle_alpha   91.00800000
_cell_angle_beta   91.00800000
_cell_angle_gamma   164.75600000
_symmetry_Int_Tables_number   1
_chemical_formula_structural   ZnH16C22(NO2)2
_chemical_formula_sum   'Zn4 H64 C88 N8 O16'
_cell_volume   1720.75774300
_cell_formula_units_Z   4
loop_
 _symmetry_equiv_pos_site_id
 _symmetry_equiv_pos_as_xyz
  1  'x, y, z'
loop_
 _atom_site_type_symbol
 _atom_site_label
 _atom_site_symmetry_multiplicity
 _atom_site_fract_x
 _atom_site_fract_y
 _atom_site_fract_z
 _atom_site_occupancy
 _atom_site_charge
Zn  Zn1  1  0.15400000  0.09785000  0.48705000  1.0 0.8479320512
Zn  Zn2  1  0.61080000  0.66695000  0.51295000  1.0 0.8479320512
Zn  Zn3  1  0.33305000  0.84600000  0.94385000  1.0 0.8479320512
Zn  Zn4  1  0.90215000  0.38920000  0.05615000  1.0 0.8479320512
H  H1  1  0.10850000  0.18350000  0.48220000  1.0 0.3648585782
H  H2  1  0.70130000  0.62630000  0.51780000  1.0 0.3648585782
H  H3  1  0.37370000  0.89150000  0.07500000  1.0 0.365027617
H  H4  1  0.81650000  0.29870000  0.92500000  1.0 0.3648585782
H  H5  1  0.49020000  0.31810000  0.39730000  1.0 0.1093761183
H  H6  1  0.92080000  0.09290000  0.60270000  1.0 0.1093761183
H  H7  1  0.90710000  0.50980000  0.82790000  1.0 0.1093761183
H  H8  1  0.68190000  0.07920000  0.17210000  1.0 0.1093761183
H  H9  1  0.69980000  0.69750000  0.36070000  1.0 0.1361498007
H  H10  1  0.33680000  0.33910000  0.63930000  1.0 0.1361498007
H  H11  1  0.66090000  0.30020000  0.99770000  1.0 0.1361498007
H  H12  1  0.30250000  0.66320000  0.00230000  1.0 0.1361498007
H  H13  1  0.91860000  0.76330000  0.17150000  1.0 0.1181841722
H  H14  1  0.59180000  0.74710000  0.82850000  1.0 0.1181841722
H  H15  1  0.25290000  0.08140000  0.84470000  1.0 0.1181841722
H  H16  1  0.23670000  0.40820000  0.15530000  1.0 0.1181841722
H  H17  1  0.78760000  0.55240000  0.32400000  1.0 0.1093761183
H  H18  1  0.22840000  0.46360000  0.67600000  1.0 0.1093761183
H  H19  1  0.53640000  0.21240000  0.76480000  1.0 0.1093761183
H  H20  1  0.44760000  0.77160000  0.23520000  1.0 0.1093761183
H  H21  1  0.09240000  0.83790000  0.19690000  1.0 0.1028352857
H  H22  1  0.64100000  0.89550000  0.80310000  1.0 0.1028352857
H  H23  1  0.10450000  0.90760000  0.74550000  1.0 0.1028352857
H  H24  1  0.16210000  0.35900000  0.25450000  1.0 0.1028352857
H  H25  1  0.30240000  0.35520000  0.28500000  1.0 0.1181841722
H  H26  1  0.07020000  0.01740000  0.71500000  1.0 0.1181841722
H  H27  1  0.98260000  0.69760000  0.05280000  1.0 0.1181841722
H  H28  1  0.64480000  0.92980000  0.94720000  1.0 0.1181841722
H  H29  1  0.00670000  0.67240000  0.26990000  1.0 0.1028352857
H  H30  1  0.40250000  0.73680000  0.73010000  1.0 0.1028352857
H  H31  1  0.26320000  0.99330000  0.66570000  1.0 0.1028352857
H  H32  1  0.32760000  0.59750000  0.33430000  1.0 0.1028352857
H  H33  1  0.30450000  0.95090000  0.14140000  1.0 0.1361498007
H  H34  1  0.80950000  0.16310000  0.85860000  1.0 0.1361498007
H  H35  1  0.83690000  0.69550000  0.64640000  1.0 0.1361498007
H  H36  1  0.04910000  0.19050000  0.35360000  1.0 0.1361498007
H  H37  1  0.01660000  0.08060000  0.17660000  1.0 0.1028352857
H  H38  1  0.90400000  0.84000000  0.82340000  1.0 0.1028352857
H  H39  1  0.16000000  0.98340000  0.06400000  1.0 0.1028352857
H  H40  1  0.91940000  0.09600000  0.93600000  1.0 0.1028352857
H  H41  1  0.51680000  0.42140000  0.09740000  1.0 0.1093761183
H  H42  1  0.32400000  0.41940000  0.90260000  1.0 0.1093761183
H  H43  1  0.58060000  0.48320000  0.90460000  1.0 0.1093761183
H  H44  1  0.57860000  0.67600000  0.09540000  1.0 0.1181841722
H  H45  1  0.13220000  0.12020000  0.08280000  1.0 0.1028352857
H  H46  1  0.03740000  0.04940000  0.91720000  1.0 0.1028352857
H  H47  1  0.95060000  0.86780000  0.98800000  1.0 0.1028352857
H  H48  1  0.87980000  0.96260000  0.01200000  1.0 0.1028352857
H  H49  1  0.55870000  0.27040000  0.35770000  1.0 0.1268676525
H  H50  1  0.91270000  0.20100000  0.64230000  1.0 0.1268676525
H  H51  1  0.79900000  0.44130000  0.71170000  1.0 0.1268676525
H  H52  1  0.72960000  0.08730000  0.28830000  1.0 0.1268676525
H  H53  1  0.77780000  0.38760000  0.30460000  1.0 0.1268676525
H  H54  1  0.08300000  0.47320000  0.69540000  1.0 0.1268676525
H  H55  1  0.52680000  0.22220000  0.60980000  1.0 0.1268676525
H  H56  1  0.61240000  0.91700000  0.39020000  1.0 0.1268676525
H  H57  1  0.52840000  0.22890000  0.10530000  1.0 0.1093761183
H  H58  1  0.12360000  0.42310000  0.89470000  1.0 0.1093761183
H  H59  1  0.57690000  0.47160000  0.70050000  1.0 0.1093761183
H  H60  1  0.77110000  0.87640000  0.29950000  1.0 0.1093761183
H  H61  1  0.32000000  0.11970000  0.16470000  1.0 0.1093761183
H  H62  1  0.95500000  0.15530000  0.83530000  1.0 0.1093761183
H  H63  1  0.84470000  0.68000000  0.79970000  1.0 0.1093761183
H  H64  1  0.88030000  0.04500000  0.20030000  1.0 0.1093761183
C  C1  1  0.33640000  0.18540000  0.36780000  1.0 0.1475221918
C  C2  1  0.81760000  0.96860000  0.63220000  1.0 0.1475221918
C  C3  1  0.03140000  0.66360000  0.84900000  1.0 0.1475221918
C  C4  1  0.81460000  0.18240000  0.15100000  1.0 0.1475221918
C  C5  1  0.97170000  0.88840000  0.33050000  1.0 0.1268676525
C  C6  1  0.55790000  0.64120000  0.66950000  1.0 0.1268676525
C  C7  1  0.35880000  0.02830000  0.91670000  1.0 0.1268676525
C  C8  1  0.11160000  0.44210000  0.08330000  1.0 0.1268676525
C  C9  1  0.74260000  0.71020000  0.32280000  1.0 -0.2209674909
C  C10  1  0.38740000  0.41980000  0.67720000  1.0 -0.2209674909
C  C11  1  0.58020000  0.25740000  0.96760000  1.0 -0.2209674909
C  C12  1  0.28980000  0.61260000  0.03240000  1.0 -0.2209674909
C  C13  1  0.04550000  0.91840000  0.27390000  1.0 0.0890641057
C  C14  1  0.64450000  0.77160000  0.72610000  1.0 0.0890641057
C  C15  1  0.22840000  0.95450000  0.87290000  1.0 0.0890641057
C  C16  1  0.08160000  0.35550000  0.12710000  1.0 0.0890641057
C  C17  1  0.41840000  0.18360000  0.26600000  1.0 0.0834740431
C  C18  1  0.91760000  0.15240000  0.73400000  1.0 0.0834740431
C  C19  1  0.84760000  0.58160000  0.76520000  1.0 0.0834740431
C  C20  1  0.81640000  0.08240000  0.23480000  1.0 0.0834740431
C  C21  1  0.57650000  0.54940000  0.25690000  1.0 0.0708981857
C  C22  1  0.29250000  0.31960000  0.74310000  1.0 0.0708981857
C  C23  1  0.68040000  0.42350000  0.97290000  1.0 0.0708981857
C  C24  1  0.45060000  0.70750000  0.02710000  1.0 0.0708981857
C  C25  1  0.87830000  0.75420000  0.20890000  1.0 -0.2785954966
C  C26  1  0.54530000  0.66940000  0.79110000  1.0 -0.2785954966
C  C27  1  0.33060000  0.12170000  0.87590000  1.0 -0.2785954966
C  C28  1  0.24580000  0.45470000  0.12410000  1.0 -0.2785954966
C  C29  1  0.69120000  0.43210000  0.28730000  1.0 -0.0708061026
C  C30  1  0.14480000  0.40390000  0.71270000  1.0 -0.0708061026
C  C31  1  0.59610000  0.30880000  0.74090000  1.0 -0.0708061026
C  C32  1  0.56790000  0.85520000  0.25910000  1.0 -0.0708061026
C  C33  1  0.27610000  0.00540000  0.21150000  1.0 -0.0708061026
C  C34  1  0.79390000  0.06460000  0.78850000  1.0 -0.0708061026
C  C35  1  0.93540000  0.72390000  0.72930000  1.0 -0.0708061026
C  C36  1  0.99460000  0.20610000  0.27070000  1.0 -0.0708061026
C  C37  1  0.34400000  0.36690000  0.24690000  1.0 -0.1427808299
C  C38  1  0.12000000  0.09710000  0.75310000  1.0 -0.1427808299
C  C39  1  0.90290000  0.65600000  0.02290000  1.0 -0.1427808299
C  C40  1  0.63310000  0.88000000  0.97710000  1.0 -0.1427808299
C  C41  1  0.64720000  0.57430000  0.20090000  1.0 0.0890641057
C  C42  1  0.37340000  0.44630000  0.79910000  1.0 0.0890641057
C  C43  1  0.55370000  0.35280000  0.92710000  1.0 0.0890641057
C  C44  1  0.42570000  0.62660000  0.07290000  1.0 0.0890641057
C  C45  1  0.82280000  0.50480000  0.25560000  1.0 -0.0708061026
C  C46  1  0.24920000  0.56720000  0.74440000  1.0 -0.0708061026
C  C47  1  0.43280000  0.17720000  0.68200000  1.0 -0.0708061026
C  C48  1  0.49520000  0.75080000  0.31800000  1.0 -0.0708061026
C  C49  1  0.40000000  0.07020000  0.17820000  1.0 -0.0393672443
C  C50  1  0.89200000  0.22180000  0.82180000  1.0 -0.0393672443
C  C51  1  0.77820000  0.60000000  0.67020000  1.0 -0.0393672443
C  C52  1  0.92980000  0.10800000  0.32980000  1.0 -0.0393672443
C  C53  1  0.17220000  0.20230000  0.18250000  1.0 -0.1161307699
C  C54  1  0.01980000  0.98970000  0.81750000  1.0 -0.1161307699
C  C55  1  0.01030000  0.82780000  0.03010000  1.0 -0.1161307699
C  C56  1  0.79770000  0.98020000  0.96990000  1.0 -0.1161307699
C  C57  1  0.47480000  0.40900000  0.13580000  1.0 -0.1588001444
C  C58  1  0.27320000  0.33900000  0.86420000  1.0 -0.1588001444
C  C59  1  0.66100000  0.52520000  0.93420000  1.0 -0.1588001444
C  C60  1  0.59100000  0.72680000  0.06580000  1.0 -0.1588001444
C  C61  1  0.67080000  0.31890000  0.20170000  1.0 -0.0013616501
C  C62  1  0.11720000  0.46910000  0.79830000  1.0 -0.0013616501
C  C63  1  0.53090000  0.32920000  0.64810000  1.0 -0.0013616501
C  C64  1  0.68110000  0.88280000  0.35190000  1.0 -0.0013616501
C  C65  1  0.24290000  0.22750000  0.12680000  1.0 -0.1018440618
C  C66  1  0.10070000  0.11610000  0.87320000  1.0 -0.1018440618
C  C67  1  0.88390000  0.75710000  0.98460000  1.0 -0.1018440618
C  C68  1  0.77250000  0.89930000  0.01540000  1.0 -0.1018440618
C  C69  1  0.81900000  0.40170000  0.16670000  1.0 0.5035872267
C  C70  1  0.23500000  0.65230000  0.83330000  1.0 0.5035872267
C  C71  1  0.34770000  0.18100000  0.58270000  1.0 0.5035872267
C  C72  1  0.59830000  0.76500000  0.41730000  1.0 0.5035872267
C  C73  1  0.55440000  0.26360000  0.30800000  1.0 -0.0708061026
C  C74  1  0.95560000  0.24640000  0.69200000  1.0 -0.0708061026
C  C75  1  0.75360000  0.44560000  0.70920000  1.0 -0.0708061026
C  C76  1  0.73640000  0.04440000  0.29080000  1.0 -0.0708061026
C  C77  1  0.68530000  0.33360000  0.27690000  1.0 -0.0393672443
C  C78  1  0.05670000  0.40840000  0.72310000  1.0 -0.0393672443
C  C79  1  0.59160000  0.31470000  0.64830000  1.0 -0.0393672443
C  C80  1  0.66640000  0.94330000  0.35170000  1.0 -0.0393672443
C  C81  1  0.53520000  0.23790000  0.15510000  1.0 -0.0591631688
C  C82  1  0.08280000  0.38010000  0.84490000  1.0 -0.0591631688
C  C83  1  0.61990000  0.46480000  0.70270000  1.0 -0.0591631688
C  C84  1  0.76210000  0.91720000  0.29730000  1.0 -0.0591631688
C  C85  1  0.41250000  0.17340000  0.19190000  1.0 -0.0548626228
C  C86  1  0.98150000  0.22060000  0.80810000  1.0 -0.0548626228
C  C87  1  0.77940000  0.58750000  0.76090000  1.0 -0.0548626228
C  C88  1  0.82660000  0.01850000  0.23910000  1.0 -0.0548626228
N  N1  1  0.17020000  0.07120000  0.39140000  1.0 -0.3564228794
N  N2  1  0.67980000  0.77880000  0.60860000  1.0 -0.3564228794
N  N3  1  0.22120000  0.82980000  0.90100000  1.0 -0.3564228794
N  N4  1  0.92880000  0.32020000  0.09900000  1.0 -0.3564228794
N  N5  1  0.27940000  0.10600000  0.29880000  1.0 -0.2209674909
N  N6  1  0.80720000  0.98060000  0.70120000  1.0 -0.2209674909
N  N7  1  0.01940000  0.72060000  0.82660000  1.0 -0.2209674909
N  N8  1  0.89400000  0.19280000  0.17340000  1.0 -0.2209674909
O  O1  1  0.24130000  0.28460000  0.49190000  1.0 -0.8084836795
O  O2  1  0.79270000  0.74940000  0.50810000  1.0 -0.8084836795
O  O3  1  0.25060000  0.75870000  0.04330000  1.0 -0.8084836795
O  O4  1  0.71540000  0.20730000  0.95670000  1.0 -0.8084836795
O  O5  1  0.40260000  0.29360000  0.56620000  1.0 -0.4552774622
O  O6  1  0.72740000  0.83640000  0.43380000  1.0 -0.4552774622
O  O7  1  0.16360000  0.59740000  0.89100000  1.0 -0.4552774622
O  O8  1  0.70640000  0.27260000  0.10900000  1.0 -0.4552774622
O  O9  1  0.07860000  0.65650000  0.17710000  1.0 -0.3520978733
O  O10  1  0.47940000  0.90150000  0.82290000  1.0 -0.3520978733
O  O11  1  0.09850000  0.92140000  0.57790000  1.0 -0.3520978733
O  O12  1  0.34350000  0.52060000  0.42210000  1.0 -0.3520978733
O  O13  1  0.87980000  0.41210000  0.21590000  1.0 -0.3564228794
O  O14  1  0.19620000  0.66390000  0.78410000  1.0 -0.3564228794
O  O15  1  0.33610000  0.12020000  0.53230000  1.0 -0.3564228794
O  O16  1  0.58790000  0.80380000  0.46770000  1.0 -0.3564228794
