# DDEC6 charges by PACMAN v1.1 (https://github.com/mtap-research/PACMAN-charge/)
data_IFEPUG07_FSR_pacman
_symmetry_space_group_name_H-M   'P 1'
_cell_length_a   18.78190000
_cell_length_b   18.78190000
_cell_length_c   18.78190000
_cell_angle_alpha   90.95750000
_cell_angle_beta   90.95750000
_cell_angle_gamma   165.14500000
_symmetry_Int_Tables_number   1
_chemical_formula_structural   ZnH16C22(NO2)2
_chemical_formula_sum   'Zn4 H64 C88 N8 O16'
_cell_volume   1684.35183442
_cell_formula_units_Z   4
loop_
 _symmetry_equiv_pos_site_id
 _symmetry_equiv_pos_as_xyz
  1  'x, y, z'
loop_
 _atom_site_type_symbol
 _atom_site_label
 _atom_site_symmetry_multiplicity
 _atom_site_fract_x
 _atom_site_fract_y
 _atom_site_fract_z
 _atom_site_occupancy
 _atom_site_charge
Zn  Zn1  1  0.16817000  0.11416000  0.48593000  1.0 0.8237865664
Zn  Zn2  1  0.62823000  0.68224000  0.51407000  1.0 0.8237865664
Zn  Zn3  1  0.31776000  0.83183000  0.94599000  1.0 0.8237865664
Zn  Zn4  1  0.88584000  0.37177000  0.05401000  1.0 0.8237865664
H  H1  1  0.09940000  0.17570000  0.49010000  1.0 0.3572655119
H  H2  1  0.68560000  0.60930000  0.50990000  1.0 0.3572655119
H  H3  1  0.39070000  0.90060000  0.07630000  1.0 0.3572655119
H  H4  1  0.82430000  0.31440000  0.92370000  1.0 0.3572655119
H  H5  1  0.52750000  0.35960000  0.39710000  1.0 0.1104945787
H  H6  1  0.96250000  0.13040000  0.60290000  1.0 0.1104945787
H  H7  1  0.86960000  0.47250000  0.83210000  1.0 0.1104945787
H  H8  1  0.64040000  0.03750000  0.16790000  1.0 0.1104945787
H  H9  1  0.71090000  0.71330000  0.35840000  1.0 0.1339585729
H  H10  1  0.35490000  0.35250000  0.64160000  1.0 0.1339585729
H  H11  1  0.64750000  0.28910000  0.00240000  1.0 0.1339585729
H  H12  1  0.28670000  0.64510000  0.99760000  1.0 0.1339585729
H  H13  1  0.93420000  0.78030000  0.17010000  1.0 0.1204748452
H  H14  1  0.61020000  0.76410000  0.82990000  1.0 0.1204748452
H  H15  1  0.23590000  0.06580000  0.84610000  1.0 0.1204748452
H  H16  1  0.21970000  0.38980000  0.15390000  1.0 0.1204748452
H  H17  1  0.82340000  0.59490000  0.31670000  1.0 0.1104945787
H  H18  1  0.27820000  0.50670000  0.68330000  1.0 0.1104945787
H  H19  1  0.49330000  0.17660000  0.77150000  1.0 0.1104945787
H  H20  1  0.40510000  0.72180000  0.22850000  1.0 0.1104945787
H  H21  1  0.08790000  0.83250000  0.20500000  1.0 0.1009895209
H  H22  1  0.62750000  0.88290000  0.79500000  1.0 0.1009895209
H  H23  1  0.11710000  0.91210000  0.74460000  1.0 0.1009895209
H  H24  1  0.16750000  0.37250000  0.25540000  1.0 0.1009895209
H  H25  1  0.30330000  0.35970000  0.28300000  1.0 0.1204748452
H  H26  1  0.07670000  0.02030000  0.71700000  1.0 0.1204748452
H  H27  1  0.97970000  0.69670000  0.05640000  1.0 0.1204748452
H  H28  1  0.64030000  0.92330000  0.94360000  1.0 0.1204748452
H  H29  1  0.03660000  0.70750000  0.26270000  1.0 0.1009895209
H  H30  1  0.44480000  0.77390000  0.73730000  1.0 0.1009895209
H  H31  1  0.22610000  0.96340000  0.67090000  1.0 0.1009895209
H  H32  1  0.29250000  0.55520000  0.32910000  1.0 0.1009895209
H  H33  1  0.29370000  0.93810000  0.14960000  1.0 0.1521996096
H  H34  1  0.78850000  0.14410000  0.85040000  1.0 0.1521996096
H  H35  1  0.85590000  0.70630000  0.64440000  1.0 0.1521996096
H  H36  1  0.06190000  0.21150000  0.35560000  1.0 0.1521996096
H  H37  1  0.00880000  0.07450000  0.17430000  1.0 0.1009895209
H  H38  1  0.90020000  0.83450000  0.82570000  1.0 0.1009895209
H  H39  1  0.16550000  0.99120000  0.06570000  1.0 0.1009895209
H  H40  1  0.92550000  0.09980000  0.93430000  1.0 0.1009895209
H  H41  1  0.52030000  0.42480000  0.09650000  1.0 0.1104945787
H  H42  1  0.32830000  0.42380000  0.90350000  1.0 0.1104945787
H  H43  1  0.57620000  0.47970000  0.90450000  1.0 0.1104945787
H  H44  1  0.57520000  0.67170000  0.09550000  1.0 0.1104945787
H  H45  1  0.12530000  0.11280000  0.08210000  1.0 0.1009895209
H  H46  1  0.03070000  0.04320000  0.91790000  1.0 0.1009895209
H  H47  1  0.95680000  0.87470000  0.98750000  1.0 0.1009895209
H  H48  1  0.88720000  0.96930000  0.01250000  1.0 0.1009895209
H  H49  1  0.56690000  0.28190000  0.35860000  1.0 0.1204748452
H  H50  1  0.92330000  0.20830000  0.64140000  1.0 0.1204748452
H  H51  1  0.79170000  0.43310000  0.71500000  1.0 0.1204748452
H  H52  1  0.71810000  0.07670000  0.28500000  1.0 0.1204748452
H  H53  1  0.78020000  0.39150000  0.30590000  1.0 0.1204748452
H  H54  1  0.08560000  0.47430000  0.69410000  1.0 0.1204748452
H  H55  1  0.52570000  0.21980000  0.61130000  1.0 0.1204748452
H  H56  1  0.60850000  0.91440000  0.38870000  1.0 0.1204748452
H  H57  1  0.54330000  0.24610000  0.10680000  1.0 0.1009895209
H  H58  1  0.13930000  0.43650000  0.89320000  1.0 0.1009895209
H  H59  1  0.56350000  0.45670000  0.70280000  1.0 0.1009895209
H  H60  1  0.75390000  0.86070000  0.29720000  1.0 0.1009895209
H  H61  1  0.34140000  0.14490000  0.16590000  1.0 0.1009895209
H  H62  1  0.97900000  0.17550000  0.83410000  1.0 0.1009895209
H  H63  1  0.82450000  0.65860000  0.80350000  1.0 0.1009895209
H  H64  1  0.85510000  0.02100000  0.19650000  1.0 0.1009895209
C  C1  1  0.36950000  0.22210000  0.36760000  1.0 0.1387783572
C  C2  1  0.85450000  0.00190000  0.63240000  1.0 0.1387783572
C  C3  1  0.99810000  0.63050000  0.85260000  1.0 0.1387783572
C  C4  1  0.77790000  0.14550000  0.14740000  1.0 0.1387783572
C  C5  1  0.98750000  0.90840000  0.32850000  1.0 0.1204748452
C  C6  1  0.57990000  0.65900000  0.67150000  1.0 0.1204748452
C  C7  1  0.34100000  0.01250000  0.92090000  1.0 0.1204748452
C  C8  1  0.09160000  0.42010000  0.07910000  1.0 0.1204748452
C  C9  1  0.75330000  0.72510000  0.32080000  1.0 -0.2204762302
C  C10  1  0.40430000  0.43250000  0.67920000  1.0 -0.2204762302
C  C11  1  0.56750000  0.24670000  0.97180000  1.0 -0.2204762302
C  C12  1  0.27490000  0.59570000  0.02820000  1.0 -0.2204762302
C  C13  1  0.05860000  0.93270000  0.27330000  1.0 0.0825044759
C  C14  1  0.65940000  0.78530000  0.72670000  1.0 0.0825044759
C  C15  1  0.21470000  0.94140000  0.87410000  1.0 0.0825044759
C  C16  1  0.06730000  0.34060000  0.12590000  1.0 0.0825044759
C  C17  1  0.43400000  0.20260000  0.26660000  1.0 0.1009895209
C  C18  1  0.93600000  0.16740000  0.73340000  1.0 0.1009895209
C  C19  1  0.83260000  0.56600000  0.76860000  1.0 0.1009895209
C  C20  1  0.79740000  0.06400000  0.23140000  1.0 0.1009895209
C  C21  1  0.58240000  0.55840000  0.25500000  1.0 0.0643680789
C  C22  1  0.30340000  0.32740000  0.74500000  1.0 0.0643680789
C  C23  1  0.67260000  0.41760000  0.97600000  1.0 0.0643680789
C  C24  1  0.44160000  0.69660000  0.02400000  1.0 0.0643680789
C  C25  1  0.89130000  0.76830000  0.20740000  1.0 -0.2884865455
C  C26  1  0.56090000  0.68390000  0.79260000  1.0 -0.2884865455
C  C27  1  0.31610000  0.10870000  0.87700000  1.0 -0.2884865455
C  C28  1  0.23170000  0.43910000  0.12300000  1.0 -0.2884865455
C  C29  1  0.71680000  0.46250000  0.28330000  1.0 -0.0693702247
C  C30  1  0.17920000  0.43350000  0.71670000  1.0 -0.0693702247
C  C31  1  0.56650000  0.28320000  0.74570000  1.0 -0.0693702247
C  C32  1  0.53750000  0.82080000  0.25430000  1.0 -0.0693702247
C  C33  1  0.27840000  0.00810000  0.21650000  1.0 -0.0693702247
C  C34  1  0.79160000  0.06190000  0.78350000  1.0 -0.0693702247
C  C35  1  0.93810000  0.72160000  0.72970000  1.0 -0.0693702247
C  C36  1  0.99190000  0.20840000  0.27030000  1.0 -0.0693702247
C  C37  1  0.34550000  0.37140000  0.24530000  1.0 -0.1363912352
C  C38  1  0.12610000  0.10020000  0.75470000  1.0 -0.1363912352
C  C39  1  0.89980000  0.65450000  0.02590000  1.0 -0.1363912352
C  C40  1  0.62860000  0.87390000  0.97410000  1.0 -0.1363912352
C  C41  1  0.65520000  0.58400000  0.19980000  1.0 0.0874512442
C  C42  1  0.38420000  0.45540000  0.80020000  1.0 0.0874512442
C  C43  1  0.54460000  0.34480000  0.92880000  1.0 0.0874512442
C  C44  1  0.41600000  0.61580000  0.07120000  1.0 0.0874512442
C  C45  1  0.84580000  0.53180000  0.25160000  1.0 -0.0915811188
C  C46  1  0.28020000  0.59420000  0.74840000  1.0 -0.0915811188
C  C47  1  0.40580000  0.15420000  0.68600000  1.0 -0.0915811188
C  C48  1  0.46820000  0.71980000  0.31400000  1.0 -0.0915811188
C  C49  1  0.39880000  0.06870000  0.18350000  1.0 -0.0630720049
C  C50  1  0.88520000  0.21530000  0.81650000  1.0 -0.0630720049
C  C51  1  0.78470000  0.60120000  0.66990000  1.0 -0.0630720049
C  C52  1  0.93130000  0.11480000  0.33010000  1.0 -0.0630720049
C  C53  1  0.16790000  0.19990000  0.18060000  1.0 -0.1142411229
C  C54  1  0.01930000  0.98730000  0.81940000  1.0 -0.1142411229
C  C55  1  0.01270000  0.83210000  0.03200000  1.0 -0.1142411229
C  C56  1  0.80010000  0.98070000  0.96800000  1.0 -0.1142411229
C  C57  1  0.47790000  0.41250000  0.13440000  1.0 -0.1626170479
C  C58  1  0.27810000  0.34350000  0.86560000  1.0 -0.1626170479
C  C59  1  0.65650000  0.52210000  0.93460000  1.0 -0.1626170479
C  C60  1  0.58750000  0.72190000  0.06540000  1.0 -0.1626170479
C  C61  1  0.68060000  0.33010000  0.20270000  1.0 0.0097697525
C  C62  1  0.12740000  0.47790000  0.79730000  1.0 0.0097697525
C  C63  1  0.52210000  0.31940000  0.64950000  1.0 0.0097697525
C  C64  1  0.66990000  0.87260000  0.35050000  1.0 0.0097697525
C  C65  1  0.24010000  0.22520000  0.12590000  1.0 -0.102904189
C  C66  1  0.09930000  0.11420000  0.87410000  1.0 -0.102904189
C  C67  1  0.88580000  0.75990000  0.98510000  1.0 -0.102904189
C  C68  1  0.77480000  0.90070000  0.01490000  1.0 -0.102904189
C  C69  1  0.81180000  0.39360000  0.16740000  1.0 0.5050475694
C  C70  1  0.22620000  0.64440000  0.83260000  1.0 0.5050475694
C  C71  1  0.35560000  0.18820000  0.58180000  1.0 0.5050475694
C  C72  1  0.60640000  0.77380000  0.41820000  1.0 0.5050475694
C  C73  1  0.56350000  0.27560000  0.30910000  1.0 -0.0775715798
C  C74  1  0.96650000  0.25440000  0.69090000  1.0 -0.0775715798
C  C75  1  0.74560000  0.43650000  0.71210000  1.0 -0.0775715798
C  C76  1  0.72440000  0.03350000  0.28790000  1.0 -0.0775715798
C  C77  1  0.69190000  0.34210000  0.27800000  1.0 -0.0433833353
C  C78  1  0.06410000  0.41390000  0.72200000  1.0 -0.0433833353
C  C79  1  0.58610000  0.30810000  0.65020000  1.0 -0.0433833353
C  C80  1  0.65790000  0.93590000  0.34980000  1.0 -0.0433833353
C  C81  1  0.54970000  0.25480000  0.15650000  1.0 -0.0775715798
C  C82  1  0.09830000  0.39320000  0.84350000  1.0 -0.0775715798
C  C83  1  0.60680000  0.45030000  0.70510000  1.0 -0.0775715798
C  C84  1  0.74520000  0.90170000  0.29490000  1.0 -0.0775715798
C  C85  1  0.43050000  0.19470000  0.19320000  1.0 -0.0516244523
C  C86  1  0.00150000  0.23730000  0.80680000  1.0 -0.0516244523
C  C87  1  0.76270000  0.56950000  0.76420000  1.0 -0.0516244523
C  C88  1  0.80530000  0.99850000  0.23580000  1.0 -0.0516244523
N  N1  1  0.19590000  0.10100000  0.38890000  1.0 -0.3544851445
N  N2  1  0.71210000  0.80700000  0.61110000  1.0 -0.3544851445
N  N3  1  0.19300000  0.80410000  0.90510000  1.0 -0.3565678798
N  N4  1  0.89900000  0.28790000  0.09490000  1.0 -0.3544851445
N  N5  1  0.30250000  0.13270000  0.29920000  1.0 -0.1673412375
N  N6  1  0.83350000  0.00330000  0.70080000  1.0 -0.1673412375
N  N7  1  0.99670000  0.69750000  0.83020000  1.0 -0.1673412375
N  N8  1  0.86730000  0.16650000  0.16980000  1.0 -0.1673412375
O  O1  1  0.23640000  0.28000000  0.50020000  1.0 -0.7961403631
O  O2  1  0.77980000  0.73620000  0.49980000  1.0 -0.7961403631
O  O3  1  0.26380000  0.76360000  0.04360000  1.0 -0.7961403631
O  O4  1  0.72000000  0.22020000  0.95640000  1.0 -0.7961403631
O  O5  1  0.38970000  0.28220000  0.56590000  1.0 -0.3793696366
O  O6  1  0.71630000  0.82380000  0.43410000  1.0 -0.3793696366
O  O7  1  0.17620000  0.61030000  0.89250000  1.0 -0.3793696366
O  O8  1  0.71780000  0.28370000  0.10750000  1.0 -0.3793696366
O  O9  1  0.07670000  0.65240000  0.16910000  1.0 -0.3565678798
O  O10  1  0.48330000  0.90760000  0.83090000  1.0 -0.3565678798
O  O11  1  0.09240000  0.92330000  0.57570000  1.0 -0.3565678798
O  O12  1  0.34760000  0.51670000  0.42430000  1.0 -0.3565678798
O  O13  1  0.83850000  0.36240000  0.20690000  1.0 -0.3728285112
O  O14  1  0.15550000  0.63160000  0.79310000  1.0 -0.3728285112
O  O15  1  0.36840000  0.16150000  0.52390000  1.0 -0.3728285112
O  O16  1  0.63760000  0.84450000  0.47610000  1.0 -0.3728285112
