# DDEC6 charges by PACMAN v1.1 (https://github.com/mtap-research/PACMAN-charge/)
data_IFEQER_ASR_pacman
_symmetry_space_group_name_H-M   'P 1'
_cell_length_a   19.08400000
_cell_length_b   19.08400000
_cell_length_c   19.08400000
_cell_angle_alpha   91.04330000
_cell_angle_beta   91.04330000
_cell_angle_gamma   164.49000000
_symmetry_Int_Tables_number   1
_chemical_formula_structural   ZnH15C22(NO2)2
_chemical_formula_sum   'Zn4 H60 C88 N8 O16'
_cell_volume   1841.57765685
_cell_formula_units_Z   4
loop_
 _symmetry_equiv_pos_site_id
 _symmetry_equiv_pos_as_xyz
  1  'x, y, z'
loop_
 _atom_site_type_symbol
 _atom_site_label
 _atom_site_symmetry_multiplicity
 _atom_site_fract_x
 _atom_site_fract_y
 _atom_site_fract_z
 _atom_site_occupancy
 _atom_site_charge
Zn  Zn1  1  0.52173000  0.07880000  0.01601000  1.0 0.8433239768
Zn  Zn2  1  0.49428000  0.47827000  0.55707000  1.0 0.8433239768
Zn  Zn3  1  0.06279000  0.50572000  0.98399000  1.0 0.8433239768
Zn  Zn4  1  0.92120000  0.93721000  0.44293000  1.0 0.8433239768
H  H1  1  0.25660000  0.93870000  0.10330000  1.0 0.1010923777
H  H2  1  0.84670000  0.74340000  0.68210000  1.0 0.1010923777
H  H3  1  0.83540000  0.15330000  0.89670000  1.0 0.1010923777
H  H4  1  0.06130000  0.16460000  0.31790000  1.0 0.1010923777
H  H5  1  0.01450000  0.52200000  0.13230000  1.0 0.1494282642
H  H6  1  0.11780000  0.98550000  0.50750000  1.0 0.1494282642
H  H7  1  0.38970000  0.88220000  0.86770000  1.0 0.1494282642
H  H8  1  0.47800000  0.61030000  0.49250000  1.0 0.1494282642
H  H9  1  0.42500000  0.87480000  0.20580000  1.0 0.1198280784
H  H10  1  0.78080000  0.57500000  0.44980000  1.0 0.1198280784
H  H11  1  0.66900000  0.21920000  0.79420000  1.0 0.1198280784
H  H12  1  0.12520000  0.33100000  0.55020000  1.0 0.1198280784
H  H13  1  0.71180000  0.15310000  0.31050000  1.0 0.1010923777
H  H14  1  0.59870000  0.28820000  0.44130000  1.0 0.1010923777
H  H15  1  0.84260000  0.40130000  0.68950000  1.0 0.1010923777
H  H16  1  0.84690000  0.15740000  0.55870000  1.0 0.1010923777
H  H17  1  0.61520000  0.13110000  0.40730000  1.0 0.1101304898
H  H18  1  0.79210000  0.38480000  0.51590000  1.0 0.1101304898
H  H19  1  0.72380000  0.20790000  0.59270000  1.0 0.1101304898
H  H20  1  0.86890000  0.27620000  0.48410000  1.0 0.1101304898
H  H21  1  0.24450000  0.84150000  0.39800000  1.0 0.1198280784
H  H22  1  0.15350000  0.75550000  0.59700000  1.0 0.1198280784
H  H23  1  0.44350000  0.84650000  0.60200000  1.0 0.1198280784
H  H24  1  0.15850000  0.55650000  0.40300000  1.0 0.1198280784
H  H25  1  0.84660000  0.50750000  0.32550000  1.0 0.129399159
H  H26  1  0.47890000  0.15340000  0.66090000  1.0 0.129399159
H  H27  1  0.18200000  0.52110000  0.67450000  1.0 0.129399159
H  H28  1  0.49250000  0.81800000  0.33910000  1.0 0.129399159
H  H29  1  0.00520000  0.74030000  0.18690000  1.0 0.1010923777
H  H30  1  0.18170000  0.99480000  0.73510000  1.0 0.1010923777
H  H31  1  0.55340000  0.81830000  0.81310000  1.0 0.1010923777
H  H32  1  0.25970000  0.44660000  0.26490000  1.0 0.1010923777
H  H33  1  0.80220000  0.63710000  0.24430000  1.0 0.0808793027
H  H34  1  0.44210000  0.19780000  0.83490000  1.0 0.0808793027
H  H35  1  0.39280000  0.55790000  0.75570000  1.0 0.0808793027
H  H36  1  0.36290000  0.60720000  0.16510000  1.0 0.0808793027
H  H37  1  0.51620000  0.38540000  0.34560000  1.0 0.129399159
H  H38  1  0.82940000  0.48380000  0.86920000  1.0 0.129399159
H  H39  1  0.03980000  0.17060000  0.65440000  1.0 0.129399159
H  H40  1  0.61460000  0.96020000  0.13080000  1.0 0.129399159
H  H41  1  0.72230000  0.49410000  0.28720000  1.0 0.0808793027
H  H42  1  0.56490000  0.27770000  0.77180000  1.0 0.0808793027
H  H43  1  0.20690000  0.43510000  0.71280000  1.0 0.0808793027
H  H44  1  0.50590000  0.79310000  0.22820000  1.0 0.0808793027
H  H45  1  0.25220000  0.04860000  0.13980000  1.0 0.1101304898
H  H46  1  0.88760000  0.74780000  0.79640000  1.0 0.1101304898
H  H47  1  0.90880000  0.11240000  0.86020000  1.0 0.1101304898
H  H48  1  0.95140000  0.09120000  0.20360000  1.0 0.1101304898
H  H49  1  0.07630000  0.97560000  0.19390000  1.0 0.1010923777
H  H50  1  0.11760000  0.92370000  0.89930000  1.0 0.1010923777
H  H51  1  0.78170000  0.88240000  0.80610000  1.0 0.1010923777
H  H52  1  0.02440000  0.21830000  0.10070000  1.0 0.1010923777
H  H53  1  0.29880000  0.10860000  0.38700000  1.0 0.1101304898
H  H54  1  0.08820000  0.70120000  0.80980000  1.0 0.1101304898
H  H55  1  0.72160000  0.91180000  0.61300000  1.0 0.1101304898
H  H56  1  0.89140000  0.27840000  0.19020000  1.0 0.1101304898
H  H57  1  0.43280000  0.13530000  0.33170000  1.0 0.0940708889
H  H58  1  0.89890000  0.56720000  0.70250000  1.0 0.0940708889
H  H59  1  0.80360000  0.10110000  0.66830000  1.0 0.0940708889
H  H60  1  0.86470000  0.19640000  0.29750000  1.0 0.0940708889
C  C1  1  0.41007000  0.06988000  0.13175000  1.0 0.1198280784
C  C2  1  0.72168000  0.58993000  0.65981000  1.0 0.1198280784
C  C3  1  0.93813000  0.27832000  0.86825000  1.0 0.1198280784
C  C4  1  0.93012000  0.06187000  0.34019000  1.0 0.1198280784
C  C5  1  0.76731000  0.35529000  0.16720000  1.0 0.1494282642
C  C6  1  0.39989000  0.23269000  0.58798000  1.0 0.1494282642
C  C7  1  0.18809000  0.60011000  0.83280000  1.0 0.1494282642
C  C8  1  0.64471000  0.81191000  0.41202000  1.0 0.1494282642
C  C9  1  0.98202000  0.51955000  0.17137000  1.0 -0.2110116547
C  C10  1  0.18935000  0.01798000  0.53753000  1.0 -0.2110116547
C  C11  1  0.34818000  0.81065000  0.82863000  1.0 -0.2110116547
C  C12  1  0.48045000  0.65182000  0.46247000  1.0 -0.2110116547
C  C13  1  0.15512000  0.68626000  0.23558000  1.0 0.0808793027
C  C14  1  0.08046000  0.84488000  0.53114000  1.0 0.0808793027
C  C15  1  0.45068000  0.91954000  0.76442000  1.0 0.0808793027
C  C16  1  0.31374000  0.54932000  0.46886000  1.0 0.0808793027
C  C17  1  0.38722000  0.86764000  0.24406000  1.0 -0.145830377
C  C18  1  0.85684000  0.61278000  0.48042000  1.0 -0.145830377
C  C19  1  0.62358000  0.14316000  0.75594000  1.0 -0.145830377
C  C20  1  0.13236000  0.37642000  0.51958000  1.0 -0.145830377
C  C21  1  0.55669000  0.03158000  0.30607000  1.0 -0.1066381363
C  C22  1  0.74938000  0.44331000  0.47489000  1.0 -0.1066381363
C  C23  1  0.72551000  0.25062000  0.69393000  1.0 -0.1066381363
C  C24  1  0.96842000  0.27449000  0.52511000  1.0 -0.1066381363
C  C25  1  0.49842000  0.01845000  0.36407000  1.0 -0.1066381363
C  C26  1  0.86565000  0.50158000  0.52003000  1.0 -0.1066381363
C  C27  1  0.65438000  0.13435000  0.63593000  1.0 -0.1066381363
C  C28  1  0.98155000  0.34562000  0.47997000  1.0 -0.1066381363
C  C29  1  0.28055000  0.84882000  0.35837000  1.0 -0.1572212903
C  C30  1  0.07782000  0.71945000  0.56827000  1.0 -0.1572212903
C  C31  1  0.49045000  0.92218000  0.64163000  1.0 -0.1572212903
C  C32  1  0.15118000  0.50955000  0.43173000  1.0 -0.1572212903
C  C33  1  0.10148000  0.67891000  0.29379000  1.0 0.0808793027
C  C34  1  0.19231000  0.89852000  0.57743000  1.0 0.0808793027
C  C35  1  0.38512000  0.80769000  0.70621000  1.0 0.0808793027
C  C36  1  0.32109000  0.61488000  0.42257000  1.0 0.0808793027
C  C37  1  0.88201000  0.51201000  0.28742000  1.0 -0.2577037206
C  C38  1  0.40541000  0.11799000  0.63000000  1.0 -0.2577037206
C  C39  1  0.22459000  0.59459000  0.71258000  1.0 -0.2577037206
C  C40  1  0.48799000  0.77541000  0.37000000  1.0 -0.2577037206
C  C41  1  0.72138000  0.35639000  0.22437000  1.0 0.0940708889
C  C42  1  0.50299000  0.27862000  0.63501000  1.0 0.0940708889
C  C43  1  0.13202000  0.49701000  0.77563000  1.0 0.1010923777
C  C44  1  0.64361000  0.86798000  0.36499000  1.0 0.0940708889
C  C45  1  0.37328000  0.11566000  0.23274000  1.0 0.1198280784
C  C46  1  0.85946000  0.62672000  0.74238000  1.0 0.1198280784
C  C47  1  0.88292000  0.14054000  0.76726000  1.0 0.1198280784
C  C48  1  0.88434000  0.11708000  0.25762000  1.0 0.1198280784
C  C49  1  0.15261000  0.01552000  0.29813000  1.0 0.0066151647
C  C50  1  0.14552000  0.84739000  0.86291000  1.0 0.0066151647
C  C51  1  0.71739000  0.85448000  0.70187000  1.0 0.0066151647
C  C52  1  0.98448000  0.28261000  0.13709000  1.0 0.0066151647
C  C53  1  0.02690000  0.95453000  0.33283000  1.0 0.3985704714
C  C54  1  0.30593000  0.97310000  0.92763000  1.0 0.3985704714
C  C55  1  0.62170000  0.69407000  0.66717000  1.0 0.3985704714
C  C56  1  0.04547000  0.37830000  0.07237000  1.0 0.3985704714
C  C57  1  0.10980000  0.87170000  0.21910000  1.0 -0.069561447
C  C58  1  0.10930000  0.89020000  0.76190000  1.0 -0.069561447
C  C59  1  0.65260000  0.89070000  0.78090000  1.0 -0.069561447
C  C60  1  0.12830000  0.34740000  0.23810000  1.0 -0.069561447
C  C61  1  0.98840000  0.81040000  0.25220000  1.0 -0.1006483026
C  C62  1  0.26380000  0.01160000  0.82200000  1.0 -0.1006483026
C  C63  1  0.55820000  0.73620000  0.74780000  1.0 -0.1006483026
C  C64  1  0.18960000  0.44180000  0.17800000  1.0 -0.1006483026
C  C65  1  0.41300000  0.25600000  0.31240000  1.0 -0.0626786006
C  C66  1  0.89940000  0.58700000  0.84300000  1.0 -0.0626786006
C  C67  1  0.94360000  0.10060000  0.68760000  1.0 -0.0626786006
C  C68  1  0.74400000  0.05640000  0.15700000  1.0 -0.0626786006
C  C69  1  0.53580000  0.31990000  0.27930000  1.0 -0.0799419833
C  C70  1  0.74350000  0.46420000  0.78410000  1.0 -0.0799419833
C  C71  1  0.04060000  0.25650000  0.72070000  1.0 -0.0799419833
C  C72  1  0.68010000  0.95940000  0.21590000  1.0 -0.0799419833
C  C73  1  0.25780000  0.05690000  0.18970000  1.0 -0.1006483026
C  C74  1  0.93190000  0.74220000  0.79910000  1.0 -0.1006483026
C  C75  1  0.86720000  0.06810000  0.81030000  1.0 -0.1006483026
C  C76  1  0.94310000  0.13280000  0.20090000  1.0 -0.1006483026
C  C77  1  0.15180000  0.01100000  0.22200000  1.0 -0.0472922195
C  C78  1  0.07020000  0.84820000  0.85920000  1.0 -0.0472922195
C  C79  1  0.78900000  0.92980000  0.77800000  1.0 -0.0472922195
C  C80  1  0.98900000  0.21100000  0.14080000  1.0 -0.0472922195
C  C81  1  0.27580000  0.08260000  0.33680000  1.0 -0.0402880152
C  C82  1  0.06100000  0.72420000  0.80680000  1.0 -0.0402880152
C  C83  1  0.74580000  0.93900000  0.66320000  1.0 -0.0402880152
C  C84  1  0.91740000  0.25420000  0.19320000  1.0 -0.0402880152
C  C85  1  0.37070000  0.11460000  0.30430000  1.0 -0.0799419833
C  C86  1  0.93360000  0.62930000  0.74390000  1.0 -0.0799419833
C  C87  1  0.81030000  0.06640000  0.69570000  1.0 -0.0799419833
C  C88  1  0.88540000  0.18970000  0.25610000  1.0 -0.0799419833
N  N1  1  0.56456000  0.17042000  0.11058000  1.0 -0.3308100244
N  N2  1  0.54602000  0.43544000  0.60586000  1.0 -0.3308100244
N  N3  1  0.05984000  0.45398000  0.88942000  1.0 -0.3308100244
N  N4  1  0.82958000  0.94016000  0.39414000  1.0 -0.3308100244
N  N5  1  0.49146000  0.17244000  0.19890000  1.0 -0.1572212903
N  N6  1  0.70744000  0.50854000  0.68098000  1.0 -0.1572212903
N  N7  1  0.97354000  0.29256000  0.80110000  1.0 -0.1572212903
N  N8  1  0.82756000  0.02646000  0.31902000  1.0 -0.1572212903
O  O1  1  0.39778000  0.86486000  0.02724000  1.0 -0.7397993347
O  O2  1  0.62946000  0.60222000  0.46708000  1.0 -0.7397993347
O  O3  1  0.83762000  0.37054000  0.97276000  1.0 -0.7397993347
O  O4  1  0.13514000  0.16238000  0.53292000  1.0 -0.7397993347
O  O5  1  0.14153000  0.08886000  0.38979000  1.0 -0.4330877802
O  O6  1  0.24826000  0.85847000  0.94733000  1.0 -0.4330877802
O  O7  1  0.69907000  0.75174000  0.61021000  1.0 -0.4330877802
O  O8  1  0.91114000  0.30093000  0.05267000  1.0 -0.4330877802
O  O9  1  0.76320000  0.70600000  0.31760000  1.0 -0.189443863
O  O10  1  0.55440000  0.23680000  0.94280000  1.0 -0.189443863
O  O11  1  0.38840000  0.44560000  0.68240000  1.0 -0.189443863
O  O12  1  0.29400000  0.61160000  0.05720000  1.0 -0.189443863
O  O13  1  0.87560000  0.84742000  0.29402000  1.0 -0.1172456527
O  O14  1  0.41842000  0.12440000  0.97182000  1.0 -0.1172456527
O  O15  1  0.55340000  0.58158000  0.70598000  1.0 -0.1172456527
O  O16  1  0.15258000  0.44660000  0.02818000  1.0 -0.1172456527
