# DDEC6 charges by PACMAN v1.1 (https://github.com/mtap-research/PACMAN-charge/)
data_IFEQIV_FSR_pacman
_symmetry_space_group_name_H-M   'P 1'
_cell_length_a   18.71590000
_cell_length_b   18.71590000
_cell_length_c   18.71590000
_cell_angle_alpha   91.19070000
_cell_angle_beta   91.19070000
_cell_angle_gamma   163.42300000
_symmetry_Int_Tables_number   1
_chemical_formula_structural   ZnH15C22(NO2)2
_chemical_formula_sum   'Zn4 H60 C88 N8 O16'
_cell_volume   1850.88682006
_cell_formula_units_Z   4
loop_
 _symmetry_equiv_pos_site_id
 _symmetry_equiv_pos_as_xyz
  1  'x, y, z'
loop_
 _atom_site_type_symbol
 _atom_site_label
 _atom_site_symmetry_multiplicity
 _atom_site_fract_x
 _atom_site_fract_y
 _atom_site_fract_z
 _atom_site_occupancy
 _atom_site_charge
Zn  Zn1  1  0.33874000  0.39643000  0.48865000  1.0 0.8312720127
Zn  Zn2  1  0.14991000  0.66126000  0.05769000  1.0 0.8312720127
Zn  Zn3  1  0.90778000  0.85009000  0.51135000  1.0 0.8312720127
Zn  Zn4  1  0.60357000  0.09222000  0.94231000  1.0 0.8312720127
H  H1  1  0.25530000  0.40990000  0.16640000  1.0 0.1107992904
H  H2  1  0.91110000  0.74470000  0.15460000  1.0 0.1107992904
H  H3  1  0.24350000  0.08890000  0.83360000  1.0 0.1107992904
H  H4  1  0.59010000  0.75650000  0.84540000  1.0 0.1107992904
H  H5  1  0.57670000  0.67140000  0.09290000  1.0 0.1107992904
H  H6  1  0.51620000  0.42330000  0.09470000  1.0 0.1107992904
H  H7  1  0.57850000  0.48380000  0.90710000  1.0 0.1107992904
H  H8  1  0.32860000  0.42150000  0.90530000  1.0 0.1107992904
H  H9  1  0.99630000  0.95390000  0.29380000  1.0 0.1107992904
H  H10  1  0.29750000  0.00370000  0.95760000  1.0 0.1107992904
H  H11  1  0.66010000  0.70250000  0.70620000  1.0 0.1107992904
H  H12  1  0.04610000  0.33990000  0.04240000  1.0 0.1107992904
H  H13  1  0.80420000  0.15320000  0.12900000  1.0 0.0988746727
H  H14  1  0.32480000  0.19580000  0.34900000  1.0 0.0988746727
H  H15  1  0.02420000  0.67520000  0.87100000  1.0 0.0988746727
H  H16  1  0.84680000  0.97580000  0.65100000  1.0 0.0988746727
H  H17  1  0.34100000  0.67350000  0.27690000  1.0 0.0988746727
H  H18  1  0.93590000  0.65900000  0.33250000  1.0 0.0988746727
H  H19  1  0.39660000  0.06410000  0.72310000  1.0 0.0988746727
H  H20  1  0.32650000  0.60340000  0.66750000  1.0 0.0988746727
H  H21  1  0.96000000  0.14340000  0.40120000  1.0 0.0880240537
H  H22  1  0.44120000  0.04000000  0.18340000  1.0 0.0880240537
H  H23  1  0.74220000  0.55880000  0.59880000  1.0 0.0880240537
H  H24  1  0.85660000  0.25780000  0.81660000  1.0 0.0880240537
H  H25  1  0.15440000  0.10180000  0.18440000  1.0 0.0988746727
H  H26  1  0.03000000  0.84560000  0.94740000  1.0 0.0988746727
H  H27  1  0.91740000  0.97000000  0.81560000  1.0 0.0988746727
H  H28  1  0.89820000  0.08260000  0.05260000  1.0 0.0988746727
H  H29  1  0.67140000  0.68370000  0.36810000  1.0 0.1394753374
H  H30  1  0.69670000  0.32860000  0.01230000  1.0 0.1394753374
H  H31  1  0.31560000  0.30330000  0.63190000  1.0 0.1394753374
H  H32  1  0.31630000  0.68440000  0.98770000  1.0 0.1394753374
H  H33  1  0.09280000  0.34760000  0.18440000  1.0 0.0988746727
H  H34  1  0.09160000  0.90720000  0.25480000  1.0 0.0988746727
H  H35  1  0.16320000  0.90840000  0.81560000  1.0 0.0988746727
H  H36  1  0.65240000  0.83680000  0.74520000  1.0 0.0988746727
H  H37  1  0.62010000  0.85460000  0.33030000  1.0 0.1107992904
H  H38  1  0.71020000  0.37990000  0.23450000  1.0 0.1107992904
H  H39  1  0.52430000  0.28980000  0.66970000  1.0 0.1107992904
H  H40  1  0.14540000  0.47570000  0.76550000  1.0 0.1107992904
H  H41  1  0.93910000  0.95440000  0.08350000  1.0 0.0988746727
H  H42  1  0.14440000  0.06090000  0.01530000  1.0 0.0988746727
H  H43  1  0.87090000  0.85560000  0.91650000  1.0 0.0988746727
H  H44  1  0.04560000  0.12910000  0.98470000  1.0 0.0988746727
H  H45  1  0.85790000  0.05630000  0.16840000  1.0 0.1107992904
H  H46  1  0.31050000  0.14210000  0.19840000  1.0 0.1107992904
H  H47  1  0.88790000  0.68950000  0.83160000  1.0 0.1107992904
H  H48  1  0.94370000  0.11210000  0.80160000  1.0 0.1107992904
H  H49  1  0.62690000  0.93320000  0.10690000  1.0 0.0880240537
H  H50  1  0.48000000  0.37310000  0.30630000  1.0 0.0880240537
H  H51  1  0.82630000  0.52000000  0.89310000  1.0 0.0880240537
H  H52  1  0.06680000  0.17370000  0.69370000  1.0 0.0880240537
H  H53  1  0.58230000  0.98240000  0.30310000  1.0 0.0988746727
H  H54  1  0.72080000  0.41770000  0.40010000  1.0 0.0988746727
H  H55  1  0.67930000  0.27920000  0.69690000  1.0 0.0988746727
H  H56  1  0.01760000  0.32070000  0.59990000  1.0 0.0988746727
H  H57  1  0.84830000  0.14250000  0.36200000  1.0 0.1107992904
H  H58  1  0.51370000  0.15170000  0.29420000  1.0 0.1107992904
H  H59  1  0.78050000  0.48630000  0.63800000  1.0 0.1107992904
H  H60  1  0.85750000  0.21950000  0.70580000  1.0 0.1107992904
C  C1  1  0.88677000  0.12349000  0.26406000  1.0 0.0988746727
C  C2  1  0.37729000  0.11323000  0.23672000  1.0 0.0988746727
C  C3  1  0.85943000  0.62271000  0.73594000  1.0 0.0988746727
C  C4  1  0.87651000  0.14057000  0.76328000  1.0 0.0988746727
C  C5  1  0.34160000  0.46839000  0.20679000  1.0 -0.2871606507
C  C6  1  0.86519000  0.65840000  0.12679000  1.0 -0.2871606507
C  C7  1  0.26160000  0.13481000  0.79321000  1.0 -0.2871606507
C  C8  1  0.53161000  0.73840000  0.87321000  1.0 -0.2871606507
C  C9  1  0.36824000  0.78301000  0.16445000  1.0 0.3848931856
C  C10  1  0.79621000  0.63176000  0.41477000  1.0 0.3848931856
C  C11  1  0.61856000  0.20379000  0.83555000  1.0 0.3848931856
C  C12  1  0.21699000  0.38144000  0.58523000  1.0 0.3848931856
C  C13  1  0.25822000  0.39277000  0.27279000  1.0 0.0880240537
C  C14  1  0.01457000  0.74178000  0.13455000  1.0 0.0880240537
C  C15  1  0.11998000  0.98543000  0.72721000  1.0 0.0880240537
C  C16  1  0.60723000  0.88002000  0.86545000  1.0 0.0880240537
C  C17  1  0.55819000  0.63486000  0.20045000  1.0 0.0880240537
C  C18  1  0.64226000  0.44181000  0.07667000  1.0 0.0880240537
C  C19  1  0.43441000  0.35774000  0.79955000  1.0 0.0880240537
C  C20  1  0.36514000  0.56559000  0.92333000  1.0 0.0880240537
C  C21  1  0.66001000  0.72759000  0.13400000  1.0 -0.1695367925
C  C22  1  0.47399000  0.33999000  0.06758000  1.0 -0.1695367925
C  C23  1  0.59359000  0.52601000  0.86600000  1.0 -0.1695367925
C  C24  1  0.27241000  0.40641000  0.93242000  1.0 -0.1695367925
C  C25  1  0.91013000  0.89583000  0.25356000  1.0 -0.1814200625
C  C26  1  0.34343000  0.08987000  0.98570000  1.0 -0.1814200625
C  C27  1  0.64227000  0.65657000  0.74644000  1.0 -0.1814200625
C  C28  1  0.10417000  0.35773000  0.01430000  1.0 -0.1814200625
C  C29  1  0.38077000  0.47149000  0.33226000  1.0 0.149557925
C  C30  1  0.95149000  0.61923000  0.09072000  1.0 0.149557925
C  C31  1  0.13923000  0.04851000  0.66774000  1.0 0.149557925
C  C32  1  0.52851000  0.86077000  0.90928000  1.0 0.149557925
C  C33  1  0.68612000  0.71997000  0.26109000  1.0 0.0880240537
C  C34  1  0.57497000  0.31388000  0.03385000  1.0 0.0880240537
C  C35  1  0.45888000  0.42503000  0.73891000  1.0 0.0880240537
C  C36  1  0.28003000  0.54112000  0.96615000  1.0 0.0880240537
C  C37  1  0.76906000  0.09624000  0.17110000  1.0 -0.0511589857
C  C38  1  0.40204000  0.23094000  0.32718000  1.0 -0.0511589857
C  C39  1  0.92514000  0.59796000  0.82890000  1.0 -0.0511589857
C  C40  1  0.90376000  0.07486000  0.67282000  1.0 -0.0511589857
C  C41  1  0.55026000  0.90268000  0.19854000  1.0 -0.030166271
C  C42  1  0.64828000  0.44974000  0.35242000  1.0 -0.030166271
C  C43  1  0.70414000  0.35172000  0.80146000  1.0 -0.030166271
C  C44  1  0.09732000  0.29586000  0.64758000  1.0 -0.030166271
C  C45  1  0.49426000  0.81114000  0.25820000  1.0 -0.0908355404
C  C46  1  0.76394000  0.50574000  0.31688000  1.0 -0.0908355404
C  C47  1  0.55294000  0.23606000  0.74180000  1.0 -0.0908355404
C  C48  1  0.18886000  0.44706000  0.68312000  1.0 -0.0908355404
C  C49  1  0.07352000  0.23419000  0.37051000  1.0 0.1184801004
C  C50  1  0.29699000  0.92648000  0.16067000  1.0 0.1184801004
C  C51  1  0.86368000  0.70301000  0.62949000  1.0 0.1184801004
C  C52  1  0.76581000  0.13632000  0.83933000  1.0 0.1184801004
C  C53  1  0.00363000  0.98301000  0.18864000  1.0 -0.1302031361
C  C54  1  0.18501000  0.99637000  0.97938000  1.0 -0.1302031361
C  C55  1  0.79437000  0.81499000  0.81136000  1.0 -0.1302031361
C  C56  1  0.01699000  0.20563000  0.02062000  1.0 -0.1302031361
C  C57  1  0.59161000  0.63265000  0.32766000  1.0 -0.2236857795
C  C58  1  0.73605000  0.40839000  0.04104000  1.0 -0.2236857795
C  C59  1  0.30499000  0.26395000  0.67234000  1.0 -0.2236857795
C  C60  1  0.36735000  0.69501000  0.95896000  1.0 -0.2236857795
C  C61  1  0.94016000  0.21066000  0.20342000  1.0 -0.0511589857
C  C62  1  0.26326000  0.05984000  0.27050000  1.0 -0.0511589857
C  C63  1  0.00724000  0.73674000  0.79658000  1.0 -0.0511589857
C  C64  1  0.78934000  0.99276000  0.72950000  1.0 -0.0511589857
C  C65  1  0.66112000  0.91990000  0.29042000  1.0 -0.0687828659
C  C66  1  0.62930000  0.33888000  0.25878000  1.0 -0.0687828659
C  C67  1  0.62948000  0.37070000  0.70958000  1.0 -0.0687828659
C  C68  1  0.08010000  0.37052000  0.74122000  1.0 -0.0687828659
C  C69  1  0.87522000  0.89571000  0.12833000  1.0 -0.1107779526
C  C70  1  0.25311000  0.12478000  0.02049000  1.0 -0.1107779526
C  C71  1  0.76738000  0.74689000  0.87167000  1.0 -0.1107779526
C  C72  1  0.10429000  0.23262000  0.97951000  1.0 -0.1107779526
C  C73  1  0.81040000  0.05000000  0.19640000  1.0 -0.0229586659
C  C74  1  0.38600000  0.18960000  0.23960000  1.0 -0.0229586659
C  C75  1  0.85360000  0.61400000  0.80360000  1.0 -0.0229586659
C  C76  1  0.95000000  0.14640000  0.76040000  1.0 -0.0229586659
C  C77  1  0.65180000  0.95440000  0.15820000  1.0 -0.0511589857
C  C78  1  0.50640000  0.34820000  0.30260000  1.0 -0.0511589857
C  C79  1  0.79620000  0.49360000  0.84180000  1.0 -0.0511589857
C  C80  1  0.04560000  0.20380000  0.69740000  1.0 -0.0511589857
C  C81  1  0.63330000  0.99130000  0.27660000  1.0 -0.0908355404
C  C82  1  0.64330000  0.36670000  0.35800000  1.0 -0.0908355404
C  C83  1  0.71470000  0.35670000  0.72340000  1.0 -0.0908355404
C  C84  1  0.00870000  0.28530000  0.64200000  1.0 -0.0908355404
C  C85  1  0.79950000  0.09570000  0.31120000  1.0 -0.0511589857
C  C86  1  0.51170000  0.20050000  0.29620000  1.0 -0.0511589857
C  C87  1  0.78450000  0.48830000  0.68880000  1.0 -0.0511589857
C  C88  1  0.90430000  0.21550000  0.70380000  1.0 -0.0511589857
N  N1  1  0.25667000  0.36552000  0.39199000  1.0 -0.3109429636
N  N2  1  0.13532000  0.74333000  0.10885000  1.0 -0.3109429636
N  N3  1  0.97353000  0.86468000  0.60801000  1.0 -0.3109429636
N  N4  1  0.63448000  0.02647000  0.89115000  1.0 -0.3109429636
N  N5  1  0.06056000  0.23981000  0.29957000  1.0 -0.2263948627
N  N6  1  0.23901000  0.93944000  0.17925000  1.0 -0.2263948627
N  N7  1  0.94024000  0.76099000  0.70043000  1.0 -0.2263948627
N  N8  1  0.76019000  0.05976000  0.82075000  1.0 -0.2263948627
O  O1  1  0.69384000  0.72826000  0.52110000  1.0 -0.7703887456
O  O2  1  0.82726000  0.30616000  0.03442000  1.0 -0.7703887456
O  O3  1  0.20716000  0.17274000  0.47890000  1.0 -0.7703887456
O  O4  1  0.27174000  0.79284000  0.96558000  1.0 -0.7703887456
O  O5  1  0.42273000  0.86379000  0.10772000  1.0 -0.4306359969
O  O6  1  0.68499000  0.57727000  0.44106000  1.0 -0.4306359969
O  O7  1  0.75607000  0.31501000  0.89228000  1.0 -0.4306359969
O  O8  1  0.13621000  0.24393000  0.55894000  1.0 -0.4306359969
O  O9  1  0.17462000  0.61005000  0.19207000  1.0 -0.0687828659
O  O10  1  0.01745000  0.82538000  0.43543000  1.0 -0.0687828659
O  O11  1  0.41798000  0.98255000  0.80793000  1.0 -0.0687828659
O  O12  1  0.38995000  0.58202000  0.56457000  1.0 -0.0687828659
O  O13  1  0.22510000  0.68540000  0.19650000  1.0 -0.0025726463
O  O14  1  0.97140000  0.77490000  0.46030000  1.0 -0.0025726463
O  O15  1  0.48890000  0.02860000  0.80350000  1.0 -0.0025726463
O  O16  1  0.31460000  0.51110000  0.53970000  1.0 -0.0025726463
