# DDEC6 charges by PACMAN v1.1 (https://github.com/mtap-research/PACMAN-charge/)
data_IFORIH_FSR_pacman
_symmetry_space_group_name_H-M   'P 1'
_cell_length_a   10.42900000
_cell_length_b   11.75700000
_cell_length_c   19.17710000
_cell_angle_alpha   90.00000000
_cell_angle_beta   114.59000000
_cell_angle_gamma   90.00000000
_symmetry_Int_Tables_number   1
_chemical_formula_structural   MnH20C19N2O5
_chemical_formula_sum   'Mn4 H80 C76 N8 O20'
_cell_volume   2138.12695539
_cell_formula_units_Z   4
loop_
 _symmetry_equiv_pos_site_id
 _symmetry_equiv_pos_as_xyz
  1  'x, y, z'
loop_
 _atom_site_type_symbol
 _atom_site_label
 _atom_site_symmetry_multiplicity
 _atom_site_fract_x
 _atom_site_fract_y
 _atom_site_fract_z
 _atom_site_occupancy
 _atom_site_charge
Mn  Mn1  1  0.50000000  0.81864000  0.75000000  1.0 0.9046882899
Mn  Mn2  1  0.00000000  0.89073000  0.75000000  1.0 0.9066794129
Mn  Mn3  1  0.50000000  0.18136000  0.25000000  1.0 0.9046882899
Mn  Mn4  1  0.00000000  0.10927000  0.25000000  1.0 0.9066794129
H  H1  1  0.68540000  0.03700000  0.83580000  1.0 0.1196885059
H  H2  1  0.69130000  0.23200000  0.83840000  1.0 0.1313357464
H  H3  1  0.28870000  0.40790000  0.71000000  1.0 0.1394714886
H  H4  1  0.29500000  0.60320000  0.71230000  1.0 0.1196885059
H  H5  1  0.94290000  0.67640000  0.63950000  1.0 0.1196885059
H  H6  1  0.94010000  0.48130000  0.63580000  1.0 0.1394714886
H  H7  1  0.02780000  0.30490000  0.65250000  1.0 0.1313357464
H  H8  1  0.02990000  0.10950000  0.65620000  1.0 0.1196885059
H  H9  1  0.65410000  0.64790000  0.97200000  1.0 0.1313357464
H  H10  1  0.53990000  0.67890000  0.89020000  1.0 0.1196885059
H  H11  1  0.32830000  0.73670000  0.98400000  1.0 0.1196885059
H  H12  1  0.37210000  0.64110000  0.94050000  1.0 0.1084693211
H  H13  1  0.42850000  0.63110000  0.08970000  1.0 0.0902045575
H  H14  1  0.49850000  0.55020000  0.04990000  1.0 0.0985136732
H  H15  1  0.64450000  0.70100000  0.15610000  1.0 0.0902045575
H  H16  1  0.70250000  0.64510000  0.10010000  1.0 0.0985136732
H  H17  1  0.70130000  0.83270000  0.06790000  1.0 0.1196885059
H  H18  1  0.56390000  0.85870000  0.08040000  1.0 0.1084693211
H  H19  1  0.52320000  0.93000000  0.92220000  1.0 0.1394714886
H  H20  1  0.41620000  0.92500000  0.96120000  1.0 0.1394714886
H  H21  1  0.31460000  0.03700000  0.66420000  1.0 0.1196885059
H  H22  1  0.30870000  0.23200000  0.66160000  1.0 0.1313357464
H  H23  1  0.71130000  0.40790000  0.79000000  1.0 0.1394714886
H  H24  1  0.70500000  0.60320000  0.78770000  1.0 0.1196885059
H  H25  1  0.05710000  0.67640000  0.86050000  1.0 0.1196885059
H  H26  1  0.05990000  0.48130000  0.86420000  1.0 0.1394714886
H  H27  1  0.97220000  0.30490000  0.84750000  1.0 0.1313357464
H  H28  1  0.97010000  0.10950000  0.84380000  1.0 0.1196885059
H  H29  1  0.34590000  0.64790000  0.52800000  1.0 0.1313357464
H  H30  1  0.46010000  0.67890000  0.60980000  1.0 0.1196885059
H  H31  1  0.67170000  0.73670000  0.51600000  1.0 0.1196885059
H  H32  1  0.62790000  0.64110000  0.55950000  1.0 0.1084693211
H  H33  1  0.57150000  0.63110000  0.41030000  1.0 0.0902045575
H  H34  1  0.50150000  0.55020000  0.45010000  1.0 0.0985136732
H  H35  1  0.35550000  0.70100000  0.34390000  1.0 0.0902045575
H  H36  1  0.29750000  0.64510000  0.39990000  1.0 0.0985136732
H  H37  1  0.29870000  0.83270000  0.43210000  1.0 0.1196885059
H  H38  1  0.43610000  0.85870000  0.41960000  1.0 0.1084693211
H  H39  1  0.47680000  0.93000000  0.57780000  1.0 0.1394714886
H  H40  1  0.58380000  0.92500000  0.53880000  1.0 0.1394714886
H  H41  1  0.31460000  0.96300000  0.16420000  1.0 0.1196885059
H  H42  1  0.30870000  0.76800000  0.16160000  1.0 0.1313357464
H  H43  1  0.71130000  0.59210000  0.29000000  1.0 0.1394714886
H  H44  1  0.70500000  0.39680000  0.28770000  1.0 0.1196885059
H  H45  1  0.05710000  0.32360000  0.36050000  1.0 0.1196885059
H  H46  1  0.05990000  0.51870000  0.36420000  1.0 0.1394714886
H  H47  1  0.97220000  0.69510000  0.34750000  1.0 0.1313357464
H  H48  1  0.97010000  0.89050000  0.34380000  1.0 0.1196885059
H  H49  1  0.34590000  0.35210000  0.02800000  1.0 0.1313357464
H  H50  1  0.46010000  0.32110000  0.10980000  1.0 0.1196885059
H  H51  1  0.67170000  0.26330000  0.01600000  1.0 0.1196885059
H  H52  1  0.62790000  0.35890000  0.05950000  1.0 0.1084693211
H  H53  1  0.57150000  0.36890000  0.91030000  1.0 0.0902045575
H  H54  1  0.50150000  0.44980000  0.95010000  1.0 0.0985136732
H  H55  1  0.35550000  0.29900000  0.84390000  1.0 0.0902045575
H  H56  1  0.29750000  0.35490000  0.89990000  1.0 0.0985136732
H  H57  1  0.29870000  0.16730000  0.93210000  1.0 0.1196885059
H  H58  1  0.43610000  0.14130000  0.91960000  1.0 0.1084693211
H  H59  1  0.47680000  0.07000000  0.07780000  1.0 0.1394714886
H  H60  1  0.58380000  0.07500000  0.03880000  1.0 0.1394714886
H  H61  1  0.68540000  0.96300000  0.33580000  1.0 0.1196885059
H  H62  1  0.69130000  0.76800000  0.33840000  1.0 0.1313357464
H  H63  1  0.28870000  0.59210000  0.21000000  1.0 0.1394714886
H  H64  1  0.29500000  0.39680000  0.21230000  1.0 0.1196885059
H  H65  1  0.94290000  0.32360000  0.13950000  1.0 0.1196885059
H  H66  1  0.94010000  0.51870000  0.13580000  1.0 0.1394714886
H  H67  1  0.02780000  0.69510000  0.15250000  1.0 0.1313357464
H  H68  1  0.02990000  0.89050000  0.15620000  1.0 0.1196885059
H  H69  1  0.65410000  0.35210000  0.47200000  1.0 0.1313357464
H  H70  1  0.53990000  0.32110000  0.39020000  1.0 0.1196885059
H  H71  1  0.32830000  0.26330000  0.48400000  1.0 0.1196885059
H  H72  1  0.37210000  0.35890000  0.44050000  1.0 0.1084693211
H  H73  1  0.42850000  0.36890000  0.58970000  1.0 0.0902045575
H  H74  1  0.49850000  0.44980000  0.54990000  1.0 0.0985136732
H  H75  1  0.64450000  0.29900000  0.65610000  1.0 0.0902045575
H  H76  1  0.70250000  0.35490000  0.60010000  1.0 0.0985136732
H  H77  1  0.70130000  0.16730000  0.56790000  1.0 0.1196885059
H  H78  1  0.56390000  0.14130000  0.58040000  1.0 0.1084693211
H  H79  1  0.52320000  0.07000000  0.42220000  1.0 0.1394714886
H  H80  1  0.41620000  0.07500000  0.46120000  1.0 0.1394714886
C  C1  1  0.60885000  0.07660000  0.80035000  1.0 0.0902045575
C  C2  1  0.61329000  0.19448000  0.80239000  1.0 -0.210502827
C  C3  1  0.37473000  0.44552000  0.72643000  1.0 -0.210502827
C  C4  1  0.37937000  0.56339000  0.72767000  1.0 0.0902045575
C  C5  1  0.32549000  0.86424000  0.85313000  1.0 0.6466055425
C  C6  1  0.44996000  0.88415000  0.93036000  1.0 -0.4419488398
C  C7  1  0.96628000  0.63660000  0.68508000  1.0 0.0819832357
C  C8  1  0.96459000  0.51866000  0.68229000  1.0 -0.21960031
C  C9  1  0.01686000  0.26737000  0.69236000  1.0 -0.2004581386
C  C10  1  0.01711000  0.14915000  0.69481000  1.0 0.0819832357
C  C11  1  0.71070000  0.78653000  0.92578000  1.0 0.6376705082
C  C12  1  0.60442000  0.71057000  0.93895000  1.0 -0.4103894098
C  C13  1  0.51838000  0.77531000  0.97592000  1.0 0.2311457308
C  C14  1  0.40718000  0.69379000  0.98328000  1.0 -0.2268624244
C  C15  1  0.48375000  0.62900000  0.05965000  1.0 -0.1496384679
C  C16  1  0.62599000  0.68930000  0.10269000  1.0 -0.1496384679
C  C17  1  0.61014000  0.80320000  0.06124000  1.0 -0.21960031
C  C18  1  0.39115000  0.07660000  0.69965000  1.0 0.0902045575
C  C19  1  0.38671000  0.19448000  0.69761000  1.0 -0.210502827
C  C20  1  0.62527000  0.44552000  0.77357000  1.0 -0.210502827
C  C21  1  0.62063000  0.56339000  0.77233000  1.0 0.0902045575
C  C22  1  0.67451000  0.86424000  0.64687000  1.0 0.6466055425
C  C23  1  0.55004000  0.88415000  0.56964000  1.0 -0.4419488398
C  C24  1  0.03372000  0.63660000  0.81492000  1.0 0.0819832357
C  C25  1  0.03541000  0.51866000  0.81771000  1.0 -0.21960031
C  C26  1  0.98314000  0.26737000  0.80764000  1.0 -0.2004581386
C  C27  1  0.98289000  0.14915000  0.80519000  1.0 0.0819832357
C  C28  1  0.28930000  0.78653000  0.57422000  1.0 0.6376705082
C  C29  1  0.39558000  0.71057000  0.56105000  1.0 -0.4103894098
C  C30  1  0.48162000  0.77531000  0.52408000  1.0 0.2311457308
C  C31  1  0.59282000  0.69379000  0.51672000  1.0 -0.2268624244
C  C32  1  0.51625000  0.62900000  0.44035000  1.0 -0.1496384679
C  C33  1  0.37401000  0.68930000  0.39731000  1.0 -0.1496384679
C  C34  1  0.38986000  0.80320000  0.43876000  1.0 -0.21960031
C  C35  1  0.50000000  0.25650000  0.75000000  1.0 0.0985136732
C  C36  1  0.50000000  0.38360000  0.75000000  1.0 0.0985136732
C  C37  1  0.00000000  0.45640000  0.75000000  1.0 0.0985136732
C  C38  1  0.00000000  0.32930000  0.75000000  1.0 0.0902045575
C  C39  1  0.39115000  0.92340000  0.19965000  1.0 0.0819832357
C  C40  1  0.38671000  0.80552000  0.19761000  1.0 -0.210502827
C  C41  1  0.62527000  0.55448000  0.27357000  1.0 -0.210502827
C  C42  1  0.62063000  0.43661000  0.27233000  1.0 0.0902045575
C  C43  1  0.67451000  0.13576000  0.14687000  1.0 0.6466055425
C  C44  1  0.55004000  0.11585000  0.06964000  1.0 -0.4419488398
C  C45  1  0.03372000  0.36340000  0.31492000  1.0 0.0819832357
C  C46  1  0.03541000  0.48134000  0.31771000  1.0 -0.21960031
C  C47  1  0.98314000  0.73263000  0.30764000  1.0 -0.2004581386
C  C48  1  0.98289000  0.85085000  0.30519000  1.0 0.0819832357
C  C49  1  0.28930000  0.21347000  0.07422000  1.0 0.6376705082
C  C50  1  0.39558000  0.28943000  0.06105000  1.0 -0.4103894098
C  C51  1  0.48162000  0.22469000  0.02408000  1.0 0.2311457308
C  C52  1  0.59282000  0.30621000  0.01672000  1.0 -0.2268624244
C  C53  1  0.51625000  0.37100000  0.94035000  1.0 -0.1496384679
C  C54  1  0.37401000  0.31070000  0.89731000  1.0 -0.1496384679
C  C55  1  0.38986000  0.19680000  0.93876000  1.0 -0.21960031
C  C56  1  0.60885000  0.92340000  0.30035000  1.0 0.0819832357
C  C57  1  0.61329000  0.80552000  0.30239000  1.0 -0.210502827
C  C58  1  0.37473000  0.55448000  0.22643000  1.0 -0.210502827
C  C59  1  0.37937000  0.43661000  0.22767000  1.0 0.0902045575
C  C60  1  0.32549000  0.13576000  0.35313000  1.0 0.6466055425
C  C61  1  0.44996000  0.11585000  0.43036000  1.0 -0.4419488398
C  C62  1  0.96628000  0.36340000  0.18508000  1.0 0.0819832357
C  C63  1  0.96459000  0.48134000  0.18229000  1.0 -0.21960031
C  C64  1  0.01686000  0.73263000  0.19236000  1.0 -0.2004581386
C  C65  1  0.01711000  0.85085000  0.19481000  1.0 0.0819832357
C  C66  1  0.71070000  0.21347000  0.42578000  1.0 0.6376705082
C  C67  1  0.60442000  0.28943000  0.43895000  1.0 -0.4103894098
C  C68  1  0.51838000  0.22469000  0.47592000  1.0 0.2311457308
C  C69  1  0.40718000  0.30621000  0.48328000  1.0 -0.2268624244
C  C70  1  0.48375000  0.37100000  0.55965000  1.0 -0.1496384679
C  C71  1  0.62599000  0.31070000  0.60269000  1.0 -0.1496384679
C  C72  1  0.61014000  0.19680000  0.56124000  1.0 -0.21960031
C  C73  1  0.50000000  0.74350000  0.25000000  1.0 0.0985136732
C  C74  1  0.50000000  0.61640000  0.25000000  1.0 0.0985136732
C  C75  1  0.00000000  0.54360000  0.25000000  1.0 0.0985136732
C  C76  1  0.00000000  0.67070000  0.25000000  1.0 0.0902045575
N  N1  1  0.50000000  0.01620000  0.75000000  1.0 -0.2380145335
N  N2  1  0.50000000  0.62310000  0.75000000  1.0 -0.2380145335
N  N3  1  0.00000000  0.69640000  0.75000000  1.0 -0.2380145335
N  N4  1  0.00000000  0.08890000  0.75000000  1.0 -0.2380145335
N  N5  1  0.50000000  0.98380000  0.25000000  1.0 -0.2380145335
N  N6  1  0.50000000  0.37690000  0.25000000  1.0 -0.2380145335
N  N7  1  0.00000000  0.30360000  0.25000000  1.0 -0.2380145335
N  N8  1  0.00000000  0.91110000  0.25000000  1.0 -0.2380145335
O  O1  1  0.68395000  0.81742000  0.85709000  1.0 -0.5410751788
O  O2  1  0.34454000  0.81989000  0.79840000  1.0 -0.5564989237
O  O3  1  0.20447000  0.89405000  0.84832000  1.0 -0.5564989237
O  O4  1  0.08013000  0.89176000  0.65965000  1.0 -0.2004581386
O  O5  1  0.81975000  0.81810000  0.98235000  1.0 -0.5686289309
O  O6  1  0.31605000  0.81742000  0.64291000  1.0 -0.5410751788
O  O7  1  0.65546000  0.81989000  0.70160000  1.0 -0.5564989237
O  O8  1  0.79553000  0.89405000  0.65168000  1.0 -0.5564989237
O  O9  1  0.91987000  0.89176000  0.84035000  1.0 -0.2004581386
O  O10  1  0.18025000  0.81810000  0.51765000  1.0 -0.5686289309
O  O11  1  0.31605000  0.18258000  0.14291000  1.0 -0.5410751788
O  O12  1  0.65546000  0.18011000  0.20160000  1.0 -0.5564989237
O  O13  1  0.79553000  0.10595000  0.15168000  1.0 -0.5564989237
O  O14  1  0.91987000  0.10824000  0.34035000  1.0 -0.2004581386
O  O15  1  0.18025000  0.18190000  0.01765000  1.0 -0.5686289309
O  O16  1  0.68395000  0.18258000  0.35709000  1.0 -0.5410751788
O  O17  1  0.34454000  0.18011000  0.29840000  1.0 -0.5564989237
O  O18  1  0.20447000  0.10595000  0.34832000  1.0 -0.5564989237
O  O19  1  0.08013000  0.10824000  0.15965000  1.0 -0.2004581386
O  O20  1  0.81975000  0.18190000  0.48235000  1.0 -0.5686289309
