# DDEC6 charges by PACMAN v1.1 (https://github.com/mtap-research/PACMAN-charge/)
data_IGAGUU_ASR_pacman
_symmetry_space_group_name_H-M   'P 1'
_cell_length_a   29.72000000
_cell_length_b   29.72000000
_cell_length_c   26.38800000
_cell_angle_alpha   90.00000000
_cell_angle_beta   90.00000000
_cell_angle_gamma   120.00000000
_symmetry_Int_Tables_number   1
_chemical_formula_structural   Cr9Cu6H108C126N18Cl14O39
_chemical_formula_sum   'Cr18 Cu12 H216 C252 N36 Cl28 O78'
_cell_volume   20185.27717318
_cell_formula_units_Z   2
loop_
 _symmetry_equiv_pos_site_id
 _symmetry_equiv_pos_as_xyz
  1  'x, y, z'
loop_
 _atom_site_type_symbol
 _atom_site_label
 _atom_site_symmetry_multiplicity
 _atom_site_fract_x
 _atom_site_fract_y
 _atom_site_fract_z
 _atom_site_occupancy
 _atom_site_charge
Cr  Cr1  1  0.00000000  0.58370000  0.25000000  1.0 1.5883052218
Cr  Cr2  1  0.00000000  0.41630000  0.75000000  1.0 1.5847885478
Cr  Cr3  1  0.41630000  0.41630000  0.25000000  1.0 1.5883052218
Cr  Cr4  1  0.58370000  0.00000000  0.25000000  1.0 1.5883052218
Cr  Cr5  1  0.41630000  0.00000000  0.75000000  1.0 1.5883052218
Cr  Cr6  1  0.58370000  0.58370000  0.75000000  1.0 1.5883052218
Cr  Cr7  1  0.00000000  0.67810000  0.31200000  1.0 1.5358971226
Cr  Cr8  1  0.00000000  0.32190000  0.81200000  1.0 1.5312700141
Cr  Cr9  1  0.32190000  0.32190000  0.31200000  1.0 1.5358971226
Cr  Cr10  1  0.67810000  0.00000000  0.31200000  1.0 1.5358971226
Cr  Cr11  1  0.32190000  0.00000000  0.81200000  1.0 1.5358971226
Cr  Cr12  1  0.67810000  0.67810000  0.81200000  1.0 1.5312700141
Cr  Cr13  1  0.32190000  0.32190000  0.18800000  1.0 1.5312700141
Cr  Cr14  1  0.00000000  0.67810000  0.18800000  1.0 1.5312700141
Cr  Cr15  1  0.67810000  0.00000000  0.18800000  1.0 1.5358971226
Cr  Cr16  1  0.32190000  0.00000000  0.68800000  1.0 1.5358971226
Cr  Cr17  1  0.00000000  0.32190000  0.68800000  1.0 1.5312700141
Cr  Cr18  1  0.67810000  0.67810000  0.68800000  1.0 1.5312700141
Cu  Cu1  1  0.23654000  0.61827000  0.50000000  1.0 0.7387526054
Cu  Cu2  1  0.76346000  0.38173000  0.00000000  1.0 0.7387526054
Cu  Cu3  1  0.38173000  0.61827000  0.50000000  1.0 0.7387526054
Cu  Cu4  1  0.38173000  0.76346000  0.50000000  1.0 0.7387526054
Cu  Cu5  1  0.61827000  0.23654000  0.00000000  1.0 0.7387526054
Cu  Cu6  1  0.61827000  0.38173000  0.00000000  1.0 0.7387526054
Cu  Cu7  1  0.76346000  0.38173000  0.50000000  1.0 0.7387526054
Cu  Cu8  1  0.23654000  0.61827000  0.00000000  1.0 0.7387526054
Cu  Cu9  1  0.61827000  0.38173000  0.50000000  1.0 0.7387526054
Cu  Cu10  1  0.61827000  0.23654000  0.50000000  1.0 0.7387526054
Cu  Cu11  1  0.38173000  0.76346000  0.00000000  1.0 0.7387526054
Cu  Cu12  1  0.38173000  0.61827000  0.00000000  1.0 0.7387526054
H  H1  1  0.26610000  0.69880000  0.44690000  1.0 0.2806042103
H  H2  1  0.73390000  0.30120000  0.94690000  1.0 0.2806042103
H  H3  1  0.30120000  0.56730000  0.44690000  1.0 0.2806042103
H  H4  1  0.43270000  0.73390000  0.44690000  1.0 0.2806042103
H  H5  1  0.56730000  0.26610000  0.94690000  1.0 0.2806042103
H  H6  1  0.69880000  0.43270000  0.94690000  1.0 0.2806042103
H  H7  1  0.56730000  0.30120000  0.05310000  1.0 0.2806042103
H  H8  1  0.73390000  0.43270000  0.05310000  1.0 0.2806042103
H  H9  1  0.69880000  0.26610000  0.05310000  1.0 0.2806042103
H  H10  1  0.30120000  0.73390000  0.55310000  1.0 0.2806042103
H  H11  1  0.26610000  0.56730000  0.55310000  1.0 0.2806042103
H  H12  1  0.43270000  0.69880000  0.55310000  1.0 0.2806042103
H  H13  1  0.73390000  0.30120000  0.55310000  1.0 0.2806042103
H  H14  1  0.26610000  0.69880000  0.05310000  1.0 0.2806042103
H  H15  1  0.69880000  0.43270000  0.55310000  1.0 0.2806042103
H  H16  1  0.56730000  0.26610000  0.55310000  1.0 0.2806042103
H  H17  1  0.43270000  0.73390000  0.05310000  1.0 0.2806042103
H  H18  1  0.30120000  0.56730000  0.05310000  1.0 0.2806042103
H  H19  1  0.43270000  0.69880000  0.94690000  1.0 0.2806042103
H  H20  1  0.26610000  0.56730000  0.94690000  1.0 0.2806042103
H  H21  1  0.30120000  0.73390000  0.94690000  1.0 0.2806042103
H  H22  1  0.69880000  0.26610000  0.44690000  1.0 0.2806042103
H  H23  1  0.73390000  0.43270000  0.44690000  1.0 0.2806042103
H  H24  1  0.56730000  0.30120000  0.44690000  1.0 0.2806042103
H  H25  1  0.26860000  0.65950000  0.41430000  1.0 0.2874016765
H  H26  1  0.73140000  0.34050000  0.91430000  1.0 0.2806042103
H  H27  1  0.34050000  0.60910000  0.41430000  1.0 0.2874016765
H  H28  1  0.39090000  0.73140000  0.41430000  1.0 0.2874016765
H  H29  1  0.60910000  0.26860000  0.91430000  1.0 0.2874016765
H  H30  1  0.65950000  0.39090000  0.91430000  1.0 0.2806042103
H  H31  1  0.60910000  0.34050000  0.08570000  1.0 0.2874016765
H  H32  1  0.73140000  0.39090000  0.08570000  1.0 0.2806042103
H  H33  1  0.65950000  0.26860000  0.08570000  1.0 0.2874016765
H  H34  1  0.34050000  0.73140000  0.58570000  1.0 0.2874016765
H  H35  1  0.26860000  0.60910000  0.58570000  1.0 0.2874016765
H  H36  1  0.39090000  0.65950000  0.58570000  1.0 0.2874016765
H  H37  1  0.73140000  0.34050000  0.58570000  1.0 0.2806042103
H  H38  1  0.26860000  0.65950000  0.08570000  1.0 0.2874016765
H  H39  1  0.65950000  0.39090000  0.58570000  1.0 0.2806042103
H  H40  1  0.60910000  0.26860000  0.58570000  1.0 0.2874016765
H  H41  1  0.39090000  0.73140000  0.08570000  1.0 0.2874016765
H  H42  1  0.34050000  0.60910000  0.08570000  1.0 0.2874016765
H  H43  1  0.39090000  0.65950000  0.91430000  1.0 0.2874016765
H  H44  1  0.26860000  0.60910000  0.91430000  1.0 0.2874016765
H  H45  1  0.34050000  0.73140000  0.91430000  1.0 0.2874016765
H  H46  1  0.65950000  0.26860000  0.41430000  1.0 0.2874016765
H  H47  1  0.73140000  0.39090000  0.41430000  1.0 0.2806042103
H  H48  1  0.60910000  0.34050000  0.41430000  1.0 0.2874016765
H  H49  1  0.19460000  0.60010000  0.36270000  1.0 0.1276955134
H  H50  1  0.80540000  0.39990000  0.86270000  1.0 0.1276955134
H  H51  1  0.39990000  0.59450000  0.36270000  1.0 0.1276955134
H  H52  1  0.40550000  0.80540000  0.36270000  1.0 0.1276955134
H  H53  1  0.59450000  0.19460000  0.86270000  1.0 0.1276955134
H  H54  1  0.60010000  0.40550000  0.86270000  1.0 0.1276955134
H  H55  1  0.59450000  0.39990000  0.13730000  1.0 0.1276955134
H  H56  1  0.80540000  0.40550000  0.13730000  1.0 0.1276955134
H  H57  1  0.60010000  0.19460000  0.13730000  1.0 0.1276955134
H  H58  1  0.39990000  0.80540000  0.63730000  1.0 0.1276955134
H  H59  1  0.19460000  0.59450000  0.63730000  1.0 0.1276955134
H  H60  1  0.40550000  0.60010000  0.63730000  1.0 0.1276955134
H  H61  1  0.80540000  0.39990000  0.63730000  1.0 0.1276955134
H  H62  1  0.19460000  0.60010000  0.13730000  1.0 0.1276955134
H  H63  1  0.60010000  0.40550000  0.63730000  1.0 0.1276955134
H  H64  1  0.59450000  0.19460000  0.63730000  1.0 0.1276955134
H  H65  1  0.40550000  0.80540000  0.13730000  1.0 0.1276955134
H  H66  1  0.39990000  0.59450000  0.13730000  1.0 0.1276955134
H  H67  1  0.40550000  0.60010000  0.86270000  1.0 0.1276955134
H  H68  1  0.19460000  0.59450000  0.86270000  1.0 0.1276955134
H  H69  1  0.39990000  0.80540000  0.86270000  1.0 0.1276955134
H  H70  1  0.60010000  0.19460000  0.36270000  1.0 0.1276955134
H  H71  1  0.80540000  0.40550000  0.36270000  1.0 0.1276955134
H  H72  1  0.59450000  0.39990000  0.36270000  1.0 0.1276955134
H  H73  1  0.12440000  0.70120000  0.40460000  1.0 0.1227132771
H  H74  1  0.87560000  0.29880000  0.90460000  1.0 0.1227132771
H  H75  1  0.29880000  0.42320000  0.40460000  1.0 0.1227132771
H  H76  1  0.57680000  0.87560000  0.40460000  1.0 0.1227132771
H  H77  1  0.42320000  0.12440000  0.90460000  1.0 0.1227132771
H  H78  1  0.70120000  0.57680000  0.90460000  1.0 0.1227132771
H  H79  1  0.42320000  0.29880000  0.09540000  1.0 0.1227132771
H  H80  1  0.87560000  0.57680000  0.09540000  1.0 0.1227132771
H  H81  1  0.70120000  0.12440000  0.09540000  1.0 0.1227132771
H  H82  1  0.29880000  0.87560000  0.59540000  1.0 0.1227132771
H  H83  1  0.12440000  0.42320000  0.59540000  1.0 0.1227132771
H  H84  1  0.57680000  0.70120000  0.59540000  1.0 0.1227132771
H  H85  1  0.87560000  0.29880000  0.59540000  1.0 0.1227132771
H  H86  1  0.12440000  0.70120000  0.09540000  1.0 0.1227132771
H  H87  1  0.70120000  0.57680000  0.59540000  1.0 0.1227132771
H  H88  1  0.42320000  0.12440000  0.59540000  1.0 0.1227132771
H  H89  1  0.57680000  0.87560000  0.09540000  1.0 0.1227132771
H  H90  1  0.29880000  0.42320000  0.09540000  1.0 0.1227132771
H  H91  1  0.57680000  0.70120000  0.90460000  1.0 0.1227132771
H  H92  1  0.12440000  0.42320000  0.90460000  1.0 0.1227132771
H  H93  1  0.29880000  0.87560000  0.90460000  1.0 0.1227132771
H  H94  1  0.70120000  0.12440000  0.40460000  1.0 0.1227132771
H  H95  1  0.87560000  0.57680000  0.40460000  1.0 0.1227132771
H  H96  1  0.42320000  0.29880000  0.40460000  1.0 0.1227132771
H  H97  1  0.19640000  0.71200000  0.44920000  1.0 0.1352356094
H  H98  1  0.80360000  0.28800000  0.94920000  1.0 0.1352356094
H  H99  1  0.28800000  0.48440000  0.44920000  1.0 0.1352356094
H  H100  1  0.51560000  0.80360000  0.44920000  1.0 0.1352356094
H  H101  1  0.48440000  0.19640000  0.94920000  1.0 0.1352356094
H  H102  1  0.71200000  0.51560000  0.94920000  1.0 0.1352356094
H  H103  1  0.48440000  0.28800000  0.05080000  1.0 0.1352356094
H  H104  1  0.80360000  0.51560000  0.05080000  1.0 0.1352356094
H  H105  1  0.71200000  0.19640000  0.05080000  1.0 0.1352356094
H  H106  1  0.28800000  0.80360000  0.55080000  1.0 0.1352356094
H  H107  1  0.19640000  0.48440000  0.55080000  1.0 0.1276955134
H  H108  1  0.51560000  0.71200000  0.55080000  1.0 0.1352356094
H  H109  1  0.80360000  0.28800000  0.55080000  1.0 0.1352356094
H  H110  1  0.19640000  0.71200000  0.05080000  1.0 0.1352356094
H  H111  1  0.71200000  0.51560000  0.55080000  1.0 0.1352356094
H  H112  1  0.48440000  0.19640000  0.55080000  1.0 0.1352356094
H  H113  1  0.51560000  0.80360000  0.05080000  1.0 0.1352356094
H  H114  1  0.28800000  0.48440000  0.05080000  1.0 0.1276955134
H  H115  1  0.51560000  0.71200000  0.94920000  1.0 0.1352356094
H  H116  1  0.19640000  0.48440000  0.94920000  1.0 0.1276955134
H  H117  1  0.28800000  0.80360000  0.94920000  1.0 0.1352356094
H  H118  1  0.71200000  0.19640000  0.44920000  1.0 0.1352356094
H  H119  1  0.80360000  0.51560000  0.44920000  1.0 0.1352356094
H  H120  1  0.48440000  0.28800000  0.44920000  1.0 0.1352356094
H  H121  1  0.11520000  0.58070000  0.32710000  1.0 0.1276955134
H  H122  1  0.88480000  0.41930000  0.82710000  1.0 0.1276955134
H  H123  1  0.41930000  0.53450000  0.32710000  1.0 0.1276955134
H  H124  1  0.46550000  0.88480000  0.32710000  1.0 0.1276955134
H  H125  1  0.53450000  0.11520000  0.82710000  1.0 0.1276955134
H  H126  1  0.58070000  0.46550000  0.82710000  1.0 0.1276955134
H  H127  1  0.53450000  0.41930000  0.17290000  1.0 0.1276955134
H  H128  1  0.88480000  0.46550000  0.17290000  1.0 0.1276955134
H  H129  1  0.58070000  0.11520000  0.17290000  1.0 0.1276955134
H  H130  1  0.41930000  0.88480000  0.67290000  1.0 0.1276955134
H  H131  1  0.11520000  0.53450000  0.67290000  1.0 0.1276955134
H  H132  1  0.46550000  0.58070000  0.67290000  1.0 0.1276955134
H  H133  1  0.88480000  0.41930000  0.67290000  1.0 0.1276955134
H  H134  1  0.11520000  0.58070000  0.17290000  1.0 0.1276955134
H  H135  1  0.58070000  0.46550000  0.67290000  1.0 0.1276955134
H  H136  1  0.53450000  0.11520000  0.67290000  1.0 0.1276955134
H  H137  1  0.46550000  0.88480000  0.17290000  1.0 0.1276955134
H  H138  1  0.41930000  0.53450000  0.17290000  1.0 0.1276955134
H  H139  1  0.46550000  0.58070000  0.82710000  1.0 0.1276955134
H  H140  1  0.11520000  0.53450000  0.82710000  1.0 0.1276955134
H  H141  1  0.41930000  0.88480000  0.82710000  1.0 0.1276955134
H  H142  1  0.58070000  0.11520000  0.32710000  1.0 0.1276955134
H  H143  1  0.88480000  0.46550000  0.32710000  1.0 0.1276955134
H  H144  1  0.53450000  0.41930000  0.32710000  1.0 0.1276955134
H  H145  1  0.21470000  0.88840000  0.32630000  1.0 0.1079731303
H  H146  1  0.78530000  0.11160000  0.82630000  1.0 0.1079731303
H  H147  1  0.11160000  0.32630000  0.32630000  1.0 0.1079731303
H  H148  1  0.67370000  0.78530000  0.32630000  1.0 0.1079731303
H  H149  1  0.32630000  0.21470000  0.82630000  1.0 0.1079731303
H  H150  1  0.88840000  0.67370000  0.82630000  1.0 0.1079731303
H  H151  1  0.32630000  0.11160000  0.17370000  1.0 0.1079731303
H  H152  1  0.78530000  0.67370000  0.17370000  1.0 0.1079731303
H  H153  1  0.88840000  0.21470000  0.17370000  1.0 0.1079731303
H  H154  1  0.11160000  0.78530000  0.67370000  1.0 0.1079731303
H  H155  1  0.21470000  0.32630000  0.67370000  1.0 0.1079731303
H  H156  1  0.67370000  0.88840000  0.67370000  1.0 0.1079731303
H  H157  1  0.78530000  0.11160000  0.67370000  1.0 0.1079731303
H  H158  1  0.21470000  0.88840000  0.17370000  1.0 0.1079731303
H  H159  1  0.88840000  0.67370000  0.67370000  1.0 0.1079731303
H  H160  1  0.32630000  0.21470000  0.67370000  1.0 0.1079731303
H  H161  1  0.67370000  0.78530000  0.17370000  1.0 0.1079731303
H  H162  1  0.11160000  0.32630000  0.17370000  1.0 0.1079731303
H  H163  1  0.67370000  0.88840000  0.82630000  1.0 0.1079731303
H  H164  1  0.21470000  0.32630000  0.82630000  1.0 0.1079731303
H  H165  1  0.11160000  0.78530000  0.82630000  1.0 0.1079731303
H  H166  1  0.88840000  0.21470000  0.32630000  1.0 0.1079731303
H  H167  1  0.78530000  0.67370000  0.32630000  1.0 0.1079731303
H  H168  1  0.32630000  0.11160000  0.32630000  1.0 0.1079731303
H  H169  1  0.13160000  0.81540000  0.32640000  1.0 0.1276955134
H  H170  1  0.86840000  0.18460000  0.82640000  1.0 0.1276955134
H  H171  1  0.18460000  0.31620000  0.32640000  1.0 0.1276955134
H  H172  1  0.68380000  0.86840000  0.32640000  1.0 0.1276955134
H  H173  1  0.31620000  0.13160000  0.82640000  1.0 0.1276955134
H  H174  1  0.81540000  0.68380000  0.82640000  1.0 0.1276955134
H  H175  1  0.31620000  0.18460000  0.17360000  1.0 0.1276955134
H  H176  1  0.86840000  0.68380000  0.17360000  1.0 0.1276955134
H  H177  1  0.81540000  0.13160000  0.17360000  1.0 0.1276955134
H  H178  1  0.18460000  0.86840000  0.67360000  1.0 0.1276955134
H  H179  1  0.13160000  0.31620000  0.67360000  1.0 0.1276955134
H  H180  1  0.68380000  0.81540000  0.67360000  1.0 0.1276955134
H  H181  1  0.86840000  0.18460000  0.67360000  1.0 0.1276955134
H  H182  1  0.13160000  0.81540000  0.17360000  1.0 0.1276955134
H  H183  1  0.81540000  0.68380000  0.67360000  1.0 0.1276955134
H  H184  1  0.31620000  0.13160000  0.67360000  1.0 0.1276955134
H  H185  1  0.68380000  0.86840000  0.17360000  1.0 0.1276955134
H  H186  1  0.18460000  0.31620000  0.17360000  1.0 0.1276955134
H  H187  1  0.68380000  0.81540000  0.82640000  1.0 0.1276955134
H  H188  1  0.13160000  0.31620000  0.82640000  1.0 0.1276955134
H  H189  1  0.18460000  0.86840000  0.82640000  1.0 0.1276955134
H  H190  1  0.81540000  0.13160000  0.32640000  1.0 0.1276955134
H  H191  1  0.86840000  0.68380000  0.32640000  1.0 0.1276955134
H  H192  1  0.31620000  0.18460000  0.32640000  1.0 0.1276955134
H  H193  1  0.29040000  0.95480000  0.22110000  1.0 0.2874016765
H  H194  1  0.70960000  0.04520000  0.72110000  1.0 0.2874016765
H  H195  1  0.04520000  0.33560000  0.22110000  1.0 0.2874016765
H  H196  1  0.66440000  0.70960000  0.22110000  1.0 0.2874016765
H  H197  1  0.33560000  0.29040000  0.72110000  1.0 0.2874016765
H  H198  1  0.95480000  0.66440000  0.72110000  1.0 0.2874016765
H  H199  1  0.33560000  0.04520000  0.27890000  1.0 0.2874016765
H  H200  1  0.70960000  0.66440000  0.27890000  1.0 0.2874016765
H  H201  1  0.95480000  0.29040000  0.27890000  1.0 0.2874016765
H  H202  1  0.04520000  0.70960000  0.77890000  1.0 0.2874016765
H  H203  1  0.29040000  0.33560000  0.77890000  1.0 0.2874016765
H  H204  1  0.66440000  0.95480000  0.77890000  1.0 0.2874016765
H  H205  1  0.70960000  0.04520000  0.77890000  1.0 0.2874016765
H  H206  1  0.29040000  0.95480000  0.27890000  1.0 0.2874016765
H  H207  1  0.95480000  0.66440000  0.77890000  1.0 0.2874016765
H  H208  1  0.33560000  0.29040000  0.77890000  1.0 0.2874016765
H  H209  1  0.66440000  0.70960000  0.27890000  1.0 0.2874016765
H  H210  1  0.04520000  0.33560000  0.27890000  1.0 0.2874016765
H  H211  1  0.66440000  0.95480000  0.72110000  1.0 0.2874016765
H  H212  1  0.29040000  0.33560000  0.72110000  1.0 0.2874016765
H  H213  1  0.04520000  0.70960000  0.72110000  1.0 0.2874016765
H  H214  1  0.95480000  0.29040000  0.22110000  1.0 0.2874016765
H  H215  1  0.70960000  0.66440000  0.22110000  1.0 0.2874016765
H  H216  1  0.33560000  0.04520000  0.22110000  1.0 0.2874016765
C  C1  1  0.06900000  0.76070000  0.25000000  1.0 0.5701268979
C  C2  1  0.93100000  0.23930000  0.75000000  1.0 0.5701268979
C  C3  1  0.23930000  0.30830000  0.25000000  1.0 0.5701268979
C  C4  1  0.69170000  0.93100000  0.25000000  1.0 0.5701268979
C  C5  1  0.30830000  0.06900000  0.75000000  1.0 0.5701268979
C  C6  1  0.76070000  0.69170000  0.75000000  1.0 0.5701268979
C  C7  1  0.30830000  0.23930000  0.25000000  1.0 0.5701268979
C  C8  1  0.93100000  0.69170000  0.25000000  1.0 0.5701268979
C  C9  1  0.76070000  0.06900000  0.25000000  1.0 0.5701268979
C  C10  1  0.23930000  0.93100000  0.75000000  1.0 0.5701268979
C  C11  1  0.06900000  0.30830000  0.75000000  1.0 0.5701268979
C  C12  1  0.69170000  0.76070000  0.75000000  1.0 0.5701268979
C  C13  1  0.12240000  0.80730000  0.25000000  1.0 -0.0559203588
C  C14  1  0.87760000  0.19270000  0.75000000  1.0 -0.0559203588
C  C15  1  0.19270000  0.31510000  0.25000000  1.0 -0.0559203588
C  C16  1  0.68490000  0.87760000  0.25000000  1.0 -0.0559203588
C  C17  1  0.31510000  0.12240000  0.75000000  1.0 -0.0559203588
C  C18  1  0.80730000  0.68490000  0.75000000  1.0 -0.0559203588
C  C19  1  0.31510000  0.19270000  0.25000000  1.0 -0.0559203588
C  C20  1  0.87760000  0.68490000  0.25000000  1.0 -0.0559203588
C  C21  1  0.80730000  0.12240000  0.25000000  1.0 -0.0559203588
C  C22  1  0.19270000  0.87760000  0.75000000  1.0 -0.0559203588
C  C23  1  0.12240000  0.31510000  0.75000000  1.0 -0.0559203588
C  C24  1  0.68490000  0.80730000  0.75000000  1.0 -0.0559203588
C  C25  1  0.20040000  0.65510000  0.41070000  1.0 0.2336302455
C  C26  1  0.79960000  0.34490000  0.91070000  1.0 0.2336302455
C  C27  1  0.34490000  0.54530000  0.41070000  1.0 0.2336302455
C  C28  1  0.45470000  0.79960000  0.41070000  1.0 0.2336302455
C  C29  1  0.54530000  0.20040000  0.91070000  1.0 0.2336302455
C  C30  1  0.65510000  0.45470000  0.91070000  1.0 0.2336302455
C  C31  1  0.54530000  0.34490000  0.08930000  1.0 0.2336302455
C  C32  1  0.79960000  0.45470000  0.08930000  1.0 0.2336302455
C  C33  1  0.65510000  0.20040000  0.08930000  1.0 0.2336302455
C  C34  1  0.34490000  0.79960000  0.58930000  1.0 0.2336302455
C  C35  1  0.20040000  0.54530000  0.58930000  1.0 0.2336302455
C  C36  1  0.45470000  0.65510000  0.58930000  1.0 0.2336302455
C  C37  1  0.79960000  0.34490000  0.58930000  1.0 0.2336302455
C  C38  1  0.20040000  0.65510000  0.08930000  1.0 0.2336302455
C  C39  1  0.65510000  0.45470000  0.58930000  1.0 0.2336302455
C  C40  1  0.54530000  0.20040000  0.58930000  1.0 0.2336302455
C  C41  1  0.45470000  0.79960000  0.08930000  1.0 0.2336302455
C  C42  1  0.34490000  0.54530000  0.08930000  1.0 0.2336302455
C  C43  1  0.45470000  0.65510000  0.91070000  1.0 0.2336302455
C  C44  1  0.20040000  0.54530000  0.91070000  1.0 0.2336302455
C  C45  1  0.34490000  0.79960000  0.91070000  1.0 0.2336302455
C  C46  1  0.65510000  0.20040000  0.41070000  1.0 0.2336302455
C  C47  1  0.79960000  0.45470000  0.41070000  1.0 0.2336302455
C  C48  1  0.54530000  0.34490000  0.41070000  1.0 0.2336302455
C  C49  1  0.17820000  0.61910000  0.37290000  1.0 -0.199538768
C  C50  1  0.82180000  0.38090000  0.87290000  1.0 -0.199538768
C  C51  1  0.38090000  0.55910000  0.37290000  1.0 -0.199538768
C  C52  1  0.44090000  0.82180000  0.37290000  1.0 -0.199538768
C  C53  1  0.55910000  0.17820000  0.87290000  1.0 -0.199538768
C  C54  1  0.61910000  0.44090000  0.87290000  1.0 -0.199538768
C  C55  1  0.55910000  0.38090000  0.12710000  1.0 -0.199538768
C  C56  1  0.82180000  0.44090000  0.12710000  1.0 -0.199538768
C  C57  1  0.61910000  0.17820000  0.12710000  1.0 -0.199538768
C  C58  1  0.38090000  0.82180000  0.62710000  1.0 -0.199538768
C  C59  1  0.17820000  0.55910000  0.62710000  1.0 -0.199538768
C  C60  1  0.44090000  0.61910000  0.62710000  1.0 -0.199538768
C  C61  1  0.82180000  0.38090000  0.62710000  1.0 -0.199538768
C  C62  1  0.17820000  0.61910000  0.12710000  1.0 -0.199538768
C  C63  1  0.61910000  0.44090000  0.62710000  1.0 -0.199538768
C  C64  1  0.55910000  0.17820000  0.62710000  1.0 -0.199538768
C  C65  1  0.44090000  0.82180000  0.12710000  1.0 -0.199538768
C  C66  1  0.38090000  0.55910000  0.12710000  1.0 -0.199538768
C  C67  1  0.44090000  0.61910000  0.87290000  1.0 -0.199538768
C  C68  1  0.17820000  0.55910000  0.87290000  1.0 -0.199538768
C  C69  1  0.38090000  0.82180000  0.87290000  1.0 -0.199538768
C  C70  1  0.61910000  0.17820000  0.37290000  1.0 -0.199538768
C  C71  1  0.82180000  0.44090000  0.37290000  1.0 -0.199538768
C  C72  1  0.55910000  0.38090000  0.37290000  1.0 -0.199538768
C  C73  1  0.11580000  0.64370000  0.35870000  1.0 -0.0660918859
C  C74  1  0.88420000  0.35630000  0.85870000  1.0 -0.0660918859
C  C75  1  0.35630000  0.47210000  0.35870000  1.0 -0.0660918859
C  C76  1  0.52790000  0.88420000  0.35870000  1.0 -0.0660918859
C  C77  1  0.47210000  0.11580000  0.85870000  1.0 -0.0660918859
C  C78  1  0.64370000  0.52790000  0.85870000  1.0 -0.0660918859
C  C79  1  0.47210000  0.35630000  0.14130000  1.0 -0.0660918859
C  C80  1  0.88420000  0.52790000  0.14130000  1.0 -0.0660918859
C  C81  1  0.64370000  0.11580000  0.14130000  1.0 -0.0660918859
C  C82  1  0.35630000  0.88420000  0.64130000  1.0 -0.0660918859
C  C83  1  0.11580000  0.47210000  0.64130000  1.0 -0.0660918859
C  C84  1  0.52790000  0.64370000  0.64130000  1.0 -0.0660918859
C  C85  1  0.88420000  0.35630000  0.64130000  1.0 -0.0660918859
C  C86  1  0.11580000  0.64370000  0.14130000  1.0 -0.0660918859
C  C87  1  0.64370000  0.52790000  0.64130000  1.0 -0.0660918859
C  C88  1  0.47210000  0.11580000  0.64130000  1.0 -0.0660918859
C  C89  1  0.52790000  0.88420000  0.14130000  1.0 -0.0660918859
C  C90  1  0.35630000  0.47210000  0.14130000  1.0 -0.0660918859
C  C91  1  0.52790000  0.64370000  0.85870000  1.0 -0.0660918859
C  C92  1  0.11580000  0.47210000  0.85870000  1.0 -0.0660918859
C  C93  1  0.35630000  0.88420000  0.85870000  1.0 -0.0660918859
C  C94  1  0.64370000  0.11580000  0.35870000  1.0 -0.0660918859
C  C95  1  0.88420000  0.52790000  0.35870000  1.0 -0.0660918859
C  C96  1  0.47210000  0.35630000  0.35870000  1.0 -0.0660918859
C  C97  1  0.13870000  0.67980000  0.39650000  1.0 -0.0813295652
C  C98  1  0.86130000  0.32020000  0.89650000  1.0 -0.0813295652
C  C99  1  0.32020000  0.45890000  0.39650000  1.0 -0.0813295652
C  C100  1  0.54110000  0.86130000  0.39650000  1.0 -0.0813295652
C  C101  1  0.45890000  0.13870000  0.89650000  1.0 -0.0813295652
C  C102  1  0.67980000  0.54110000  0.89650000  1.0 -0.0813295652
C  C103  1  0.45890000  0.32020000  0.10350000  1.0 -0.0813295652
C  C104  1  0.86130000  0.54110000  0.10350000  1.0 -0.0813295652
C  C105  1  0.67980000  0.13870000  0.10350000  1.0 -0.0813295652
C  C106  1  0.32020000  0.86130000  0.60350000  1.0 -0.0813295652
C  C107  1  0.13870000  0.45890000  0.60350000  1.0 -0.0813295652
C  C108  1  0.54110000  0.67980000  0.60350000  1.0 -0.0813295652
C  C109  1  0.86130000  0.32020000  0.60350000  1.0 -0.0813295652
C  C110  1  0.13870000  0.67980000  0.10350000  1.0 -0.0813295652
C  C111  1  0.67980000  0.54110000  0.60350000  1.0 -0.0813295652
C  C112  1  0.45890000  0.13870000  0.60350000  1.0 -0.0813295652
C  C113  1  0.54110000  0.86130000  0.10350000  1.0 -0.0813295652
C  C114  1  0.32020000  0.45890000  0.10350000  1.0 -0.0813295652
C  C115  1  0.54110000  0.67980000  0.89650000  1.0 -0.0813295652
C  C116  1  0.13870000  0.45890000  0.89650000  1.0 -0.0813295652
C  C117  1  0.32020000  0.86130000  0.89650000  1.0 -0.0813295652
C  C118  1  0.67980000  0.13870000  0.39650000  1.0 -0.0813295652
C  C119  1  0.86130000  0.54110000  0.39650000  1.0 -0.0813295652
C  C120  1  0.45890000  0.32020000  0.39650000  1.0 -0.0813295652
C  C121  1  0.18120000  0.68660000  0.42330000  1.0 -0.1776816063
C  C122  1  0.81880000  0.31340000  0.92330000  1.0 -0.1776816063
C  C123  1  0.31340000  0.49460000  0.42330000  1.0 -0.1776816063
C  C124  1  0.50540000  0.81880000  0.42330000  1.0 -0.1776816063
C  C125  1  0.49460000  0.18120000  0.92330000  1.0 -0.1776816063
C  C126  1  0.68660000  0.50540000  0.92330000  1.0 -0.1776816063
C  C127  1  0.49460000  0.31340000  0.07670000  1.0 -0.1776816063
C  C128  1  0.81880000  0.50540000  0.07670000  1.0 -0.1776816063
C  C129  1  0.68660000  0.18120000  0.07670000  1.0 -0.1776816063
C  C130  1  0.31340000  0.81880000  0.57670000  1.0 -0.1776816063
C  C131  1  0.18120000  0.49460000  0.57670000  1.0 -0.1776816063
C  C132  1  0.50540000  0.68660000  0.57670000  1.0 -0.1776816063
C  C133  1  0.81880000  0.31340000  0.57670000  1.0 -0.1776816063
C  C134  1  0.18120000  0.68660000  0.07670000  1.0 -0.1776816063
C  C135  1  0.68660000  0.50540000  0.57670000  1.0 -0.1776816063
C  C136  1  0.49460000  0.18120000  0.57670000  1.0 -0.1776816063
C  C137  1  0.50540000  0.81880000  0.07670000  1.0 -0.1776816063
C  C138  1  0.31340000  0.49460000  0.07670000  1.0 -0.1776816063
C  C139  1  0.50540000  0.68660000  0.92330000  1.0 -0.1776816063
C  C140  1  0.18120000  0.49460000  0.92330000  1.0 -0.1776816063
C  C141  1  0.31340000  0.81880000  0.92330000  1.0 -0.1776816063
C  C142  1  0.68660000  0.18120000  0.42330000  1.0 -0.1776816063
C  C143  1  0.81880000  0.50540000  0.42330000  1.0 -0.1776816063
C  C144  1  0.49460000  0.31340000  0.42330000  1.0 -0.1776816063
C  C145  1  0.13340000  0.60950000  0.34910000  1.0 -0.0813295652
C  C146  1  0.86660000  0.39050000  0.84910000  1.0 -0.0813295652
C  C147  1  0.39050000  0.52390000  0.34910000  1.0 -0.0813295652
C  C148  1  0.47610000  0.86660000  0.34910000  1.0 -0.0813295652
C  C149  1  0.52390000  0.13340000  0.84910000  1.0 -0.0813295652
C  C150  1  0.60950000  0.47610000  0.84910000  1.0 -0.0813295652
C  C151  1  0.52390000  0.39050000  0.15090000  1.0 -0.0813295652
C  C152  1  0.86660000  0.47610000  0.15090000  1.0 -0.0813295652
C  C153  1  0.60950000  0.13340000  0.15090000  1.0 -0.0813295652
C  C154  1  0.39050000  0.86660000  0.65090000  1.0 -0.0813295652
C  C155  1  0.13340000  0.52390000  0.65090000  1.0 -0.0813295652
C  C156  1  0.47610000  0.60950000  0.65090000  1.0 -0.0813295652
C  C157  1  0.86660000  0.39050000  0.65090000  1.0 -0.0813295652
C  C158  1  0.13340000  0.60950000  0.15090000  1.0 -0.0813295652
C  C159  1  0.60950000  0.47610000  0.65090000  1.0 -0.0813295652
C  C160  1  0.52390000  0.13340000  0.65090000  1.0 -0.0813295652
C  C161  1  0.47610000  0.86660000  0.15090000  1.0 -0.0813295652
C  C162  1  0.39050000  0.52390000  0.15090000  1.0 -0.0813295652
C  C163  1  0.47610000  0.60950000  0.84910000  1.0 -0.0813295652
C  C164  1  0.13340000  0.52390000  0.84910000  1.0 -0.0813295652
C  C165  1  0.39050000  0.86660000  0.84910000  1.0 -0.0813295652
C  C166  1  0.60950000  0.13340000  0.34910000  1.0 -0.0813295652
C  C167  1  0.86660000  0.47610000  0.34910000  1.0 -0.0813295652
C  C168  1  0.52390000  0.39050000  0.34910000  1.0 -0.0813295652
C  C169  1  0.07010000  0.63830000  0.33030000  1.0 0.6097777702
C  C170  1  0.92990000  0.36170000  0.83030000  1.0 0.6097777702
C  C171  1  0.36170000  0.43180000  0.33030000  1.0 0.6097777702
C  C172  1  0.56820000  0.92990000  0.33030000  1.0 0.6097777702
C  C173  1  0.43180000  0.07010000  0.83030000  1.0 0.6097777702
C  C174  1  0.63830000  0.56820000  0.83030000  1.0 0.6097777702
C  C175  1  0.43180000  0.36170000  0.16970000  1.0 0.6097777702
C  C176  1  0.92990000  0.56820000  0.16970000  1.0 0.6097777702
C  C177  1  0.63830000  0.07010000  0.16970000  1.0 0.6097777702
C  C178  1  0.36170000  0.92990000  0.66970000  1.0 0.6097777702
C  C179  1  0.07010000  0.43180000  0.66970000  1.0 0.6097777702
C  C180  1  0.56820000  0.63830000  0.66970000  1.0 0.6097777702
C  C181  1  0.92990000  0.36170000  0.66970000  1.0 0.6097777702
C  C182  1  0.07010000  0.63830000  0.16970000  1.0 0.6097777702
C  C183  1  0.63830000  0.56820000  0.66970000  1.0 0.6097777702
C  C184  1  0.43180000  0.07010000  0.66970000  1.0 0.6097777702
C  C185  1  0.56820000  0.92990000  0.16970000  1.0 0.6097777702
C  C186  1  0.36170000  0.43180000  0.16970000  1.0 0.6097777702
C  C187  1  0.56820000  0.63830000  0.83030000  1.0 0.6097777702
C  C188  1  0.07010000  0.43180000  0.83030000  1.0 0.6097777702
C  C189  1  0.36170000  0.92990000  0.83030000  1.0 0.6097777702
C  C190  1  0.63830000  0.07010000  0.33030000  1.0 0.6097777702
C  C191  1  0.92990000  0.56820000  0.33030000  1.0 0.6097777702
C  C192  1  0.43180000  0.36170000  0.33030000  1.0 0.6097777702
C  C193  1  0.19760000  0.87340000  0.29520000  1.0 -0.2183529288
C  C194  1  0.80240000  0.12660000  0.79520000  1.0 -0.2183529288
C  C195  1  0.12660000  0.32420000  0.29520000  1.0 -0.2183529288
C  C196  1  0.67580000  0.80240000  0.29520000  1.0 -0.2183529288
C  C197  1  0.32420000  0.19760000  0.79520000  1.0 -0.2183529288
C  C198  1  0.87340000  0.67580000  0.79520000  1.0 -0.2183529288
C  C199  1  0.32420000  0.12660000  0.20480000  1.0 -0.2183529288
C  C200  1  0.80240000  0.67580000  0.20480000  1.0 -0.2183529288
C  C201  1  0.87340000  0.19760000  0.20480000  1.0 -0.2183529288
C  C202  1  0.12660000  0.80240000  0.70480000  1.0 -0.2183529288
C  C203  1  0.19760000  0.32420000  0.70480000  1.0 -0.2183529288
C  C204  1  0.67580000  0.87340000  0.70480000  1.0 -0.2183529288
C  C205  1  0.80240000  0.12660000  0.70480000  1.0 -0.2183529288
C  C206  1  0.19760000  0.87340000  0.20480000  1.0 -0.2183529288
C  C207  1  0.87340000  0.67580000  0.70480000  1.0 -0.2183529288
C  C208  1  0.32420000  0.19760000  0.70480000  1.0 -0.2183529288
C  C209  1  0.67580000  0.80240000  0.20480000  1.0 -0.2183529288
C  C210  1  0.12660000  0.32420000  0.20480000  1.0 -0.2183529288
C  C211  1  0.67580000  0.87340000  0.79520000  1.0 -0.2183529288
C  C212  1  0.19760000  0.32420000  0.79520000  1.0 -0.2183529288
C  C213  1  0.12660000  0.80240000  0.79520000  1.0 -0.2183529288
C  C214  1  0.87340000  0.19760000  0.29520000  1.0 -0.2183529288
C  C215  1  0.80240000  0.67580000  0.29520000  1.0 -0.2183529288
C  C216  1  0.32420000  0.12660000  0.29520000  1.0 -0.2183529288
C  C217  1  0.14820000  0.83000000  0.29500000  1.0 -0.088093207
C  C218  1  0.85180000  0.17000000  0.79500000  1.0 -0.088093207
C  C219  1  0.17000000  0.31820000  0.29500000  1.0 -0.088093207
C  C220  1  0.68180000  0.85180000  0.29500000  1.0 -0.088093207
C  C221  1  0.31820000  0.14820000  0.79500000  1.0 -0.088093207
C  C222  1  0.83000000  0.68180000  0.79500000  1.0 -0.088093207
C  C223  1  0.31820000  0.17000000  0.20500000  1.0 -0.088093207
C  C224  1  0.85180000  0.68180000  0.20500000  1.0 -0.088093207
C  C225  1  0.83000000  0.14820000  0.20500000  1.0 -0.088093207
C  C226  1  0.17000000  0.85180000  0.70500000  1.0 -0.088093207
C  C227  1  0.14820000  0.31820000  0.70500000  1.0 -0.088093207
C  C228  1  0.68180000  0.83000000  0.70500000  1.0 -0.088093207
C  C229  1  0.85180000  0.17000000  0.70500000  1.0 -0.088093207
C  C230  1  0.14820000  0.83000000  0.20500000  1.0 -0.088093207
C  C231  1  0.83000000  0.68180000  0.70500000  1.0 -0.088093207
C  C232  1  0.31820000  0.14820000  0.70500000  1.0 -0.088093207
C  C233  1  0.68180000  0.85180000  0.20500000  1.0 -0.088093207
C  C234  1  0.17000000  0.31820000  0.20500000  1.0 -0.088093207
C  C235  1  0.68180000  0.83000000  0.79500000  1.0 -0.088093207
C  C236  1  0.14820000  0.31820000  0.79500000  1.0 -0.088093207
C  C237  1  0.17000000  0.85180000  0.79500000  1.0 -0.088093207
C  C238  1  0.83000000  0.14820000  0.29500000  1.0 -0.088093207
C  C239  1  0.85180000  0.68180000  0.29500000  1.0 -0.088093207
C  C240  1  0.31820000  0.17000000  0.29500000  1.0 -0.088093207
C  C241  1  0.22150000  0.89440000  0.25000000  1.0 0.2458861439
C  C242  1  0.77850000  0.10560000  0.75000000  1.0 0.2458861439
C  C243  1  0.10560000  0.32710000  0.25000000  1.0 0.2458861439
C  C244  1  0.67290000  0.77850000  0.25000000  1.0 0.2458861439
C  C245  1  0.32710000  0.22150000  0.75000000  1.0 0.2458861439
C  C246  1  0.89440000  0.67290000  0.75000000  1.0 0.2458861439
C  C247  1  0.32710000  0.10560000  0.25000000  1.0 0.2458861439
C  C248  1  0.77850000  0.67290000  0.25000000  1.0 0.2458861439
C  C249  1  0.89440000  0.22150000  0.25000000  1.0 0.2458861439
C  C250  1  0.10560000  0.77850000  0.75000000  1.0 0.2458861439
C  C251  1  0.22150000  0.32710000  0.75000000  1.0 0.2458861439
C  C252  1  0.67290000  0.89440000  0.75000000  1.0 0.2458861439
N  N1  1  0.24810000  0.66460000  0.43700000  1.0 -0.5759893191
N  N2  1  0.75190000  0.33540000  0.93700000  1.0 -0.5759893191
N  N3  1  0.33540000  0.58350000  0.43700000  1.0 -0.5759893191
N  N4  1  0.41650000  0.75190000  0.43700000  1.0 -0.5759893191
N  N5  1  0.58350000  0.24810000  0.93700000  1.0 -0.5759893191
N  N6  1  0.66460000  0.41650000  0.93700000  1.0 -0.5759893191
N  N7  1  0.58350000  0.33540000  0.06300000  1.0 -0.5759893191
N  N8  1  0.75190000  0.41650000  0.06300000  1.0 -0.5759893191
N  N9  1  0.66460000  0.24810000  0.06300000  1.0 -0.5759893191
N  N10  1  0.33540000  0.75190000  0.56300000  1.0 -0.5759893191
N  N11  1  0.24810000  0.58350000  0.56300000  1.0 -0.5759893191
N  N12  1  0.41650000  0.66460000  0.56300000  1.0 -0.5759893191
N  N13  1  0.75190000  0.33540000  0.56300000  1.0 -0.5759893191
N  N14  1  0.24810000  0.66460000  0.06300000  1.0 -0.5759893191
N  N15  1  0.66460000  0.41650000  0.56300000  1.0 -0.5759893191
N  N16  1  0.58350000  0.24810000  0.56300000  1.0 -0.5759893191
N  N17  1  0.41650000  0.75190000  0.06300000  1.0 -0.5759893191
N  N18  1  0.33540000  0.58350000  0.06300000  1.0 -0.5759893191
N  N19  1  0.41650000  0.66460000  0.93700000  1.0 -0.5759893191
N  N20  1  0.24810000  0.58350000  0.93700000  1.0 -0.5759893191
N  N21  1  0.33540000  0.75190000  0.93700000  1.0 -0.5759893191
N  N22  1  0.66460000  0.24810000  0.43700000  1.0 -0.5759893191
N  N23  1  0.75190000  0.41650000  0.43700000  1.0 -0.5759893191
N  N24  1  0.58350000  0.33540000  0.43700000  1.0 -0.5759893191
N  N25  1  0.27500000  0.94100000  0.25000000  1.0 -0.6416459393
N  N26  1  0.72500000  0.05900000  0.75000000  1.0 -0.6416459393
N  N27  1  0.05900000  0.33400000  0.25000000  1.0 -0.6416459393
N  N28  1  0.66600000  0.72500000  0.25000000  1.0 -0.6416459393
N  N29  1  0.33400000  0.27500000  0.75000000  1.0 -0.6416459393
N  N30  1  0.94100000  0.66600000  0.75000000  1.0 -0.6416459393
N  N31  1  0.33400000  0.05900000  0.25000000  1.0 -0.6483353507
N  N32  1  0.72500000  0.66600000  0.25000000  1.0 -0.6416459393
N  N33  1  0.94100000  0.27500000  0.25000000  1.0 -0.6483353507
N  N34  1  0.05900000  0.72500000  0.75000000  1.0 -0.6416459393
N  N35  1  0.27500000  0.33400000  0.75000000  1.0 -0.6416459393
N  N36  1  0.66600000  0.94100000  0.75000000  1.0 -0.6416459393
Cl  Cl1  1  0.21360000  0.66890000  0.54620000  1.0 -0.5694942839
Cl  Cl2  1  0.78640000  0.33110000  0.04620000  1.0 -0.5694942839
Cl  Cl3  1  0.33110000  0.54470000  0.54620000  1.0 -0.5694942839
Cl  Cl4  1  0.45530000  0.78640000  0.54620000  1.0 -0.5694942839
Cl  Cl5  1  0.54470000  0.21360000  0.04620000  1.0 -0.5694942839
Cl  Cl6  1  0.66890000  0.45530000  0.04620000  1.0 -0.5694942839
Cl  Cl7  1  0.54470000  0.33110000  0.95380000  1.0 -0.5694942839
Cl  Cl8  1  0.78640000  0.45530000  0.95380000  1.0 -0.5694942839
Cl  Cl9  1  0.66890000  0.21360000  0.95380000  1.0 -0.5694942839
Cl  Cl10  1  0.33110000  0.78640000  0.45380000  1.0 -0.5694942839
Cl  Cl11  1  0.21360000  0.54470000  0.45380000  1.0 -0.5694942839
Cl  Cl12  1  0.45530000  0.66890000  0.45380000  1.0 -0.5694942839
Cl  Cl13  1  0.78640000  0.33110000  0.45380000  1.0 -0.5694942839
Cl  Cl14  1  0.21360000  0.66890000  0.95380000  1.0 -0.5694942839
Cl  Cl15  1  0.66890000  0.45530000  0.45380000  1.0 -0.5694942839
Cl  Cl16  1  0.54470000  0.21360000  0.45380000  1.0 -0.5694942839
Cl  Cl17  1  0.45530000  0.78640000  0.95380000  1.0 -0.5694942839
Cl  Cl18  1  0.33110000  0.54470000  0.95380000  1.0 -0.5694942839
Cl  Cl19  1  0.45530000  0.66890000  0.04620000  1.0 -0.5694942839
Cl  Cl20  1  0.21360000  0.54470000  0.04620000  1.0 -0.5694942839
Cl  Cl21  1  0.33110000  0.78640000  0.04620000  1.0 -0.5694942839
Cl  Cl22  1  0.66890000  0.21360000  0.54620000  1.0 -0.5694942839
Cl  Cl23  1  0.78640000  0.45530000  0.54620000  1.0 -0.5694942839
Cl  Cl24  1  0.54470000  0.33110000  0.54620000  1.0 -0.5694942839
Cl  Cl25  1  0.33333333  0.66666667  0.50000000  1.0 -0.5694942839
Cl  Cl26  1  0.66666667  0.33333333  0.00000000  1.0 -0.5694942839
Cl  Cl27  1  0.66666667  0.33333333  0.50000000  1.0 -0.5694942839
Cl  Cl28  1  0.33333333  0.66666667  0.00000000  1.0 -0.5694942839
O  O1  1  0.05210000  0.60380000  0.29710000  1.0 -0.5224953226
O  O2  1  0.94790000  0.39620000  0.79710000  1.0 -0.5224953226
O  O3  1  0.39620000  0.44830000  0.29710000  1.0 -0.5224953226
O  O4  1  0.55170000  0.94790000  0.29710000  1.0 -0.5224953226
O  O5  1  0.44830000  0.05210000  0.79710000  1.0 -0.5224953226
O  O6  1  0.60380000  0.55170000  0.79710000  1.0 -0.5224953226
O  O7  1  0.44830000  0.39620000  0.20290000  1.0 -0.5224953226
O  O8  1  0.94790000  0.55170000  0.20290000  1.0 -0.5224953226
O  O9  1  0.60380000  0.05210000  0.20290000  1.0 -0.5224953226
O  O10  1  0.39620000  0.94790000  0.70290000  1.0 -0.5224953226
O  O11  1  0.05210000  0.44830000  0.70290000  1.0 -0.5224953226
O  O12  1  0.55170000  0.60380000  0.70290000  1.0 -0.5224953226
O  O13  1  0.94790000  0.39620000  0.70290000  1.0 -0.5224953226
O  O14  1  0.05210000  0.60380000  0.20290000  1.0 -0.5224953226
O  O15  1  0.60380000  0.55170000  0.70290000  1.0 -0.5224953226
O  O16  1  0.44830000  0.05210000  0.70290000  1.0 -0.5224953226
O  O17  1  0.55170000  0.94790000  0.20290000  1.0 -0.5224953226
O  O18  1  0.39620000  0.44830000  0.20290000  1.0 -0.5224953226
O  O19  1  0.55170000  0.60380000  0.79710000  1.0 -0.5224953226
O  O20  1  0.05210000  0.44830000  0.79710000  1.0 -0.5224953226
O  O21  1  0.39620000  0.94790000  0.79710000  1.0 -0.5224953226
O  O22  1  0.60380000  0.05210000  0.29710000  1.0 -0.5224953226
O  O23  1  0.94790000  0.55170000  0.29710000  1.0 -0.5224953226
O  O24  1  0.44830000  0.39620000  0.29710000  1.0 -0.5224953226
O  O25  1  0.00000000  0.64590000  0.25000000  1.0 -1.0532419217
O  O26  1  0.00000000  0.35410000  0.75000000  1.0 -1.0532419217
O  O27  1  0.35410000  0.35410000  0.25000000  1.0 -1.0532419217
O  O28  1  0.64590000  0.00000000  0.25000000  1.0 -1.0532419217
O  O29  1  0.35410000  0.00000000  0.75000000  1.0 -1.0532419217
O  O30  1  0.64590000  0.64590000  0.75000000  1.0 -1.0532419217
O  O31  1  0.05380000  0.66810000  0.34160000  1.0 -0.5526829648
O  O32  1  0.94620000  0.33190000  0.84160000  1.0 -0.5446343553
O  O33  1  0.33190000  0.38570000  0.34160000  1.0 -0.5446343553
O  O34  1  0.61430000  0.94620000  0.34160000  1.0 -0.5446343553
O  O35  1  0.38570000  0.05380000  0.84160000  1.0 -0.5446343553
O  O36  1  0.66810000  0.61430000  0.84160000  1.0 -0.5446343553
O  O37  1  0.38570000  0.33190000  0.15840000  1.0 -0.5446343553
O  O38  1  0.94620000  0.61430000  0.15840000  1.0 -0.5446343553
O  O39  1  0.66810000  0.05380000  0.15840000  1.0 -0.5446343553
O  O40  1  0.33190000  0.94620000  0.65840000  1.0 -0.5446343553
O  O41  1  0.05380000  0.38570000  0.65840000  1.0 -0.5446343553
O  O42  1  0.61430000  0.66810000  0.65840000  1.0 -0.5446343553
O  O43  1  0.94620000  0.33190000  0.65840000  1.0 -0.5446343553
O  O44  1  0.05380000  0.66810000  0.15840000  1.0 -0.5526829648
O  O45  1  0.66810000  0.61430000  0.65840000  1.0 -0.5446343553
O  O46  1  0.38570000  0.05380000  0.65840000  1.0 -0.5446343553
O  O47  1  0.61430000  0.94620000  0.15840000  1.0 -0.5446343553
O  O48  1  0.33190000  0.38570000  0.15840000  1.0 -0.5446343553
O  O49  1  0.61430000  0.66810000  0.84160000  1.0 -0.5446343553
O  O50  1  0.05380000  0.38570000  0.84160000  1.0 -0.5446343553
O  O51  1  0.33190000  0.94620000  0.84160000  1.0 -0.5526829648
O  O52  1  0.66810000  0.05380000  0.34160000  1.0 -0.5446343553
O  O53  1  0.94620000  0.61430000  0.34160000  1.0 -0.5446343553
O  O54  1  0.38570000  0.33190000  0.34160000  1.0 -0.5446343553
O  O55  1  0.05220000  0.74450000  0.29540000  1.0 -0.5526829648
O  O56  1  0.94780000  0.25550000  0.79540000  1.0 -0.5526829648
O  O57  1  0.25550000  0.30770000  0.29540000  1.0 -0.5526829648
O  O58  1  0.69230000  0.94780000  0.29540000  1.0 -0.5526829648
O  O59  1  0.30770000  0.05220000  0.79540000  1.0 -0.5526829648
O  O60  1  0.74450000  0.69230000  0.79540000  1.0 -0.5526829648
O  O61  1  0.30770000  0.25550000  0.20460000  1.0 -0.5526829648
O  O62  1  0.94780000  0.69230000  0.20460000  1.0 -0.5526829648
O  O63  1  0.74450000  0.05220000  0.20460000  1.0 -0.5526829648
O  O64  1  0.25550000  0.94780000  0.70460000  1.0 -0.5526829648
O  O65  1  0.05220000  0.30770000  0.70460000  1.0 -0.5526829648
O  O66  1  0.69230000  0.74450000  0.70460000  1.0 -0.5526829648
O  O67  1  0.94780000  0.25550000  0.70460000  1.0 -0.5526829648
O  O68  1  0.05220000  0.74450000  0.20460000  1.0 -0.5526829648
O  O69  1  0.74450000  0.69230000  0.70460000  1.0 -0.5526829648
O  O70  1  0.30770000  0.05220000  0.70460000  1.0 -0.5526829648
O  O71  1  0.69230000  0.94780000  0.20460000  1.0 -0.5526829648
O  O72  1  0.25550000  0.30770000  0.20460000  1.0 -0.5526829648
O  O73  1  0.69230000  0.74450000  0.79540000  1.0 -0.5526829648
O  O74  1  0.05220000  0.30770000  0.79540000  1.0 -0.5526829648
O  O75  1  0.25550000  0.94780000  0.79540000  1.0 -0.5526829648
O  O76  1  0.74450000  0.05220000  0.29540000  1.0 -0.5526829648
O  O77  1  0.94780000  0.69230000  0.29540000  1.0 -0.5526829648
O  O78  1  0.30770000  0.25550000  0.29540000  1.0 -0.5526829648
