# DDEC6 charges by PACMAN v1.1 (https://github.com/mtap-research/PACMAN-charge/)
data_IGAHAB_ASR_pacman
_symmetry_space_group_name_H-M   'P 1'
_cell_length_a   13.46900000
_cell_length_b   13.46900000
_cell_length_c   27.51000000
_cell_angle_alpha   90.00000000
_cell_angle_beta   90.00000000
_cell_angle_gamma   120.00000000
_symmetry_Int_Tables_number   1
_chemical_formula_structural   Cr3Cu3H36C42N6Cl7O13
_chemical_formula_sum   'Cr6 Cu6 H72 C84 N12 Cl14 O26'
_cell_volume   4322.07130874
_cell_formula_units_Z   2
loop_
 _symmetry_equiv_pos_site_id
 _symmetry_equiv_pos_as_xyz
  1  'x, y, z'
loop_
 _atom_site_type_symbol
 _atom_site_label
 _atom_site_symmetry_multiplicity
 _atom_site_fract_x
 _atom_site_fract_y
 _atom_site_fract_z
 _atom_site_occupancy
 _atom_site_charge
Cr  Cr1  1  0.51450000  0.30470000  0.25000000  1.0 1.2539188148
Cr  Cr2  1  0.69530000  0.20980000  0.25000000  1.0 1.2539188148
Cr  Cr3  1  0.79020000  0.48550000  0.25000000  1.0 1.2602192641
Cr  Cr4  1  0.69530000  0.48550000  0.75000000  1.0 1.2672593475
Cr  Cr5  1  0.51450000  0.20980000  0.75000000  1.0 1.2602192641
Cr  Cr6  1  0.79020000  0.30470000  0.75000000  1.0 1.2672593475
Cu  Cu1  1  0.22220000  0.11110000  0.00000000  1.0 0.7475012025
Cu  Cu2  1  0.88890000  0.11110000  0.00000000  1.0 0.7475012025
Cu  Cu3  1  0.88890000  0.77780000  0.00000000  1.0 0.7475012025
Cu  Cu4  1  0.88890000  0.11110000  0.50000000  1.0 0.7475012025
Cu  Cu5  1  0.22220000  0.11110000  0.50000000  1.0 0.7475012025
Cu  Cu6  1  0.88890000  0.77780000  0.50000000  1.0 0.7475012025
H  H1  1  0.16290000  0.01320000  0.07940000  1.0 0.2953657092
H  H2  1  0.98680000  0.14970000  0.07940000  1.0 0.2946005941
H  H3  1  0.85030000  0.83710000  0.07940000  1.0 0.2953657092
H  H4  1  0.98680000  0.83710000  0.92060000  1.0 0.2946005941
H  H5  1  0.16290000  0.14970000  0.92060000  1.0 0.2946005941
H  H6  1  0.85030000  0.01320000  0.92060000  1.0 0.2946005941
H  H7  1  0.85030000  0.01320000  0.57940000  1.0 0.2946005941
H  H8  1  0.16290000  0.14970000  0.57940000  1.0 0.2946005941
H  H9  1  0.98680000  0.83710000  0.57940000  1.0 0.2946005941
H  H10  1  0.16290000  0.01320000  0.42060000  1.0 0.2953657092
H  H11  1  0.85030000  0.83710000  0.42060000  1.0 0.2953657092
H  H12  1  0.98680000  0.14970000  0.42060000  1.0 0.2946005941
H  H13  1  0.15340000  0.92830000  0.04380000  1.0 0.2812729906
H  H14  1  0.07170000  0.22510000  0.04380000  1.0 0.2812729906
H  H15  1  0.77490000  0.84660000  0.04380000  1.0 0.2812729906
H  H16  1  0.07170000  0.84660000  0.95620000  1.0 0.2812729906
H  H17  1  0.15340000  0.22510000  0.95620000  1.0 0.2812729906
H  H18  1  0.77490000  0.92830000  0.95620000  1.0 0.2812729906
H  H19  1  0.77490000  0.92830000  0.54380000  1.0 0.2812729906
H  H20  1  0.15340000  0.22510000  0.54380000  1.0 0.2812729906
H  H21  1  0.07170000  0.84660000  0.54380000  1.0 0.2812729906
H  H22  1  0.15340000  0.92830000  0.45620000  1.0 0.2812729906
H  H23  1  0.77490000  0.84660000  0.45620000  1.0 0.2812729906
H  H24  1  0.07170000  0.22510000  0.45620000  1.0 0.2812729906
H  H25  1  0.45480000  0.87950000  0.06050000  1.0 0.1185122387
H  H26  1  0.12050000  0.57530000  0.06050000  1.0 0.1185122387
H  H27  1  0.42470000  0.54520000  0.06050000  1.0 0.1185122387
H  H28  1  0.12050000  0.54520000  0.93950000  1.0 0.1185122387
H  H29  1  0.45480000  0.57530000  0.93950000  1.0 0.1185122387
H  H30  1  0.42470000  0.87950000  0.93950000  1.0 0.1185122387
H  H31  1  0.42470000  0.87950000  0.56050000  1.0 0.1185122387
H  H32  1  0.45480000  0.57530000  0.56050000  1.0 0.1185122387
H  H33  1  0.12050000  0.54520000  0.56050000  1.0 0.1185122387
H  H34  1  0.45480000  0.87950000  0.43950000  1.0 0.1185122387
H  H35  1  0.42470000  0.54520000  0.43950000  1.0 0.1185122387
H  H36  1  0.12050000  0.57530000  0.43950000  1.0 0.1185122387
H  H37  1  0.29840000  0.88640000  0.02830000  1.0 0.1290578649
H  H38  1  0.11360000  0.41200000  0.02830000  1.0 0.1290578649
H  H39  1  0.58800000  0.70160000  0.02830000  1.0 0.1290578649
H  H40  1  0.11360000  0.70160000  0.97170000  1.0 0.1290578649
H  H41  1  0.29840000  0.41200000  0.97170000  1.0 0.1290578649
H  H42  1  0.58800000  0.88640000  0.97170000  1.0 0.1290578649
H  H43  1  0.58800000  0.88640000  0.52830000  1.0 0.1290578649
H  H44  1  0.29840000  0.41200000  0.52830000  1.0 0.1290578649
H  H45  1  0.11360000  0.70160000  0.52830000  1.0 0.1290578649
H  H46  1  0.29840000  0.88640000  0.47170000  1.0 0.1290578649
H  H47  1  0.58800000  0.70160000  0.47170000  1.0 0.1290578649
H  H48  1  0.11360000  0.41200000  0.47170000  1.0 0.1290578649
H  H49  1  0.33370000  0.11530000  0.13120000  1.0 0.1485418336
H  H50  1  0.88470000  0.21840000  0.13120000  1.0 0.1485418336
H  H51  1  0.78160000  0.66630000  0.13120000  1.0 0.1485418336
H  H52  1  0.88470000  0.66630000  0.86880000  1.0 0.1485418336
H  H53  1  0.33370000  0.21840000  0.86880000  1.0 0.1485418336
H  H54  1  0.78160000  0.11530000  0.86880000  1.0 0.1485418336
H  H55  1  0.78160000  0.11530000  0.63120000  1.0 0.1485418336
H  H56  1  0.33370000  0.21840000  0.63120000  1.0 0.1485418336
H  H57  1  0.88470000  0.66630000  0.63120000  1.0 0.1485418336
H  H58  1  0.33370000  0.11530000  0.36880000  1.0 0.1485418336
H  H59  1  0.78160000  0.66630000  0.36880000  1.0 0.1485418336
H  H60  1  0.88470000  0.21840000  0.36880000  1.0 0.1485418336
H  H61  1  0.55070000  0.99060000  0.12800000  1.0 0.1290578649
H  H62  1  0.00940000  0.56010000  0.12800000  1.0 0.1290578649
H  H63  1  0.43990000  0.44930000  0.12800000  1.0 0.1290578649
H  H64  1  0.00940000  0.44930000  0.87200000  1.0 0.1290578649
H  H65  1  0.55070000  0.56010000  0.87200000  1.0 0.1290578649
H  H66  1  0.43990000  0.99060000  0.87200000  1.0 0.1290578649
H  H67  1  0.43990000  0.99060000  0.62800000  1.0 0.1290578649
H  H68  1  0.55070000  0.56010000  0.62800000  1.0 0.1290578649
H  H69  1  0.00940000  0.44930000  0.62800000  1.0 0.1290578649
H  H70  1  0.55070000  0.99060000  0.37200000  1.0 0.1290578649
H  H71  1  0.43990000  0.44930000  0.37200000  1.0 0.1290578649
H  H72  1  0.00940000  0.56010000  0.37200000  1.0 0.1290578649
C  C1  1  0.43040000  0.92710000  0.07470000  1.0 -0.0713574421
C  C2  1  0.07290000  0.50330000  0.07470000  1.0 -0.0713574421
C  C3  1  0.49670000  0.56960000  0.07470000  1.0 -0.0713574421
C  C4  1  0.07290000  0.56960000  0.92530000  1.0 -0.0713574421
C  C5  1  0.43040000  0.50330000  0.92530000  1.0 -0.0713574421
C  C6  1  0.49670000  0.92710000  0.92530000  1.0 -0.0713574421
C  C7  1  0.49670000  0.92710000  0.57470000  1.0 -0.0713574421
C  C8  1  0.43040000  0.50330000  0.57470000  1.0 -0.0713574421
C  C9  1  0.07290000  0.56960000  0.57470000  1.0 -0.0713574421
C  C10  1  0.43040000  0.92710000  0.42530000  1.0 -0.0713574421
C  C11  1  0.49670000  0.56960000  0.42530000  1.0 -0.0713574421
C  C12  1  0.07290000  0.50330000  0.42530000  1.0 -0.0713574421
C  C13  1  0.33700000  0.93120000  0.05550000  1.0 -0.1774939864
C  C14  1  0.06880000  0.40580000  0.05550000  1.0 -0.1774939864
C  C15  1  0.59420000  0.66300000  0.05550000  1.0 -0.1774939864
C  C16  1  0.06880000  0.66300000  0.94450000  1.0 -0.1774939864
C  C17  1  0.33700000  0.40580000  0.94450000  1.0 -0.1774939864
C  C18  1  0.59420000  0.93120000  0.94450000  1.0 -0.1774939864
C  C19  1  0.59420000  0.93120000  0.55550000  1.0 -0.1774939864
C  C20  1  0.33700000  0.40580000  0.55550000  1.0 -0.1774939864
C  C21  1  0.06880000  0.66300000  0.55550000  1.0 -0.1774939864
C  C22  1  0.33700000  0.93120000  0.44450000  1.0 -0.1774939864
C  C23  1  0.59420000  0.66300000  0.44450000  1.0 -0.1774939864
C  C24  1  0.06880000  0.40580000  0.44450000  1.0 -0.1774939864
C  C25  1  0.30090000  0.00150000  0.07660000  1.0 0.2683440999
C  C26  1  0.99850000  0.29940000  0.07660000  1.0 0.2683440999
C  C27  1  0.70060000  0.69910000  0.07660000  1.0 0.2683440999
C  C28  1  0.99850000  0.69910000  0.92340000  1.0 0.2683440999
C  C29  1  0.30090000  0.29940000  0.92340000  1.0 0.2683440999
C  C30  1  0.70060000  0.00150000  0.92340000  1.0 0.2683440999
C  C31  1  0.70060000  0.00150000  0.57660000  1.0 0.2683440999
C  C32  1  0.30090000  0.29940000  0.57660000  1.0 0.2683440999
C  C33  1  0.99850000  0.69910000  0.57660000  1.0 0.2683440999
C  C34  1  0.30090000  0.00150000  0.42340000  1.0 0.2683440999
C  C35  1  0.70060000  0.69910000  0.42340000  1.0 0.2683440999
C  C36  1  0.99850000  0.29940000  0.42340000  1.0 0.2683440999
C  C37  1  0.35810000  0.06770000  0.11690000  1.0 -0.1774939864
C  C38  1  0.93230000  0.29040000  0.11690000  1.0 -0.1774939864
C  C39  1  0.70960000  0.64190000  0.11690000  1.0 -0.1774939864
C  C40  1  0.93230000  0.64190000  0.88310000  1.0 -0.1774939864
C  C41  1  0.35810000  0.29040000  0.88310000  1.0 -0.1774939864
C  C42  1  0.70960000  0.06770000  0.88310000  1.0 -0.1774939864
C  C43  1  0.70960000  0.06770000  0.61690000  1.0 -0.1774939864
C  C44  1  0.35810000  0.29040000  0.61690000  1.0 -0.1774939864
C  C45  1  0.93230000  0.64190000  0.61690000  1.0 -0.1774939864
C  C46  1  0.35810000  0.06770000  0.38310000  1.0 -0.1774939864
C  C47  1  0.70960000  0.64190000  0.38310000  1.0 -0.1774939864
C  C48  1  0.93230000  0.29040000  0.38310000  1.0 -0.1774939864
C  C49  1  0.45140000  0.06370000  0.13610000  1.0 -0.019568725
C  C50  1  0.93630000  0.38770000  0.13610000  1.0 -0.019568725
C  C51  1  0.61230000  0.54860000  0.13610000  1.0 -0.019568725
C  C52  1  0.93630000  0.54860000  0.86390000  1.0 -0.019568725
C  C53  1  0.45140000  0.38770000  0.86390000  1.0 -0.019568725
C  C54  1  0.61230000  0.06370000  0.86390000  1.0 -0.019568725
C  C55  1  0.61230000  0.06370000  0.63610000  1.0 -0.019568725
C  C56  1  0.45140000  0.38770000  0.63610000  1.0 -0.019568725
C  C57  1  0.93630000  0.54860000  0.63610000  1.0 -0.019568725
C  C58  1  0.45140000  0.06370000  0.36390000  1.0 -0.019568725
C  C59  1  0.61230000  0.54860000  0.36390000  1.0 -0.019568725
C  C60  1  0.93630000  0.38770000  0.36390000  1.0 -0.019568725
C  C61  1  0.48760000  0.99330000  0.11500000  1.0 -0.1012913368
C  C62  1  0.00670000  0.49430000  0.11500000  1.0 -0.1012913368
C  C63  1  0.50570000  0.51240000  0.11500000  1.0 -0.1012913368
C  C64  1  0.00670000  0.51240000  0.88500000  1.0 -0.1012913368
C  C65  1  0.48760000  0.49430000  0.88500000  1.0 -0.1012913368
C  C66  1  0.50570000  0.99330000  0.88500000  1.0 -0.1012913368
C  C67  1  0.50570000  0.99330000  0.61500000  1.0 -0.1012913368
C  C68  1  0.48760000  0.49430000  0.61500000  1.0 -0.1012913368
C  C69  1  0.00670000  0.51240000  0.61500000  1.0 -0.1012913368
C  C70  1  0.48760000  0.99330000  0.38500000  1.0 -0.1012913368
C  C71  1  0.50570000  0.51240000  0.38500000  1.0 -0.1012913368
C  C72  1  0.00670000  0.49430000  0.38500000  1.0 -0.1012913368
C  C73  1  0.50430000  0.13310000  0.18080000  1.0 0.614552188
C  C74  1  0.86690000  0.37120000  0.18080000  1.0 0.6152730466
C  C75  1  0.62880000  0.49570000  0.18080000  1.0 0.6152730466
C  C76  1  0.86690000  0.49570000  0.81920000  1.0 0.6152730466
C  C77  1  0.50430000  0.37120000  0.81920000  1.0 0.614552188
C  C78  1  0.62880000  0.13310000  0.81920000  1.0 0.6152730466
C  C79  1  0.62880000  0.13310000  0.68080000  1.0 0.6152730466
C  C80  1  0.50430000  0.37120000  0.68080000  1.0 0.614552188
C  C81  1  0.86690000  0.49570000  0.68080000  1.0 0.6152730466
C  C82  1  0.50430000  0.13310000  0.31920000  1.0 0.614552188
C  C83  1  0.62880000  0.49570000  0.31920000  1.0 0.6152730466
C  C84  1  0.86690000  0.37120000  0.31920000  1.0 0.6152730466
N  N1  1  0.20080000  0.00050000  0.05500000  1.0 -0.5686985994
N  N2  1  0.99950000  0.20030000  0.05500000  1.0 -0.5686985994
N  N3  1  0.79970000  0.79920000  0.05500000  1.0 -0.5686985994
N  N4  1  0.99950000  0.79920000  0.94500000  1.0 -0.5686985994
N  N5  1  0.20080000  0.20030000  0.94500000  1.0 -0.5686985994
N  N6  1  0.79970000  0.00050000  0.94500000  1.0 -0.5686985994
N  N7  1  0.79970000  0.00050000  0.55500000  1.0 -0.5686985994
N  N8  1  0.20080000  0.20030000  0.55500000  1.0 -0.5686985994
N  N9  1  0.99950000  0.79920000  0.55500000  1.0 -0.5686985994
N  N10  1  0.20080000  0.00050000  0.44500000  1.0 -0.5686985994
N  N11  1  0.79970000  0.79920000  0.44500000  1.0 -0.5686985994
N  N12  1  0.99950000  0.20030000  0.44500000  1.0 -0.5686985994
Cl  Cl1  1  0.00000000  0.00000000  0.00000000  1.0 -0.5804285525
Cl  Cl2  1  0.00000000  0.00000000  0.50000000  1.0 -0.5804285525
Cl  Cl3  1  0.26000000  0.00140000  0.94685000  1.0 -0.5686985994
Cl  Cl4  1  0.99860000  0.25860000  0.94685000  1.0 -0.5686985994
Cl  Cl5  1  0.74140000  0.74000000  0.94685000  1.0 -0.5686985994
Cl  Cl6  1  0.99860000  0.74000000  0.05315000  1.0 -0.5686985994
Cl  Cl7  1  0.26000000  0.25860000  0.05315000  1.0 -0.5686985994
Cl  Cl8  1  0.74140000  0.00140000  0.05315000  1.0 -0.5686985994
Cl  Cl9  1  0.74140000  0.00140000  0.44685000  1.0 -0.5686985994
Cl  Cl10  1  0.26000000  0.25860000  0.44685000  1.0 -0.5686985994
Cl  Cl11  1  0.99860000  0.74000000  0.44685000  1.0 -0.5686985994
Cl  Cl12  1  0.26000000  0.00140000  0.55315000  1.0 -0.5686985994
Cl  Cl13  1  0.74140000  0.74000000  0.55315000  1.0 -0.5686985994
Cl  Cl14  1  0.99860000  0.25860000  0.55315000  1.0 -0.5686985994
O  O1  1  0.46600000  0.19150000  0.19690000  1.0 -0.5303645252
O  O2  1  0.80850000  0.27450000  0.19690000  1.0 -0.5303645252
O  O3  1  0.72550000  0.53400000  0.19690000  1.0 -0.5303645252
O  O4  1  0.80850000  0.53400000  0.80310000  1.0 -0.5303645252
O  O5  1  0.46600000  0.27450000  0.80310000  1.0 -0.5303645252
O  O6  1  0.72550000  0.19150000  0.80310000  1.0 -0.5303645252
O  O7  1  0.72550000  0.19150000  0.69690000  1.0 -0.5303645252
O  O8  1  0.46600000  0.27450000  0.69690000  1.0 -0.5303645252
O  O9  1  0.80850000  0.53400000  0.69690000  1.0 -0.5303645252
O  O10  1  0.46600000  0.19150000  0.30310000  1.0 -0.5303645252
O  O11  1  0.72550000  0.53400000  0.30310000  1.0 -0.5303645252
O  O12  1  0.80850000  0.27450000  0.30310000  1.0 -0.5303645252
O  O13  1  0.66666667  0.33333333  0.25000000  1.0 -1.0313565254
O  O14  1  0.66666667  0.33333333  0.75000000  1.0 -1.0313565254
O  O15  1  0.58290000  0.12560000  0.19640000  1.0 -0.5056880235
O  O16  1  0.87440000  0.45730000  0.19640000  1.0 -0.5044334649
O  O17  1  0.54270000  0.41710000  0.19640000  1.0 -0.5044334649
O  O18  1  0.87440000  0.41710000  0.80360000  1.0 -0.5056880235
O  O19  1  0.58290000  0.45730000  0.80360000  1.0 -0.5056880235
O  O20  1  0.54270000  0.12560000  0.80360000  1.0 -0.5044334649
O  O21  1  0.54270000  0.12560000  0.69640000  1.0 -0.5044334649
O  O22  1  0.58290000  0.45730000  0.69640000  1.0 -0.5056880235
O  O23  1  0.87440000  0.41710000  0.69640000  1.0 -0.5056880235
O  O24  1  0.58290000  0.12560000  0.30360000  1.0 -0.5056880235
O  O25  1  0.54270000  0.41710000  0.30360000  1.0 -0.5044334649
O  O26  1  0.87440000  0.45730000  0.30360000  1.0 -0.5044334649
