# DDEC6 charges by PACMAN v1.1 (https://github.com/mtap-research/PACMAN-charge/)
data_IGEXOH_ASR_pacman
_symmetry_space_group_name_H-M   'P 1'
_cell_length_a   9.97600000
_cell_length_b   10.35900000
_cell_length_c   12.98000000
_cell_angle_alpha   90.00000000
_cell_angle_beta   90.00000000
_cell_angle_gamma   90.00000000
_symmetry_Int_Tables_number   1
_chemical_formula_structural   Zn(PO4)2
_chemical_formula_sum   'Zn4 P8 O32'
_cell_volume   1341.37116432
_cell_formula_units_Z   4
loop_
 _symmetry_equiv_pos_site_id
 _symmetry_equiv_pos_as_xyz
  1  'x, y, z'
loop_
 _atom_site_type_symbol
 _atom_site_label
 _atom_site_symmetry_multiplicity
 _atom_site_fract_x
 _atom_site_fract_y
 _atom_site_fract_z
 _atom_site_occupancy
 _atom_site_charge
Zn  Zn1  1  0.97150000  0.20190000  0.63520000  1.0 1.143085426
Zn  Zn2  1  0.52850000  0.79810000  0.13520000  1.0 1.143085426
Zn  Zn3  1  0.47150000  0.29810000  0.36480000  1.0 1.143085426
Zn  Zn4  1  0.02850000  0.70190000  0.86480000  1.0 1.1464232464
P  P1  1  0.22640000  0.21470000  0.49650000  1.0 1.1855080385
P  P2  1  0.27360000  0.78530000  0.99650000  1.0 1.1855080385
P  P3  1  0.72640000  0.28530000  0.50350000  1.0 1.180026398
P  P4  1  0.77360000  0.71470000  0.00350000  1.0 1.180026398
P  P5  1  0.88950000  0.43990000  0.78590000  1.0 1.1726396341
P  P6  1  0.61050000  0.56010000  0.28590000  1.0 1.1726396341
P  P7  1  0.38950000  0.06010000  0.21410000  1.0 1.1726396341
P  P8  1  0.11050000  0.93990000  0.71410000  1.0 1.180026398
O  O1  1  0.93570000  0.30980000  0.75190000  1.0 -0.5600783419
O  O2  1  0.56430000  0.69020000  0.25190000  1.0 -0.5600783419
O  O3  1  0.43570000  0.19020000  0.24810000  1.0 -0.5600783419
O  O4  1  0.06430000  0.80980000  0.74810000  1.0 -0.5600783419
O  O5  1  0.12200000  0.27590000  0.56570000  1.0 -0.5412179272
O  O6  1  0.37800000  0.72410000  0.06570000  1.0 -0.5303417485
O  O7  1  0.62200000  0.22410000  0.43430000  1.0 -0.5412179272
O  O8  1  0.87800000  0.77590000  0.93430000  1.0 -0.5303417485
O  O9  1  0.99900000  0.52590000  0.82170000  1.0 -0.5218742828
O  O10  1  0.50100000  0.47410000  0.32170000  1.0 -0.5218742828
O  O11  1  0.49900000  0.97410000  0.17830000  1.0 -0.5303417485
O  O12  1  0.00100000  0.02590000  0.67830000  1.0 -0.5303417485
O  O13  1  0.31220000  0.32110000  0.44940000  1.0 -0.5098651787
O  O14  1  0.18780000  0.67890000  0.94940000  1.0 -0.5098651787
O  O15  1  0.81220000  0.17890000  0.55060000  1.0 -0.5218742828
O  O16  1  0.68780000  0.82110000  0.05060000  1.0 -0.5098651787
O  O17  1  0.78470000  0.41750000  0.86980000  1.0 -0.3081953566
O  O18  1  0.71530000  0.58250000  0.36980000  1.0 -0.3203574758
O  O19  1  0.28470000  0.08250000  0.13020000  1.0 -0.3203574758
O  O20  1  0.21530000  0.91750000  0.63020000  1.0 -0.3203574758
O  O21  1  0.81990000  0.51370000  0.69640000  1.0 -0.2901345433
O  O22  1  0.68010000  0.48630000  0.19640000  1.0 -0.282835279
O  O23  1  0.31990000  0.98630000  0.30360000  1.0 -0.2901345433
O  O24  1  0.18010000  0.01370000  0.80360000  1.0 -0.2901345433
O  O25  1  0.31070000  0.11370000  0.54790000  1.0 -0.3809082102
O  O26  1  0.18930000  0.88630000  0.04790000  1.0 -0.3706806045
O  O27  1  0.81070000  0.38630000  0.45210000  1.0 -0.3809082102
O  O28  1  0.68930000  0.61370000  0.95210000  1.0 -0.3809082102
O  O29  1  0.15090000  0.14210000  0.40620000  1.0 -0.3809082102
O  O30  1  0.34910000  0.85790000  0.90620000  1.0 -0.3809082102
O  O31  1  0.65090000  0.35790000  0.59380000  1.0 -0.3809082102
O  O32  1  0.84910000  0.64210000  0.09380000  1.0 -0.386722539
