# DDEC6 charges by PACMAN v1.1 (https://github.com/mtap-research/PACMAN-charge/)
data_IGULIH_ASR_pacman
_symmetry_space_group_name_H-M   'P 1'
_cell_length_a   17.53550000
_cell_length_b   17.53550000
_cell_length_c   17.53550000
_cell_angle_alpha   90.00000000
_cell_angle_beta   90.00000000
_cell_angle_gamma   90.00000000
_symmetry_Int_Tables_number   1
_chemical_formula_structural   Cu4H40C72N64ClO16
_chemical_formula_sum   'Cu12 H120 C216 N192 Cl3 O48'
_cell_volume   5392.05683286
_cell_formula_units_Z   3
loop_
 _symmetry_equiv_pos_site_id
 _symmetry_equiv_pos_as_xyz
  1  'x, y, z'
loop_
 _atom_site_type_symbol
 _atom_site_label
 _atom_site_symmetry_multiplicity
 _atom_site_fract_x
 _atom_site_fract_y
 _atom_site_fract_z
 _atom_site_occupancy
 _atom_site_charge
Cu  Cu1  1  0.00000000  0.14383000  0.50000000  1.0 0.177066415
Cu  Cu2  1  0.00000000  0.85617000  0.50000000  1.0 0.177066415
Cu  Cu3  1  0.50000000  0.00000000  0.14383000  1.0 0.177066415
Cu  Cu4  1  0.50000000  0.00000000  0.85617000  1.0 0.1745824093
Cu  Cu5  1  0.14383000  0.50000000  0.00000000  1.0 0.177066415
Cu  Cu6  1  0.85617000  0.50000000  0.00000000  1.0 0.177066415
Cu  Cu7  1  0.14383000  0.00000000  0.50000000  1.0 0.1745824093
Cu  Cu8  1  0.85617000  0.00000000  0.50000000  1.0 0.177066415
Cu  Cu9  1  0.00000000  0.50000000  0.85617000  1.0 0.177066415
Cu  Cu10  1  0.00000000  0.50000000  0.14383000  1.0 0.177066415
Cu  Cu11  1  0.50000000  0.14383000  0.00000000  1.0 0.177066415
Cu  Cu12  1  0.50000000  0.85617000  0.00000000  1.0 0.177066415
H  H1  1  0.26340000  0.09850000  0.40230000  1.0 0.1069904833
H  H2  1  0.73660000  0.90150000  0.40230000  1.0 0.1069904833
H  H3  1  0.73660000  0.09850000  0.59770000  1.0 0.1069904833
H  H4  1  0.26340000  0.90150000  0.59770000  1.0 0.1069904833
H  H5  1  0.40230000  0.26340000  0.09850000  1.0 0.1069904833
H  H6  1  0.40230000  0.73660000  0.90150000  1.0 0.1069904833
H  H7  1  0.59770000  0.73660000  0.09850000  1.0 0.1069904833
H  H8  1  0.59770000  0.26340000  0.90150000  1.0 0.1069904833
H  H9  1  0.09850000  0.40230000  0.26340000  1.0 0.1069904833
H  H10  1  0.90150000  0.40230000  0.73660000  1.0 0.1069904833
H  H11  1  0.09850000  0.59770000  0.73660000  1.0 0.1069904833
H  H12  1  0.90150000  0.59770000  0.26340000  1.0 0.1069904833
H  H13  1  0.09850000  0.26340000  0.59770000  1.0 0.1069904833
H  H14  1  0.90150000  0.73660000  0.59770000  1.0 0.1069904833
H  H15  1  0.09850000  0.73660000  0.40230000  1.0 0.1069904833
H  H16  1  0.90150000  0.26340000  0.40230000  1.0 0.1069904833
H  H17  1  0.26340000  0.40230000  0.90150000  1.0 0.1069904833
H  H18  1  0.73660000  0.40230000  0.09850000  1.0 0.1069904833
H  H19  1  0.73660000  0.59770000  0.90150000  1.0 0.1069904833
H  H20  1  0.26340000  0.59770000  0.09850000  1.0 0.1069904833
H  H21  1  0.40230000  0.09850000  0.73660000  1.0 0.1069904833
H  H22  1  0.40230000  0.90150000  0.26340000  1.0 0.1069904833
H  H23  1  0.59770000  0.09850000  0.26340000  1.0 0.1069904833
H  H24  1  0.59770000  0.90150000  0.73660000  1.0 0.1069904833
H  H25  1  0.73660000  0.90150000  0.59770000  1.0 0.1069904833
H  H26  1  0.26340000  0.09850000  0.59770000  1.0 0.1069904833
H  H27  1  0.26340000  0.90150000  0.40230000  1.0 0.1069904833
H  H28  1  0.73660000  0.09850000  0.40230000  1.0 0.1069904833
H  H29  1  0.59770000  0.73660000  0.90150000  1.0 0.1069904833
H  H30  1  0.59770000  0.26340000  0.09850000  1.0 0.1069904833
H  H31  1  0.40230000  0.26340000  0.90150000  1.0 0.1069904833
H  H32  1  0.40230000  0.73660000  0.09850000  1.0 0.1069904833
H  H33  1  0.90150000  0.59770000  0.73660000  1.0 0.1069904833
H  H34  1  0.09850000  0.59770000  0.26340000  1.0 0.1069904833
H  H35  1  0.90150000  0.40230000  0.26340000  1.0 0.1069904833
H  H36  1  0.09850000  0.40230000  0.73660000  1.0 0.1069904833
H  H37  1  0.90150000  0.73660000  0.40230000  1.0 0.1069904833
H  H38  1  0.09850000  0.26340000  0.40230000  1.0 0.1069904833
H  H39  1  0.90150000  0.26340000  0.59770000  1.0 0.1069904833
H  H40  1  0.09850000  0.73660000  0.59770000  1.0 0.1069904833
H  H41  1  0.73660000  0.59770000  0.09850000  1.0 0.1069904833
H  H42  1  0.26340000  0.59770000  0.90150000  1.0 0.1069904833
H  H43  1  0.26340000  0.40230000  0.09850000  1.0 0.1069904833
H  H44  1  0.73660000  0.40230000  0.90150000  1.0 0.1069904833
H  H45  1  0.59770000  0.90150000  0.26340000  1.0 0.1069904833
H  H46  1  0.59770000  0.09850000  0.73660000  1.0 0.1069904833
H  H47  1  0.40230000  0.90150000  0.73660000  1.0 0.1069904833
H  H48  1  0.40230000  0.09850000  0.26340000  1.0 0.1069904833
H  H49  1  0.31390000  0.08780000  0.25140000  1.0 0.055322427
H  H50  1  0.68610000  0.91220000  0.25140000  1.0 0.055322427
H  H51  1  0.68610000  0.08780000  0.74860000  1.0 0.055322427
H  H52  1  0.31390000  0.91220000  0.74860000  1.0 0.055322427
H  H53  1  0.25140000  0.31390000  0.08780000  1.0 0.055322427
H  H54  1  0.25140000  0.68610000  0.91220000  1.0 0.055322427
H  H55  1  0.74860000  0.68610000  0.08780000  1.0 0.055322427
H  H56  1  0.74860000  0.31390000  0.91220000  1.0 0.055322427
H  H57  1  0.08780000  0.25140000  0.31390000  1.0 0.055322427
H  H58  1  0.91220000  0.25140000  0.68610000  1.0 0.055322427
H  H59  1  0.08780000  0.74860000  0.68610000  1.0 0.055322427
H  H60  1  0.91220000  0.74860000  0.31390000  1.0 0.055322427
H  H61  1  0.08780000  0.31390000  0.74860000  1.0 0.055322427
H  H62  1  0.91220000  0.68610000  0.74860000  1.0 0.055322427
H  H63  1  0.08780000  0.68610000  0.25140000  1.0 0.055322427
H  H64  1  0.91220000  0.31390000  0.25140000  1.0 0.055322427
H  H65  1  0.31390000  0.25140000  0.91220000  1.0 0.055322427
H  H66  1  0.68610000  0.25140000  0.08780000  1.0 0.055322427
H  H67  1  0.68610000  0.74860000  0.91220000  1.0 0.055322427
H  H68  1  0.31390000  0.74860000  0.08780000  1.0 0.055322427
H  H69  1  0.25140000  0.08780000  0.68610000  1.0 0.055322427
H  H70  1  0.25140000  0.91220000  0.31390000  1.0 0.055322427
H  H71  1  0.74860000  0.08780000  0.31390000  1.0 0.055322427
H  H72  1  0.74860000  0.91220000  0.68610000  1.0 0.055322427
H  H73  1  0.68610000  0.91220000  0.74860000  1.0 0.055322427
H  H74  1  0.31390000  0.08780000  0.74860000  1.0 0.055322427
H  H75  1  0.31390000  0.91220000  0.25140000  1.0 0.055322427
H  H76  1  0.68610000  0.08780000  0.25140000  1.0 0.055322427
H  H77  1  0.74860000  0.68610000  0.91220000  1.0 0.055322427
H  H78  1  0.74860000  0.31390000  0.08780000  1.0 0.055322427
H  H79  1  0.25140000  0.31390000  0.91220000  1.0 0.055322427
H  H80  1  0.25140000  0.68610000  0.08780000  1.0 0.055322427
H  H81  1  0.91220000  0.74860000  0.68610000  1.0 0.055322427
H  H82  1  0.08780000  0.74860000  0.31390000  1.0 0.055322427
H  H83  1  0.91220000  0.25140000  0.31390000  1.0 0.055322427
H  H84  1  0.08780000  0.25140000  0.68610000  1.0 0.055322427
H  H85  1  0.91220000  0.68610000  0.25140000  1.0 0.055322427
H  H86  1  0.08780000  0.31390000  0.25140000  1.0 0.055322427
H  H87  1  0.91220000  0.31390000  0.74860000  1.0 0.055322427
H  H88  1  0.08780000  0.68610000  0.74860000  1.0 0.055322427
H  H89  1  0.68610000  0.74860000  0.08780000  1.0 0.055322427
H  H90  1  0.31390000  0.74860000  0.91220000  1.0 0.055322427
H  H91  1  0.31390000  0.25140000  0.08780000  1.0 0.055322427
H  H92  1  0.68610000  0.25140000  0.91220000  1.0 0.055322427
H  H93  1  0.74860000  0.91220000  0.31390000  1.0 0.055322427
H  H94  1  0.74860000  0.08780000  0.68610000  1.0 0.055322427
H  H95  1  0.25140000  0.91220000  0.68610000  1.0 0.055322427
H  H96  1  0.25140000  0.08780000  0.31390000  1.0 0.055322427
H  H97  1  0.14170000  0.24330000  0.24330000  1.0 0.0946982146
H  H98  1  0.85830000  0.75670000  0.24330000  1.0 0.0946982146
H  H99  1  0.85830000  0.24330000  0.75670000  1.0 0.0946982146
H  H100  1  0.14170000  0.75670000  0.75670000  1.0 0.0946982146
H  H101  1  0.24330000  0.14170000  0.24330000  1.0 0.0946982146
H  H102  1  0.24330000  0.85830000  0.75670000  1.0 0.0946982146
H  H103  1  0.75670000  0.85830000  0.24330000  1.0 0.0946982146
H  H104  1  0.75670000  0.14170000  0.75670000  1.0 0.0946982146
H  H105  1  0.24330000  0.24330000  0.14170000  1.0 0.0946982146
H  H106  1  0.75670000  0.24330000  0.85830000  1.0 0.0946982146
H  H107  1  0.24330000  0.75670000  0.85830000  1.0 0.0946982146
H  H108  1  0.75670000  0.75670000  0.14170000  1.0 0.0946982146
H  H109  1  0.24330000  0.14170000  0.75670000  1.0 0.0946982146
H  H110  1  0.75670000  0.85830000  0.75670000  1.0 0.0946982146
H  H111  1  0.24330000  0.85830000  0.24330000  1.0 0.0946982146
H  H112  1  0.75670000  0.14170000  0.24330000  1.0 0.0946982146
H  H113  1  0.14170000  0.24330000  0.75670000  1.0 0.0946982146
H  H114  1  0.85830000  0.24330000  0.24330000  1.0 0.0946982146
H  H115  1  0.85830000  0.75670000  0.75670000  1.0 0.0946982146
H  H116  1  0.14170000  0.75670000  0.24330000  1.0 0.0946982146
H  H117  1  0.24330000  0.24330000  0.85830000  1.0 0.0946982146
H  H118  1  0.24330000  0.75670000  0.14170000  1.0 0.0946982146
H  H119  1  0.75670000  0.24330000  0.14170000  1.0 0.0946982146
H  H120  1  0.75670000  0.75670000  0.85830000  1.0 0.0946982146
C  C1  1  0.18500000  0.14460000  0.33360000  1.0 0.0464219773
C  C2  1  0.81500000  0.85540000  0.33360000  1.0 0.0464219773
C  C3  1  0.81500000  0.14460000  0.66640000  1.0 0.0464219773
C  C4  1  0.18500000  0.85540000  0.66640000  1.0 0.0464219773
C  C5  1  0.33360000  0.18500000  0.14460000  1.0 0.0464219773
C  C6  1  0.33360000  0.81500000  0.85540000  1.0 0.0464219773
C  C7  1  0.66640000  0.81500000  0.14460000  1.0 0.0464219773
C  C8  1  0.66640000  0.18500000  0.85540000  1.0 0.0464219773
C  C9  1  0.14460000  0.33360000  0.18500000  1.0 0.0464219773
C  C10  1  0.85540000  0.33360000  0.81500000  1.0 0.0464219773
C  C11  1  0.14460000  0.66640000  0.81500000  1.0 0.0464219773
C  C12  1  0.85540000  0.66640000  0.18500000  1.0 0.0464219773
C  C13  1  0.14460000  0.18500000  0.66640000  1.0 0.0464219773
C  C14  1  0.85540000  0.81500000  0.66640000  1.0 0.0464219773
C  C15  1  0.14460000  0.81500000  0.33360000  1.0 0.0464219773
C  C16  1  0.85540000  0.18500000  0.33360000  1.0 0.0464219773
C  C17  1  0.18500000  0.33360000  0.85540000  1.0 0.0464219773
C  C18  1  0.81500000  0.33360000  0.14460000  1.0 0.0464219773
C  C19  1  0.81500000  0.66640000  0.85540000  1.0 0.0464219773
C  C20  1  0.18500000  0.66640000  0.14460000  1.0 0.0464219773
C  C21  1  0.33360000  0.14460000  0.81500000  1.0 0.0464219773
C  C22  1  0.33360000  0.85540000  0.18500000  1.0 0.0464219773
C  C23  1  0.66640000  0.14460000  0.18500000  1.0 0.0464219773
C  C24  1  0.66640000  0.85540000  0.81500000  1.0 0.0464219773
C  C25  1  0.81500000  0.85540000  0.66640000  1.0 0.0464219773
C  C26  1  0.18500000  0.14460000  0.66640000  1.0 0.0464219773
C  C27  1  0.18500000  0.85540000  0.33360000  1.0 0.0464219773
C  C28  1  0.81500000  0.14460000  0.33360000  1.0 0.0464219773
C  C29  1  0.66640000  0.81500000  0.85540000  1.0 0.0464219773
C  C30  1  0.66640000  0.18500000  0.14460000  1.0 0.0464219773
C  C31  1  0.33360000  0.18500000  0.85540000  1.0 0.0464219773
C  C32  1  0.33360000  0.81500000  0.14460000  1.0 0.0464219773
C  C33  1  0.85540000  0.66640000  0.81500000  1.0 0.0464219773
C  C34  1  0.14460000  0.66640000  0.18500000  1.0 0.0464219773
C  C35  1  0.85540000  0.33360000  0.18500000  1.0 0.0464219773
C  C36  1  0.14460000  0.33360000  0.81500000  1.0 0.0464219773
C  C37  1  0.85540000  0.81500000  0.33360000  1.0 0.0464219773
C  C38  1  0.14460000  0.18500000  0.33360000  1.0 0.0464219773
C  C39  1  0.85540000  0.18500000  0.66640000  1.0 0.0464219773
C  C40  1  0.14460000  0.81500000  0.66640000  1.0 0.0464219773
C  C41  1  0.81500000  0.66640000  0.14460000  1.0 0.0464219773
C  C42  1  0.18500000  0.66640000  0.85540000  1.0 0.0464219773
C  C43  1  0.18500000  0.33360000  0.14460000  1.0 0.0464219773
C  C44  1  0.81500000  0.33360000  0.85540000  1.0 0.0464219773
C  C45  1  0.66640000  0.85540000  0.18500000  1.0 0.0464219773
C  C46  1  0.66640000  0.14460000  0.81500000  1.0 0.0464219773
C  C47  1  0.33360000  0.85540000  0.81500000  1.0 0.0464219773
C  C48  1  0.33360000  0.14460000  0.18500000  1.0 0.0464219773
C  C49  1  0.18920000  0.22400000  0.22400000  1.0 -0.0019013239
C  C50  1  0.81080000  0.77600000  0.22400000  1.0 -0.0019013239
C  C51  1  0.81080000  0.22400000  0.77600000  1.0 -0.0019013239
C  C52  1  0.18920000  0.77600000  0.77600000  1.0 -0.0019013239
C  C53  1  0.22400000  0.18920000  0.22400000  1.0 -0.0019013239
C  C54  1  0.22400000  0.81080000  0.77600000  1.0 -0.0019013239
C  C55  1  0.77600000  0.81080000  0.22400000  1.0 -0.0019013239
C  C56  1  0.77600000  0.18920000  0.77600000  1.0 -0.0019013239
C  C57  1  0.22400000  0.22400000  0.18920000  1.0 -0.0019013239
C  C58  1  0.77600000  0.22400000  0.81080000  1.0 -0.0019013239
C  C59  1  0.22400000  0.77600000  0.81080000  1.0 -0.0019013239
C  C60  1  0.77600000  0.77600000  0.18920000  1.0 -0.0019013239
C  C61  1  0.22400000  0.18920000  0.77600000  1.0 -0.0019013239
C  C62  1  0.77600000  0.81080000  0.77600000  1.0 -0.0019013239
C  C63  1  0.22400000  0.81080000  0.22400000  1.0 -0.0019013239
C  C64  1  0.77600000  0.18920000  0.22400000  1.0 -0.0019013239
C  C65  1  0.18920000  0.22400000  0.77600000  1.0 -0.0019013239
C  C66  1  0.81080000  0.22400000  0.22400000  1.0 -0.0019013239
C  C67  1  0.81080000  0.77600000  0.77600000  1.0 -0.0019013239
C  C68  1  0.18920000  0.77600000  0.22400000  1.0 -0.0019013239
C  C69  1  0.22400000  0.22400000  0.81080000  1.0 -0.0019013239
C  C70  1  0.22400000  0.77600000  0.18920000  1.0 -0.0019013239
C  C71  1  0.77600000  0.22400000  0.18920000  1.0 -0.0019013239
C  C72  1  0.77600000  0.77600000  0.81080000  1.0 -0.0019013239
C  C73  1  0.22330000  0.16160000  0.25890000  1.0 -0.0359556702
C  C74  1  0.77670000  0.83840000  0.25890000  1.0 -0.0359556702
C  C75  1  0.77670000  0.16160000  0.74110000  1.0 -0.0359556702
C  C76  1  0.22330000  0.83840000  0.74110000  1.0 -0.0359556702
C  C77  1  0.25890000  0.22330000  0.16160000  1.0 -0.0359556702
C  C78  1  0.25890000  0.77670000  0.83840000  1.0 -0.0359556702
C  C79  1  0.74110000  0.77670000  0.16160000  1.0 -0.0359556702
C  C80  1  0.74110000  0.22330000  0.83840000  1.0 -0.0359556702
C  C81  1  0.16160000  0.25890000  0.22330000  1.0 -0.0359556702
C  C82  1  0.83840000  0.25890000  0.77670000  1.0 -0.0359556702
C  C83  1  0.16160000  0.74110000  0.77670000  1.0 -0.0359556702
C  C84  1  0.83840000  0.74110000  0.22330000  1.0 -0.0359556702
C  C85  1  0.16160000  0.22330000  0.74110000  1.0 -0.0359556702
C  C86  1  0.83840000  0.77670000  0.74110000  1.0 -0.0359556702
C  C87  1  0.16160000  0.77670000  0.25890000  1.0 -0.0359556702
C  C88  1  0.83840000  0.22330000  0.25890000  1.0 -0.0359556702
C  C89  1  0.22330000  0.25890000  0.83840000  1.0 -0.0359556702
C  C90  1  0.77670000  0.25890000  0.16160000  1.0 -0.0359556702
C  C91  1  0.77670000  0.74110000  0.83840000  1.0 -0.0359556702
C  C92  1  0.22330000  0.74110000  0.16160000  1.0 -0.0359556702
C  C93  1  0.25890000  0.16160000  0.77670000  1.0 -0.0359556702
C  C94  1  0.25890000  0.83840000  0.22330000  1.0 -0.0359556702
C  C95  1  0.74110000  0.16160000  0.22330000  1.0 -0.0359556702
C  C96  1  0.74110000  0.83840000  0.77670000  1.0 -0.0359556702
C  C97  1  0.77670000  0.83840000  0.74110000  1.0 -0.0359556702
C  C98  1  0.22330000  0.16160000  0.74110000  1.0 -0.0359556702
C  C99  1  0.22330000  0.83840000  0.25890000  1.0 -0.0359556702
C  C100  1  0.77670000  0.16160000  0.25890000  1.0 -0.0359556702
C  C101  1  0.74110000  0.77670000  0.83840000  1.0 -0.0359556702
C  C102  1  0.74110000  0.22330000  0.16160000  1.0 -0.0359556702
C  C103  1  0.25890000  0.22330000  0.83840000  1.0 -0.0359556702
C  C104  1  0.25890000  0.77670000  0.16160000  1.0 -0.0359556702
C  C105  1  0.83840000  0.74110000  0.77670000  1.0 -0.0359556702
C  C106  1  0.16160000  0.74110000  0.22330000  1.0 -0.0359556702
C  C107  1  0.83840000  0.25890000  0.22330000  1.0 -0.0359556702
C  C108  1  0.16160000  0.25890000  0.77670000  1.0 -0.0359556702
C  C109  1  0.83840000  0.77670000  0.25890000  1.0 -0.0359556702
C  C110  1  0.16160000  0.22330000  0.25890000  1.0 -0.0359556702
C  C111  1  0.83840000  0.22330000  0.74110000  1.0 -0.0359556702
C  C112  1  0.16160000  0.77670000  0.74110000  1.0 -0.0359556702
C  C113  1  0.77670000  0.74110000  0.16160000  1.0 -0.0359556702
C  C114  1  0.22330000  0.74110000  0.83840000  1.0 -0.0359556702
C  C115  1  0.22330000  0.25890000  0.16160000  1.0 -0.0359556702
C  C116  1  0.77670000  0.25890000  0.83840000  1.0 -0.0359556702
C  C117  1  0.74110000  0.83840000  0.22330000  1.0 -0.0359556702
C  C118  1  0.74110000  0.16160000  0.77670000  1.0 -0.0359556702
C  C119  1  0.25890000  0.83840000  0.77670000  1.0 -0.0359556702
C  C120  1  0.25890000  0.16160000  0.22330000  1.0 -0.0359556702
C  C121  1  0.29150000  0.13260000  0.22940000  1.0 -0.0991921911
C  C122  1  0.70850000  0.86740000  0.22940000  1.0 -0.0991921911
C  C123  1  0.70850000  0.13260000  0.77060000  1.0 -0.0991921911
C  C124  1  0.29150000  0.86740000  0.77060000  1.0 -0.0991921911
C  C125  1  0.22940000  0.29150000  0.13260000  1.0 -0.0991921911
C  C126  1  0.22940000  0.70850000  0.86740000  1.0 -0.0991921911
C  C127  1  0.77060000  0.70850000  0.13260000  1.0 -0.0991921911
C  C128  1  0.77060000  0.29150000  0.86740000  1.0 -0.0991921911
C  C129  1  0.13260000  0.22940000  0.29150000  1.0 -0.0991921911
C  C130  1  0.86740000  0.22940000  0.70850000  1.0 -0.0991921911
C  C131  1  0.13260000  0.77060000  0.70850000  1.0 -0.0991921911
C  C132  1  0.86740000  0.77060000  0.29150000  1.0 -0.0991921911
C  C133  1  0.13260000  0.29150000  0.77060000  1.0 -0.0991921911
C  C134  1  0.86740000  0.70850000  0.77060000  1.0 -0.0991921911
C  C135  1  0.13260000  0.70850000  0.22940000  1.0 -0.0991921911
C  C136  1  0.86740000  0.29150000  0.22940000  1.0 -0.0991921911
C  C137  1  0.29150000  0.22940000  0.86740000  1.0 -0.0991921911
C  C138  1  0.70850000  0.22940000  0.13260000  1.0 -0.0991921911
C  C139  1  0.70850000  0.77060000  0.86740000  1.0 -0.0991921911
C  C140  1  0.29150000  0.77060000  0.13260000  1.0 -0.0991921911
C  C141  1  0.22940000  0.13260000  0.70850000  1.0 -0.0991921911
C  C142  1  0.22940000  0.86740000  0.29150000  1.0 -0.0991921911
C  C143  1  0.77060000  0.13260000  0.29150000  1.0 -0.0991921911
C  C144  1  0.77060000  0.86740000  0.70850000  1.0 -0.0991921911
C  C145  1  0.70850000  0.86740000  0.77060000  1.0 -0.0991921911
C  C146  1  0.29150000  0.13260000  0.77060000  1.0 -0.0991921911
C  C147  1  0.29150000  0.86740000  0.22940000  1.0 -0.0991921911
C  C148  1  0.70850000  0.13260000  0.22940000  1.0 -0.0991921911
C  C149  1  0.77060000  0.70850000  0.86740000  1.0 -0.0991921911
C  C150  1  0.77060000  0.29150000  0.13260000  1.0 -0.0991921911
C  C151  1  0.22940000  0.29150000  0.86740000  1.0 -0.0991921911
C  C152  1  0.22940000  0.70850000  0.13260000  1.0 -0.0991921911
C  C153  1  0.86740000  0.77060000  0.70850000  1.0 -0.0991921911
C  C154  1  0.13260000  0.77060000  0.29150000  1.0 -0.0991921911
C  C155  1  0.86740000  0.22940000  0.29150000  1.0 -0.0991921911
C  C156  1  0.13260000  0.22940000  0.70850000  1.0 -0.0991921911
C  C157  1  0.86740000  0.70850000  0.22940000  1.0 -0.0991921911
C  C158  1  0.13260000  0.29150000  0.22940000  1.0 -0.0991921911
C  C159  1  0.86740000  0.29150000  0.77060000  1.0 -0.0991921911
C  C160  1  0.13260000  0.70850000  0.77060000  1.0 -0.0991921911
C  C161  1  0.70850000  0.77060000  0.13260000  1.0 -0.0991921911
C  C162  1  0.29150000  0.77060000  0.86740000  1.0 -0.0991921911
C  C163  1  0.29150000  0.22940000  0.13260000  1.0 -0.0991921911
C  C164  1  0.70850000  0.22940000  0.86740000  1.0 -0.0991921911
C  C165  1  0.77060000  0.86740000  0.29150000  1.0 -0.0991921911
C  C166  1  0.77060000  0.13260000  0.70850000  1.0 -0.0991921911
C  C167  1  0.22940000  0.86740000  0.70850000  1.0 -0.0991921911
C  C168  1  0.22940000  0.13260000  0.29150000  1.0 -0.0991921911
C  C169  1  0.32700000  0.16800000  0.16800000  1.0 0.0758554364
C  C170  1  0.67300000  0.83200000  0.16800000  1.0 0.0758554364
C  C171  1  0.67300000  0.16800000  0.83200000  1.0 0.0758554364
C  C172  1  0.32700000  0.83200000  0.83200000  1.0 0.0758554364
C  C173  1  0.16800000  0.32700000  0.16800000  1.0 0.0758554364
C  C174  1  0.16800000  0.67300000  0.83200000  1.0 0.0758554364
C  C175  1  0.83200000  0.67300000  0.16800000  1.0 0.0758554364
C  C176  1  0.83200000  0.32700000  0.83200000  1.0 0.0758554364
C  C177  1  0.16800000  0.16800000  0.32700000  1.0 0.0758554364
C  C178  1  0.83200000  0.16800000  0.67300000  1.0 0.0758554364
C  C179  1  0.16800000  0.83200000  0.67300000  1.0 0.0758554364
C  C180  1  0.83200000  0.83200000  0.32700000  1.0 0.0758554364
C  C181  1  0.16800000  0.32700000  0.83200000  1.0 0.0758554364
C  C182  1  0.83200000  0.67300000  0.83200000  1.0 0.0758554364
C  C183  1  0.16800000  0.67300000  0.16800000  1.0 0.0758554364
C  C184  1  0.83200000  0.32700000  0.16800000  1.0 0.0758554364
C  C185  1  0.32700000  0.16800000  0.83200000  1.0 0.0758554364
C  C186  1  0.67300000  0.16800000  0.16800000  1.0 0.0758554364
C  C187  1  0.67300000  0.83200000  0.83200000  1.0 0.0758554364
C  C188  1  0.32700000  0.83200000  0.16800000  1.0 0.0758554364
C  C189  1  0.16800000  0.16800000  0.67300000  1.0 0.0758554364
C  C190  1  0.16800000  0.83200000  0.32700000  1.0 0.0758554364
C  C191  1  0.83200000  0.16800000  0.32700000  1.0 0.0758554364
C  C192  1  0.83200000  0.83200000  0.67300000  1.0 0.0758554364
C  C193  1  0.39770000  0.13490000  0.13490000  1.0 0.2372334363
C  C194  1  0.60230000  0.86510000  0.13490000  1.0 0.2372334363
C  C195  1  0.60230000  0.13490000  0.86510000  1.0 0.2372334363
C  C196  1  0.39770000  0.86510000  0.86510000  1.0 0.2372334363
C  C197  1  0.13490000  0.39770000  0.13490000  1.0 0.2372334363
C  C198  1  0.13490000  0.60230000  0.86510000  1.0 0.2372334363
C  C199  1  0.86510000  0.60230000  0.13490000  1.0 0.2372334363
C  C200  1  0.86510000  0.39770000  0.86510000  1.0 0.2372334363
C  C201  1  0.13490000  0.13490000  0.39770000  1.0 0.2372334363
C  C202  1  0.86510000  0.13490000  0.60230000  1.0 0.2372334363
C  C203  1  0.13490000  0.86510000  0.60230000  1.0 0.2372334363
C  C204  1  0.86510000  0.86510000  0.39770000  1.0 0.2372334363
C  C205  1  0.13490000  0.39770000  0.86510000  1.0 0.2372334363
C  C206  1  0.86510000  0.60230000  0.86510000  1.0 0.2372334363
C  C207  1  0.13490000  0.60230000  0.13490000  1.0 0.2372334363
C  C208  1  0.86510000  0.39770000  0.13490000  1.0 0.2372334363
C  C209  1  0.39770000  0.13490000  0.86510000  1.0 0.2372334363
C  C210  1  0.60230000  0.13490000  0.13490000  1.0 0.2372334363
C  C211  1  0.60230000  0.86510000  0.86510000  1.0 0.2372334363
C  C212  1  0.39770000  0.86510000  0.13490000  1.0 0.2372334363
C  C213  1  0.13490000  0.13490000  0.60230000  1.0 0.2372334363
C  C214  1  0.13490000  0.86510000  0.39770000  1.0 0.2372334363
C  C215  1  0.86510000  0.13490000  0.39770000  1.0 0.2372334363
C  C216  1  0.86510000  0.86510000  0.60230000  1.0 0.2372334363
N  N1  1  0.11270000  0.16100000  0.35000000  1.0 -0.0508961807
N  N2  1  0.88730000  0.83900000  0.35000000  1.0 -0.0508961807
N  N3  1  0.88730000  0.16100000  0.65000000  1.0 -0.0508961807
N  N4  1  0.11270000  0.83900000  0.65000000  1.0 -0.0508961807
N  N5  1  0.35000000  0.11270000  0.16100000  1.0 -0.0508961807
N  N6  1  0.35000000  0.88730000  0.83900000  1.0 -0.0508961807
N  N7  1  0.65000000  0.88730000  0.16100000  1.0 -0.0508961807
N  N8  1  0.65000000  0.11270000  0.83900000  1.0 -0.0508961807
N  N9  1  0.16100000  0.35000000  0.11270000  1.0 -0.0508961807
N  N10  1  0.83900000  0.35000000  0.88730000  1.0 -0.0508961807
N  N11  1  0.16100000  0.65000000  0.88730000  1.0 -0.0508961807
N  N12  1  0.83900000  0.65000000  0.11270000  1.0 -0.0508961807
N  N13  1  0.16100000  0.11270000  0.65000000  1.0 -0.0508961807
N  N14  1  0.83900000  0.88730000  0.65000000  1.0 -0.0508961807
N  N15  1  0.16100000  0.88730000  0.35000000  1.0 -0.0508961807
N  N16  1  0.83900000  0.11270000  0.35000000  1.0 -0.0508961807
N  N17  1  0.11270000  0.35000000  0.83900000  1.0 -0.0508961807
N  N18  1  0.88730000  0.35000000  0.16100000  1.0 -0.0508961807
N  N19  1  0.88730000  0.65000000  0.83900000  1.0 -0.0508961807
N  N20  1  0.11270000  0.65000000  0.16100000  1.0 -0.0508961807
N  N21  1  0.35000000  0.16100000  0.88730000  1.0 -0.0508961807
N  N22  1  0.35000000  0.83900000  0.11270000  1.0 -0.0508961807
N  N23  1  0.65000000  0.16100000  0.11270000  1.0 -0.0508961807
N  N24  1  0.65000000  0.83900000  0.88730000  1.0 -0.0508961807
N  N25  1  0.88730000  0.83900000  0.65000000  1.0 -0.0508961807
N  N26  1  0.11270000  0.16100000  0.65000000  1.0 -0.0508961807
N  N27  1  0.11270000  0.83900000  0.35000000  1.0 -0.0508961807
N  N28  1  0.88730000  0.16100000  0.35000000  1.0 -0.0508961807
N  N29  1  0.65000000  0.88730000  0.83900000  1.0 -0.0508961807
N  N30  1  0.65000000  0.11270000  0.16100000  1.0 -0.0508961807
N  N31  1  0.35000000  0.11270000  0.83900000  1.0 -0.0508961807
N  N32  1  0.35000000  0.88730000  0.16100000  1.0 -0.0508961807
N  N33  1  0.83900000  0.65000000  0.88730000  1.0 -0.0508961807
N  N34  1  0.16100000  0.65000000  0.11270000  1.0 -0.0508961807
N  N35  1  0.83900000  0.35000000  0.11270000  1.0 -0.0508961807
N  N36  1  0.16100000  0.35000000  0.88730000  1.0 -0.0508961807
N  N37  1  0.83900000  0.88730000  0.35000000  1.0 -0.0508961807
N  N38  1  0.16100000  0.11270000  0.35000000  1.0 -0.0508961807
N  N39  1  0.83900000  0.11270000  0.65000000  1.0 -0.0508961807
N  N40  1  0.16100000  0.88730000  0.65000000  1.0 -0.0508961807
N  N41  1  0.88730000  0.65000000  0.16100000  1.0 -0.0508961807
N  N42  1  0.11270000  0.65000000  0.83900000  1.0 -0.0508961807
N  N43  1  0.11270000  0.35000000  0.16100000  1.0 -0.0508961807
N  N44  1  0.88730000  0.35000000  0.83900000  1.0 -0.0508961807
N  N45  1  0.65000000  0.83900000  0.11270000  1.0 -0.0508961807
N  N46  1  0.65000000  0.16100000  0.88730000  1.0 -0.0508961807
N  N47  1  0.35000000  0.83900000  0.88730000  1.0 -0.0508961807
N  N48  1  0.35000000  0.16100000  0.11270000  1.0 -0.0508961807
N  N49  1  0.09890000  0.14430000  0.42320000  1.0 -0.0333518883
N  N50  1  0.90110000  0.85570000  0.42320000  1.0 -0.0333518883
N  N51  1  0.90110000  0.14430000  0.57680000  1.0 -0.0333518883
N  N52  1  0.09890000  0.85570000  0.57680000  1.0 -0.0333518883
N  N53  1  0.42320000  0.09890000  0.14430000  1.0 -0.0333518883
N  N54  1  0.42320000  0.90110000  0.85570000  1.0 -0.0333518883
N  N55  1  0.57680000  0.90110000  0.14430000  1.0 -0.0333518883
N  N56  1  0.57680000  0.09890000  0.85570000  1.0 -0.0333518883
N  N57  1  0.14430000  0.42320000  0.09890000  1.0 -0.0333518883
N  N58  1  0.85570000  0.42320000  0.90110000  1.0 -0.0333518883
N  N59  1  0.14430000  0.57680000  0.90110000  1.0 -0.0333518883
N  N60  1  0.85570000  0.57680000  0.09890000  1.0 -0.0333518883
N  N61  1  0.14430000  0.09890000  0.57680000  1.0 -0.0333518883
N  N62  1  0.85570000  0.90110000  0.57680000  1.0 -0.0333518883
N  N63  1  0.14430000  0.90110000  0.42320000  1.0 -0.0333518883
N  N64  1  0.85570000  0.09890000  0.42320000  1.0 -0.0333518883
N  N65  1  0.09890000  0.42320000  0.85570000  1.0 -0.0333518883
N  N66  1  0.90110000  0.42320000  0.14430000  1.0 -0.0333518883
N  N67  1  0.90110000  0.57680000  0.85570000  1.0 -0.0333518883
N  N68  1  0.09890000  0.57680000  0.14430000  1.0 -0.0333518883
N  N69  1  0.42320000  0.14430000  0.90110000  1.0 -0.0333518883
N  N70  1  0.42320000  0.85570000  0.09890000  1.0 -0.0333518883
N  N71  1  0.57680000  0.14430000  0.09890000  1.0 -0.0333518883
N  N72  1  0.57680000  0.85570000  0.90110000  1.0 -0.0333518883
N  N73  1  0.90110000  0.85570000  0.57680000  1.0 -0.0333518883
N  N74  1  0.09890000  0.14430000  0.57680000  1.0 -0.0333518883
N  N75  1  0.09890000  0.85570000  0.42320000  1.0 -0.0333518883
N  N76  1  0.90110000  0.14430000  0.42320000  1.0 -0.0333518883
N  N77  1  0.57680000  0.90110000  0.85570000  1.0 -0.0333518883
N  N78  1  0.57680000  0.09890000  0.14430000  1.0 -0.0333518883
N  N79  1  0.42320000  0.09890000  0.85570000  1.0 -0.0333518883
N  N80  1  0.42320000  0.90110000  0.14430000  1.0 -0.0333518883
N  N81  1  0.85570000  0.57680000  0.90110000  1.0 -0.0333518883
N  N82  1  0.14430000  0.57680000  0.09890000  1.0 -0.0333518883
N  N83  1  0.85570000  0.42320000  0.09890000  1.0 -0.0333518883
N  N84  1  0.14430000  0.42320000  0.90110000  1.0 -0.0333518883
N  N85  1  0.85570000  0.90110000  0.42320000  1.0 -0.0333518883
N  N86  1  0.14430000  0.09890000  0.42320000  1.0 -0.0333518883
N  N87  1  0.85570000  0.09890000  0.57680000  1.0 -0.0333518883
N  N88  1  0.14430000  0.90110000  0.57680000  1.0 -0.0333518883
N  N89  1  0.90110000  0.57680000  0.14430000  1.0 -0.0333518883
N  N90  1  0.09890000  0.57680000  0.85570000  1.0 -0.0333518883
N  N91  1  0.09890000  0.42320000  0.14430000  1.0 -0.0333518883
N  N92  1  0.90110000  0.42320000  0.85570000  1.0 -0.0333518883
N  N93  1  0.57680000  0.85570000  0.09890000  1.0 -0.0333518883
N  N94  1  0.57680000  0.14430000  0.90110000  1.0 -0.0333518883
N  N95  1  0.42320000  0.85570000  0.90110000  1.0 -0.0333518883
N  N96  1  0.42320000  0.14430000  0.09890000  1.0 -0.0333518883
N  N97  1  0.16260000  0.11450000  0.45250000  1.0 -0.0508961807
N  N98  1  0.83740000  0.88550000  0.45250000  1.0 -0.0508961807
N  N99  1  0.83740000  0.11450000  0.54750000  1.0 -0.0508961807
N  N100  1  0.16260000  0.88550000  0.54750000  1.0 -0.0508961807
N  N101  1  0.45250000  0.16260000  0.11450000  1.0 -0.0508961807
N  N102  1  0.45250000  0.83740000  0.88550000  1.0 -0.0508961807
N  N103  1  0.54750000  0.83740000  0.11450000  1.0 -0.0508961807
N  N104  1  0.54750000  0.16260000  0.88550000  1.0 -0.0508961807
N  N105  1  0.11450000  0.45250000  0.16260000  1.0 -0.0508961807
N  N106  1  0.88550000  0.45250000  0.83740000  1.0 -0.0508961807
N  N107  1  0.11450000  0.54750000  0.83740000  1.0 -0.0508961807
N  N108  1  0.88550000  0.54750000  0.16260000  1.0 -0.0508961807
N  N109  1  0.11450000  0.16260000  0.54750000  1.0 -0.0508961807
N  N110  1  0.88550000  0.83740000  0.54750000  1.0 -0.0508961807
N  N111  1  0.11450000  0.83740000  0.45250000  1.0 -0.0508961807
N  N112  1  0.88550000  0.16260000  0.45250000  1.0 -0.0508961807
N  N113  1  0.16260000  0.45250000  0.88550000  1.0 -0.0508961807
N  N114  1  0.83740000  0.45250000  0.11450000  1.0 -0.0508961807
N  N115  1  0.83740000  0.54750000  0.88550000  1.0 -0.0508961807
N  N116  1  0.16260000  0.54750000  0.11450000  1.0 -0.0508961807
N  N117  1  0.45250000  0.11450000  0.83740000  1.0 -0.0508961807
N  N118  1  0.45250000  0.88550000  0.16260000  1.0 -0.0508961807
N  N119  1  0.54750000  0.11450000  0.16260000  1.0 -0.0508961807
N  N120  1  0.54750000  0.88550000  0.83740000  1.0 -0.0508961807
N  N121  1  0.83740000  0.88550000  0.54750000  1.0 -0.0508961807
N  N122  1  0.16260000  0.11450000  0.54750000  1.0 -0.0508961807
N  N123  1  0.16260000  0.88550000  0.45250000  1.0 -0.0508961807
N  N124  1  0.83740000  0.11450000  0.45250000  1.0 -0.0508961807
N  N125  1  0.54750000  0.83740000  0.88550000  1.0 -0.0508961807
N  N126  1  0.54750000  0.16260000  0.11450000  1.0 -0.0508961807
N  N127  1  0.45250000  0.16260000  0.88550000  1.0 -0.0508961807
N  N128  1  0.45250000  0.83740000  0.11450000  1.0 -0.0508961807
N  N129  1  0.88550000  0.54750000  0.83740000  1.0 -0.0508961807
N  N130  1  0.11450000  0.54750000  0.16260000  1.0 -0.0508961807
N  N131  1  0.88550000  0.45250000  0.16260000  1.0 -0.0508961807
N  N132  1  0.11450000  0.45250000  0.83740000  1.0 -0.0508961807
N  N133  1  0.88550000  0.83740000  0.45250000  1.0 -0.0508961807
N  N134  1  0.11450000  0.16260000  0.45250000  1.0 -0.0508961807
N  N135  1  0.88550000  0.16260000  0.54750000  1.0 -0.0508961807
N  N136  1  0.11450000  0.83740000  0.54750000  1.0 -0.0508961807
N  N137  1  0.83740000  0.54750000  0.11450000  1.0 -0.0508961807
N  N138  1  0.16260000  0.54750000  0.88550000  1.0 -0.0508961807
N  N139  1  0.16260000  0.45250000  0.11450000  1.0 -0.0508961807
N  N140  1  0.83740000  0.45250000  0.88550000  1.0 -0.0508961807
N  N141  1  0.54750000  0.88550000  0.16260000  1.0 -0.0508961807
N  N142  1  0.54750000  0.11450000  0.83740000  1.0 -0.0508961807
N  N143  1  0.45250000  0.88550000  0.83740000  1.0 -0.0508961807
N  N144  1  0.45250000  0.11450000  0.16260000  1.0 -0.0508961807
N  N145  1  0.21510000  0.11530000  0.39730000  1.0 -0.1405466994
N  N146  1  0.78490000  0.88470000  0.39730000  1.0 -0.1405466994
N  N147  1  0.78490000  0.11530000  0.60270000  1.0 -0.1405466994
N  N148  1  0.21510000  0.88470000  0.60270000  1.0 -0.1405466994
N  N149  1  0.39730000  0.21510000  0.11530000  1.0 -0.1405466994
N  N150  1  0.39730000  0.78490000  0.88470000  1.0 -0.1405466994
N  N151  1  0.60270000  0.78490000  0.11530000  1.0 -0.1405466994
N  N152  1  0.60270000  0.21510000  0.88470000  1.0 -0.1405466994
N  N153  1  0.11530000  0.39730000  0.21510000  1.0 -0.1405466994
N  N154  1  0.88470000  0.39730000  0.78490000  1.0 -0.1405466994
N  N155  1  0.11530000  0.60270000  0.78490000  1.0 -0.1405466994
N  N156  1  0.88470000  0.60270000  0.21510000  1.0 -0.1405466994
N  N157  1  0.11530000  0.21510000  0.60270000  1.0 -0.1405466994
N  N158  1  0.88470000  0.78490000  0.60270000  1.0 -0.1405466994
N  N159  1  0.11530000  0.78490000  0.39730000  1.0 -0.1405466994
N  N160  1  0.88470000  0.21510000  0.39730000  1.0 -0.1405466994
N  N161  1  0.21510000  0.39730000  0.88470000  1.0 -0.1405466994
N  N162  1  0.78490000  0.39730000  0.11530000  1.0 -0.1405466994
N  N163  1  0.78490000  0.60270000  0.88470000  1.0 -0.1405466994
N  N164  1  0.21510000  0.60270000  0.11530000  1.0 -0.1405466994
N  N165  1  0.39730000  0.11530000  0.78490000  1.0 -0.1405466994
N  N166  1  0.39730000  0.88470000  0.21510000  1.0 -0.1405466994
N  N167  1  0.60270000  0.11530000  0.21510000  1.0 -0.1405466994
N  N168  1  0.60270000  0.88470000  0.78490000  1.0 -0.1405466994
N  N169  1  0.78490000  0.88470000  0.60270000  1.0 -0.1405466994
N  N170  1  0.21510000  0.11530000  0.60270000  1.0 -0.1405466994
N  N171  1  0.21510000  0.88470000  0.39730000  1.0 -0.1405466994
N  N172  1  0.78490000  0.11530000  0.39730000  1.0 -0.1405466994
N  N173  1  0.60270000  0.78490000  0.88470000  1.0 -0.1405466994
N  N174  1  0.60270000  0.21510000  0.11530000  1.0 -0.1405466994
N  N175  1  0.39730000  0.21510000  0.88470000  1.0 -0.1405466994
N  N176  1  0.39730000  0.78490000  0.11530000  1.0 -0.1405466994
N  N177  1  0.88470000  0.60270000  0.78490000  1.0 -0.1405466994
N  N178  1  0.11530000  0.60270000  0.21510000  1.0 -0.1405466994
N  N179  1  0.88470000  0.39730000  0.21510000  1.0 -0.1405466994
N  N180  1  0.11530000  0.39730000  0.78490000  1.0 -0.1405466994
N  N181  1  0.88470000  0.78490000  0.39730000  1.0 -0.1405466994
N  N182  1  0.11530000  0.21510000  0.39730000  1.0 -0.1405466994
N  N183  1  0.88470000  0.21510000  0.60270000  1.0 -0.1405466994
N  N184  1  0.11530000  0.78490000  0.60270000  1.0 -0.1405466994
N  N185  1  0.78490000  0.60270000  0.11530000  1.0 -0.1405466994
N  N186  1  0.21510000  0.60270000  0.88470000  1.0 -0.1405466994
N  N187  1  0.21510000  0.39730000  0.11530000  1.0 -0.1405466994
N  N188  1  0.78490000  0.39730000  0.88470000  1.0 -0.1405466994
N  N189  1  0.60270000  0.88470000  0.21510000  1.0 -0.1405466994
N  N190  1  0.60270000  0.11530000  0.78490000  1.0 -0.1405466994
N  N191  1  0.39730000  0.88470000  0.78490000  1.0 -0.1405466994
N  N192  1  0.39730000  0.11530000  0.21510000  1.0 -0.1405466994
Cl  Cl1  1  0.00000000  0.00000000  0.50000000  1.0 -0.4203795965
Cl  Cl2  1  0.50000000  0.00000000  0.00000000  1.0 -0.4203795965
Cl  Cl3  1  0.00000000  0.50000000  0.00000000  1.0 -0.4203795965
O  O1  1  0.42220000  0.08330000  0.17720000  1.0 -0.0187283377
O  O2  1  0.57780000  0.91670000  0.17720000  1.0 -0.0187283377
O  O3  1  0.57780000  0.08330000  0.82280000  1.0 -0.0187283377
O  O4  1  0.42220000  0.91670000  0.82280000  1.0 -0.0187283377
O  O5  1  0.17720000  0.42220000  0.08330000  1.0 -0.0187283377
O  O6  1  0.17720000  0.57780000  0.91670000  1.0 -0.0187283377
O  O7  1  0.82280000  0.57780000  0.08330000  1.0 -0.0187283377
O  O8  1  0.82280000  0.42220000  0.91670000  1.0 -0.0187283377
O  O9  1  0.08330000  0.17720000  0.42220000  1.0 -0.0187283377
O  O10  1  0.91670000  0.17720000  0.57780000  1.0 -0.0187283377
O  O11  1  0.08330000  0.82280000  0.57780000  1.0 -0.0187283377
O  O12  1  0.91670000  0.82280000  0.42220000  1.0 -0.0187283377
O  O13  1  0.08330000  0.42220000  0.82280000  1.0 -0.0187283377
O  O14  1  0.91670000  0.57780000  0.82280000  1.0 -0.0187283377
O  O15  1  0.08330000  0.57780000  0.17720000  1.0 -0.0187283377
O  O16  1  0.91670000  0.42220000  0.17720000  1.0 -0.0187283377
O  O17  1  0.42220000  0.17720000  0.91670000  1.0 -0.0187283377
O  O18  1  0.57780000  0.17720000  0.08330000  1.0 -0.0187283377
O  O19  1  0.57780000  0.82280000  0.91670000  1.0 -0.0187283377
O  O20  1  0.42220000  0.82280000  0.08330000  1.0 -0.0187283377
O  O21  1  0.17720000  0.08330000  0.57780000  1.0 -0.0187283377
O  O22  1  0.17720000  0.91670000  0.42220000  1.0 -0.0187283377
O  O23  1  0.82280000  0.08330000  0.42220000  1.0 -0.0187283377
O  O24  1  0.82280000  0.91670000  0.57780000  1.0 -0.0187283377
O  O25  1  0.57780000  0.91670000  0.82280000  1.0 -0.0187283377
O  O26  1  0.42220000  0.08330000  0.82280000  1.0 -0.0187283377
O  O27  1  0.42220000  0.91670000  0.17720000  1.0 -0.0187283377
O  O28  1  0.57780000  0.08330000  0.17720000  1.0 -0.0187283377
O  O29  1  0.82280000  0.57780000  0.91670000  1.0 -0.0187283377
O  O30  1  0.82280000  0.42220000  0.08330000  1.0 -0.0187283377
O  O31  1  0.17720000  0.42220000  0.91670000  1.0 -0.0187283377
O  O32  1  0.17720000  0.57780000  0.08330000  1.0 -0.0187283377
O  O33  1  0.91670000  0.82280000  0.57780000  1.0 -0.0187283377
O  O34  1  0.08330000  0.82280000  0.42220000  1.0 -0.0187283377
O  O35  1  0.91670000  0.17720000  0.42220000  1.0 -0.0187283377
O  O36  1  0.08330000  0.17720000  0.57780000  1.0 -0.0187283377
O  O37  1  0.91670000  0.57780000  0.17720000  1.0 -0.0187283377
O  O38  1  0.08330000  0.42220000  0.17720000  1.0 -0.0187283377
O  O39  1  0.91670000  0.42220000  0.82280000  1.0 -0.0187283377
O  O40  1  0.08330000  0.57780000  0.82280000  1.0 -0.0187283377
O  O41  1  0.57780000  0.82280000  0.08330000  1.0 -0.0187283377
O  O42  1  0.42220000  0.82280000  0.91670000  1.0 -0.0187283377
O  O43  1  0.42220000  0.17720000  0.08330000  1.0 -0.0187283377
O  O44  1  0.57780000  0.17720000  0.91670000  1.0 -0.0187283377
O  O45  1  0.82280000  0.91670000  0.42220000  1.0 -0.0187283377
O  O46  1  0.82280000  0.08330000  0.57780000  1.0 -0.0187283377
O  O47  1  0.17720000  0.91670000  0.57780000  1.0 -0.0187283377
O  O48  1  0.17720000  0.08330000  0.42220000  1.0 -0.0187283377
