# DDEC6 charges by PACMAN v1.1 (https://github.com/mtap-research/PACMAN-charge/)
data_IHAZOH_FSR_pacman
_symmetry_space_group_name_H-M   'P 1'
_cell_length_a   19.21080000
_cell_length_b   19.21080000
_cell_length_c   19.21080000
_cell_angle_alpha   90.00000000
_cell_angle_beta   90.00000000
_cell_angle_gamma   90.00000000
_symmetry_Int_Tables_number   1
_chemical_formula_structural   Fe3H12(C3O2)8
_chemical_formula_sum   'Fe24 H96 C192 O128'
_cell_volume   7089.83865572
_cell_formula_units_Z   8
loop_
 _symmetry_equiv_pos_site_id
 _symmetry_equiv_pos_as_xyz
  1  'x, y, z'
loop_
 _atom_site_type_symbol
 _atom_site_label
 _atom_site_symmetry_multiplicity
 _atom_site_fract_x
 _atom_site_fract_y
 _atom_site_fract_z
 _atom_site_occupancy
 _atom_site_charge
Fe  Fe1  1  0.85955000  0.25738000  0.10740000  1.0 1.2933865515
Fe  Fe2  1  0.64045000  0.74262000  0.60740000  1.0 1.2933865515
Fe  Fe3  1  0.14045000  0.75738000  0.39260000  1.0 1.2933865515
Fe  Fe4  1  0.35955000  0.24262000  0.89260000  1.0 1.2933865515
Fe  Fe5  1  0.10740000  0.85955000  0.25738000  1.0 1.2933865515
Fe  Fe6  1  0.60740000  0.64045000  0.74262000  1.0 1.2933865515
Fe  Fe7  1  0.39260000  0.14045000  0.75738000  1.0 1.2933865515
Fe  Fe8  1  0.89260000  0.35955000  0.24262000  1.0 1.2933865515
Fe  Fe9  1  0.25738000  0.10740000  0.85955000  1.0 1.2933865515
Fe  Fe10  1  0.74262000  0.60740000  0.64045000  1.0 1.2933865515
Fe  Fe11  1  0.75738000  0.39260000  0.14045000  1.0 1.2933865515
Fe  Fe12  1  0.24262000  0.89260000  0.35955000  1.0 1.2933865515
Fe  Fe13  1  0.14045000  0.74262000  0.89260000  1.0 1.2933865515
Fe  Fe14  1  0.35955000  0.25738000  0.39260000  1.0 1.2933865515
Fe  Fe15  1  0.85955000  0.24262000  0.60740000  1.0 1.2933865515
Fe  Fe16  1  0.64045000  0.75738000  0.10740000  1.0 1.2933865515
Fe  Fe17  1  0.89260000  0.14045000  0.74262000  1.0 1.2933865515
Fe  Fe18  1  0.39260000  0.35955000  0.25738000  1.0 1.2933865515
Fe  Fe19  1  0.60740000  0.85955000  0.24262000  1.0 1.2933865515
Fe  Fe20  1  0.10740000  0.64045000  0.75738000  1.0 1.2933865515
Fe  Fe21  1  0.74262000  0.89260000  0.14045000  1.0 1.2933865515
Fe  Fe22  1  0.25738000  0.39260000  0.35955000  1.0 1.2933865515
Fe  Fe23  1  0.24262000  0.60740000  0.85955000  1.0 1.2933865515
Fe  Fe24  1  0.75738000  0.10740000  0.64045000  1.0 1.2933865515
H  H1  1  0.74240000  0.48090000  0.81090000  1.0 0.1286418478
H  H2  1  0.75760000  0.51910000  0.31090000  1.0 0.1286418478
H  H3  1  0.25760000  0.98090000  0.68910000  1.0 0.1286418478
H  H4  1  0.24240000  0.01910000  0.18910000  1.0 0.1286418478
H  H5  1  0.81090000  0.74240000  0.48090000  1.0 0.1286418478
H  H6  1  0.31090000  0.75760000  0.51910000  1.0 0.1286418478
H  H7  1  0.68910000  0.25760000  0.98090000  1.0 0.1286418478
H  H8  1  0.18910000  0.24240000  0.01910000  1.0 0.1286418478
H  H9  1  0.48090000  0.81090000  0.74240000  1.0 0.1286418478
H  H10  1  0.51910000  0.31090000  0.75760000  1.0 0.1286418478
H  H11  1  0.98090000  0.68910000  0.25760000  1.0 0.1286418478
H  H12  1  0.01910000  0.18910000  0.24240000  1.0 0.1286418478
H  H13  1  0.25760000  0.51910000  0.18910000  1.0 0.1286418478
H  H14  1  0.24240000  0.48090000  0.68910000  1.0 0.1286418478
H  H15  1  0.74240000  0.01910000  0.31090000  1.0 0.1286418478
H  H16  1  0.75760000  0.98090000  0.81090000  1.0 0.1286418478
H  H17  1  0.18910000  0.25760000  0.51910000  1.0 0.1286418478
H  H18  1  0.68910000  0.24240000  0.48090000  1.0 0.1286418478
H  H19  1  0.31090000  0.74240000  0.01910000  1.0 0.1286418478
H  H20  1  0.81090000  0.75760000  0.98090000  1.0 0.1286418478
H  H21  1  0.51910000  0.18910000  0.25760000  1.0 0.1286418478
H  H22  1  0.48090000  0.68910000  0.24240000  1.0 0.1286418478
H  H23  1  0.01910000  0.31090000  0.74240000  1.0 0.1286418478
H  H24  1  0.98090000  0.81090000  0.75760000  1.0 0.1286418478
H  H25  1  0.74660000  0.45770000  0.92850000  1.0 0.1286418478
H  H26  1  0.75340000  0.54230000  0.42850000  1.0 0.1286418478
H  H27  1  0.25340000  0.95770000  0.57150000  1.0 0.1286418478
H  H28  1  0.24660000  0.04230000  0.07150000  1.0 0.1286418478
H  H29  1  0.92850000  0.74660000  0.45770000  1.0 0.1286418478
H  H30  1  0.42850000  0.75340000  0.54230000  1.0 0.1286418478
H  H31  1  0.57150000  0.25340000  0.95770000  1.0 0.1286418478
H  H32  1  0.07150000  0.24660000  0.04230000  1.0 0.1286418478
H  H33  1  0.45770000  0.92850000  0.74660000  1.0 0.1286418478
H  H34  1  0.54230000  0.42850000  0.75340000  1.0 0.1286418478
H  H35  1  0.95770000  0.57150000  0.25340000  1.0 0.1286418478
H  H36  1  0.04230000  0.07150000  0.24660000  1.0 0.1286418478
H  H37  1  0.25340000  0.54230000  0.07150000  1.0 0.1286418478
H  H38  1  0.24660000  0.45770000  0.57150000  1.0 0.1286418478
H  H39  1  0.74660000  0.04230000  0.42850000  1.0 0.1286418478
H  H40  1  0.75340000  0.95770000  0.92850000  1.0 0.1286418478
H  H41  1  0.07150000  0.25340000  0.54230000  1.0 0.1286418478
H  H42  1  0.57150000  0.24660000  0.45770000  1.0 0.1286418478
H  H43  1  0.42850000  0.74660000  0.04230000  1.0 0.1286418478
H  H44  1  0.92850000  0.75340000  0.95770000  1.0 0.1286418478
H  H45  1  0.54230000  0.07150000  0.25340000  1.0 0.1286418478
H  H46  1  0.45770000  0.57150000  0.24660000  1.0 0.1286418478
H  H47  1  0.04230000  0.42850000  0.74660000  1.0 0.1286418478
H  H48  1  0.95770000  0.92850000  0.75340000  1.0 0.1286418478
H  H49  1  0.87000000  0.29320000  0.89050000  1.0 0.1286418478
H  H50  1  0.63000000  0.70680000  0.39050000  1.0 0.1286418478
H  H51  1  0.13000000  0.79320000  0.60950000  1.0 0.1286418478
H  H52  1  0.37000000  0.20680000  0.10950000  1.0 0.1286418478
H  H53  1  0.89050000  0.87000000  0.29320000  1.0 0.1286418478
H  H54  1  0.39050000  0.63000000  0.70680000  1.0 0.1286418478
H  H55  1  0.60950000  0.13000000  0.79320000  1.0 0.1286418478
H  H56  1  0.10950000  0.37000000  0.20680000  1.0 0.1286418478
H  H57  1  0.29320000  0.89050000  0.87000000  1.0 0.1286418478
H  H58  1  0.70680000  0.39050000  0.63000000  1.0 0.1286418478
H  H59  1  0.79320000  0.60950000  0.13000000  1.0 0.1286418478
H  H60  1  0.20680000  0.10950000  0.37000000  1.0 0.1286418478
H  H61  1  0.13000000  0.70680000  0.10950000  1.0 0.1286418478
H  H62  1  0.37000000  0.29320000  0.60950000  1.0 0.1286418478
H  H63  1  0.87000000  0.20680000  0.39050000  1.0 0.1286418478
H  H64  1  0.63000000  0.79320000  0.89050000  1.0 0.1286418478
H  H65  1  0.10950000  0.13000000  0.70680000  1.0 0.1286418478
H  H66  1  0.60950000  0.37000000  0.29320000  1.0 0.1286418478
H  H67  1  0.39050000  0.87000000  0.20680000  1.0 0.1286418478
H  H68  1  0.89050000  0.63000000  0.79320000  1.0 0.1286418478
H  H69  1  0.70680000  0.10950000  0.13000000  1.0 0.1286418478
H  H70  1  0.29320000  0.60950000  0.37000000  1.0 0.1286418478
H  H71  1  0.20680000  0.39050000  0.87000000  1.0 0.1286418478
H  H72  1  0.79320000  0.89050000  0.63000000  1.0 0.1286418478
H  H73  1  0.80190000  0.41190000  0.73250000  1.0 0.1286418478
H  H74  1  0.69810000  0.58810000  0.23250000  1.0 0.1286418478
H  H75  1  0.19810000  0.91190000  0.76750000  1.0 0.1286418478
H  H76  1  0.30190000  0.08810000  0.26750000  1.0 0.1286418478
H  H77  1  0.73250000  0.80190000  0.41190000  1.0 0.1286418478
H  H78  1  0.23250000  0.69810000  0.58810000  1.0 0.1286418478
H  H79  1  0.76750000  0.19810000  0.91190000  1.0 0.1286418478
H  H80  1  0.26750000  0.30190000  0.08810000  1.0 0.1286418478
H  H81  1  0.41190000  0.73250000  0.80190000  1.0 0.1286418478
H  H82  1  0.58810000  0.23250000  0.69810000  1.0 0.1286418478
H  H83  1  0.91190000  0.76750000  0.19810000  1.0 0.1286418478
H  H84  1  0.08810000  0.26750000  0.30190000  1.0 0.1286418478
H  H85  1  0.19810000  0.58810000  0.26750000  1.0 0.1286418478
H  H86  1  0.30190000  0.41190000  0.76750000  1.0 0.1286418478
H  H87  1  0.80190000  0.08810000  0.23250000  1.0 0.1286418478
H  H88  1  0.69810000  0.91190000  0.73250000  1.0 0.1286418478
H  H89  1  0.26750000  0.19810000  0.58810000  1.0 0.1286418478
H  H90  1  0.76750000  0.30190000  0.41190000  1.0 0.1286418478
H  H91  1  0.23250000  0.80190000  0.08810000  1.0 0.1286418478
H  H92  1  0.73250000  0.69810000  0.91190000  1.0 0.1286418478
H  H93  1  0.58810000  0.26750000  0.19810000  1.0 0.1286418478
H  H94  1  0.41190000  0.76750000  0.30190000  1.0 0.1286418478
H  H95  1  0.08810000  0.23250000  0.80190000  1.0 0.1286418478
H  H96  1  0.91190000  0.73250000  0.69810000  1.0 0.1286418478
C  C1  1  0.76810000  0.44310000  0.82690000  1.0 -0.0878516191
C  C2  1  0.73190000  0.55690000  0.32690000  1.0 -0.0878516191
C  C3  1  0.23190000  0.94310000  0.67310000  1.0 -0.0878516191
C  C4  1  0.26810000  0.05690000  0.17310000  1.0 -0.0878516191
C  C5  1  0.82690000  0.76810000  0.44310000  1.0 -0.0878516191
C  C6  1  0.32690000  0.73190000  0.55690000  1.0 -0.0878516191
C  C7  1  0.67310000  0.23190000  0.94310000  1.0 -0.0878516191
C  C8  1  0.17310000  0.26810000  0.05690000  1.0 -0.0878516191
C  C9  1  0.44310000  0.82690000  0.76810000  1.0 -0.0878516191
C  C10  1  0.55690000  0.32690000  0.73190000  1.0 -0.0878516191
C  C11  1  0.94310000  0.67310000  0.23190000  1.0 -0.0878516191
C  C12  1  0.05690000  0.17310000  0.26810000  1.0 -0.0878516191
C  C13  1  0.23190000  0.55690000  0.17310000  1.0 -0.0878516191
C  C14  1  0.26810000  0.44310000  0.67310000  1.0 -0.0878516191
C  C15  1  0.76810000  0.05690000  0.32690000  1.0 -0.0878516191
C  C16  1  0.73190000  0.94310000  0.82690000  1.0 -0.0878516191
C  C17  1  0.17310000  0.23190000  0.55690000  1.0 -0.0878516191
C  C18  1  0.67310000  0.26810000  0.44310000  1.0 -0.0878516191
C  C19  1  0.32690000  0.76810000  0.05690000  1.0 -0.0878516191
C  C20  1  0.82690000  0.73190000  0.94310000  1.0 -0.0878516191
C  C21  1  0.55690000  0.17310000  0.23190000  1.0 -0.0878516191
C  C22  1  0.44310000  0.67310000  0.26810000  1.0 -0.0878516191
C  C23  1  0.05690000  0.32690000  0.76810000  1.0 -0.0878516191
C  C24  1  0.94310000  0.82690000  0.73190000  1.0 -0.0878516191
C  C25  1  0.77060000  0.42960000  0.89720000  1.0 -0.0878516191
C  C26  1  0.72940000  0.57040000  0.39720000  1.0 -0.0878516191
C  C27  1  0.22940000  0.92960000  0.60280000  1.0 -0.0878516191
C  C28  1  0.27060000  0.07040000  0.10280000  1.0 -0.0878516191
C  C29  1  0.89720000  0.77060000  0.42960000  1.0 -0.0878516191
C  C30  1  0.39720000  0.72940000  0.57040000  1.0 -0.0878516191
C  C31  1  0.60280000  0.22940000  0.92960000  1.0 -0.0878516191
C  C32  1  0.10280000  0.27060000  0.07040000  1.0 -0.0878516191
C  C33  1  0.42960000  0.89720000  0.77060000  1.0 -0.0878516191
C  C34  1  0.57040000  0.39720000  0.72940000  1.0 -0.0878516191
C  C35  1  0.92960000  0.60280000  0.22940000  1.0 -0.0878516191
C  C36  1  0.07040000  0.10280000  0.27060000  1.0 -0.0878516191
C  C37  1  0.22940000  0.57040000  0.10280000  1.0 -0.0878516191
C  C38  1  0.27060000  0.42960000  0.60280000  1.0 -0.0878516191
C  C39  1  0.77060000  0.07040000  0.39720000  1.0 -0.0878516191
C  C40  1  0.72940000  0.92960000  0.89720000  1.0 -0.0878516191
C  C41  1  0.10280000  0.22940000  0.57040000  1.0 -0.0878516191
C  C42  1  0.60280000  0.27060000  0.42960000  1.0 -0.0878516191
C  C43  1  0.39720000  0.77060000  0.07040000  1.0 -0.0878516191
C  C44  1  0.89720000  0.72940000  0.92960000  1.0 -0.0878516191
C  C45  1  0.57040000  0.10280000  0.22940000  1.0 -0.0878516191
C  C46  1  0.42960000  0.60280000  0.27060000  1.0 -0.0878516191
C  C47  1  0.07040000  0.39720000  0.77060000  1.0 -0.0878516191
C  C48  1  0.92960000  0.89720000  0.72940000  1.0 -0.0878516191
C  C49  1  0.80970000  0.37340000  0.92100000  1.0 -0.0459683306
C  C50  1  0.69030000  0.62660000  0.42100000  1.0 -0.0459683306
C  C51  1  0.19030000  0.87340000  0.57900000  1.0 -0.0459683306
C  C52  1  0.30970000  0.12660000  0.07900000  1.0 -0.0459683306
C  C53  1  0.92100000  0.80970000  0.37340000  1.0 -0.0459683306
C  C54  1  0.42100000  0.69030000  0.62660000  1.0 -0.0459683306
C  C55  1  0.57900000  0.19030000  0.87340000  1.0 -0.0459683306
C  C56  1  0.07900000  0.30970000  0.12660000  1.0 -0.0459683306
C  C57  1  0.37340000  0.92100000  0.80970000  1.0 -0.0459683306
C  C58  1  0.62660000  0.42100000  0.69030000  1.0 -0.0459683306
C  C59  1  0.87340000  0.57900000  0.19030000  1.0 -0.0459683306
C  C60  1  0.12660000  0.07900000  0.30970000  1.0 -0.0459683306
C  C61  1  0.19030000  0.62660000  0.07900000  1.0 -0.0459683306
C  C62  1  0.30970000  0.37340000  0.57900000  1.0 -0.0459683306
C  C63  1  0.80970000  0.12660000  0.42100000  1.0 -0.0459683306
C  C64  1  0.69030000  0.87340000  0.92100000  1.0 -0.0459683306
C  C65  1  0.07900000  0.19030000  0.62660000  1.0 -0.0459683306
C  C66  1  0.57900000  0.30970000  0.37340000  1.0 -0.0459683306
C  C67  1  0.42100000  0.80970000  0.12660000  1.0 -0.0459683306
C  C68  1  0.92100000  0.69030000  0.87340000  1.0 -0.0459683306
C  C69  1  0.62660000  0.07900000  0.19030000  1.0 -0.0459683306
C  C70  1  0.37340000  0.57900000  0.30970000  1.0 -0.0459683306
C  C71  1  0.12660000  0.42100000  0.80970000  1.0 -0.0459683306
C  C72  1  0.87340000  0.92100000  0.69030000  1.0 -0.0459683306
C  C73  1  0.84410000  0.33080000  0.87440000  1.0 -0.1082346437
C  C74  1  0.65590000  0.66920000  0.37440000  1.0 -0.1082346437
C  C75  1  0.15590000  0.83080000  0.62560000  1.0 -0.1082346437
C  C76  1  0.34410000  0.16920000  0.12560000  1.0 -0.1082346437
C  C77  1  0.87440000  0.84410000  0.33080000  1.0 -0.1082346437
C  C78  1  0.37440000  0.65590000  0.66920000  1.0 -0.1082346437
C  C79  1  0.62560000  0.15590000  0.83080000  1.0 -0.1082346437
C  C80  1  0.12560000  0.34410000  0.16920000  1.0 -0.1082346437
C  C81  1  0.33080000  0.87440000  0.84410000  1.0 -0.1082346437
C  C82  1  0.66920000  0.37440000  0.65590000  1.0 -0.1082346437
C  C83  1  0.83080000  0.62560000  0.15590000  1.0 -0.1082346437
C  C84  1  0.16920000  0.12560000  0.34410000  1.0 -0.1082346437
C  C85  1  0.15590000  0.66920000  0.12560000  1.0 -0.1082346437
C  C86  1  0.34410000  0.33080000  0.62560000  1.0 -0.1082346437
C  C87  1  0.84410000  0.16920000  0.37440000  1.0 -0.1082346437
C  C88  1  0.65590000  0.83080000  0.87440000  1.0 -0.1082346437
C  C89  1  0.12560000  0.15590000  0.66920000  1.0 -0.1082346437
C  C90  1  0.62560000  0.34410000  0.33080000  1.0 -0.1082346437
C  C91  1  0.37440000  0.84410000  0.16920000  1.0 -0.1082346437
C  C92  1  0.87440000  0.65590000  0.83080000  1.0 -0.1082346437
C  C93  1  0.66920000  0.12560000  0.15590000  1.0 -0.1082346437
C  C94  1  0.33080000  0.62560000  0.34410000  1.0 -0.1082346437
C  C95  1  0.16920000  0.37440000  0.84410000  1.0 -0.1082346437
C  C96  1  0.83080000  0.87440000  0.65590000  1.0 -0.1082346437
C  C97  1  0.83990000  0.34410000  0.80330000  1.0 -0.0439796259
C  C98  1  0.66010000  0.65590000  0.30330000  1.0 -0.0439796259
C  C99  1  0.16010000  0.84410000  0.69670000  1.0 -0.0439796259
C  C100  1  0.33990000  0.15590000  0.19670000  1.0 -0.0439796259
C  C101  1  0.80330000  0.83990000  0.34410000  1.0 -0.0439796259
C  C102  1  0.30330000  0.66010000  0.65590000  1.0 -0.0439796259
C  C103  1  0.69670000  0.16010000  0.84410000  1.0 -0.0439796259
C  C104  1  0.19670000  0.33990000  0.15590000  1.0 -0.0439796259
C  C105  1  0.34410000  0.80330000  0.83990000  1.0 -0.0439796259
C  C106  1  0.65590000  0.30330000  0.66010000  1.0 -0.0439796259
C  C107  1  0.84410000  0.69670000  0.16010000  1.0 -0.0439796259
C  C108  1  0.15590000  0.19670000  0.33990000  1.0 -0.0439796259
C  C109  1  0.16010000  0.65590000  0.19670000  1.0 -0.0439796259
C  C110  1  0.33990000  0.34410000  0.69670000  1.0 -0.0439796259
C  C111  1  0.83990000  0.15590000  0.30330000  1.0 -0.0439796259
C  C112  1  0.66010000  0.84410000  0.80330000  1.0 -0.0439796259
C  C113  1  0.19670000  0.16010000  0.65590000  1.0 -0.0439796259
C  C114  1  0.69670000  0.33990000  0.34410000  1.0 -0.0439796259
C  C115  1  0.30330000  0.83990000  0.15590000  1.0 -0.0439796259
C  C116  1  0.80330000  0.66010000  0.84410000  1.0 -0.0439796259
C  C117  1  0.65590000  0.19670000  0.16010000  1.0 -0.0439796259
C  C118  1  0.34410000  0.69670000  0.33990000  1.0 -0.0439796259
C  C119  1  0.15590000  0.30330000  0.83990000  1.0 -0.0439796259
C  C120  1  0.84410000  0.80330000  0.66010000  1.0 -0.0439796259
C  C121  1  0.80310000  0.40150000  0.77980000  1.0 -0.0878516191
C  C122  1  0.69690000  0.59850000  0.27980000  1.0 -0.0878516191
C  C123  1  0.19690000  0.90150000  0.72020000  1.0 -0.0878516191
C  C124  1  0.30310000  0.09850000  0.22020000  1.0 -0.0878516191
C  C125  1  0.77980000  0.80310000  0.40150000  1.0 -0.0878516191
C  C126  1  0.27980000  0.69690000  0.59850000  1.0 -0.0878516191
C  C127  1  0.72020000  0.19690000  0.90150000  1.0 -0.0878516191
C  C128  1  0.22020000  0.30310000  0.09850000  1.0 -0.0878516191
C  C129  1  0.40150000  0.77980000  0.80310000  1.0 -0.0878516191
C  C130  1  0.59850000  0.27980000  0.69690000  1.0 -0.0878516191
C  C131  1  0.90150000  0.72020000  0.19690000  1.0 -0.0878516191
C  C132  1  0.09850000  0.22020000  0.30310000  1.0 -0.0878516191
C  C133  1  0.19690000  0.59850000  0.22020000  1.0 -0.0878516191
C  C134  1  0.30310000  0.40150000  0.72020000  1.0 -0.0878516191
C  C135  1  0.80310000  0.09850000  0.27980000  1.0 -0.0878516191
C  C136  1  0.69690000  0.90150000  0.77980000  1.0 -0.0878516191
C  C137  1  0.22020000  0.19690000  0.59850000  1.0 -0.0878516191
C  C138  1  0.72020000  0.30310000  0.40150000  1.0 -0.0878516191
C  C139  1  0.27980000  0.80310000  0.09850000  1.0 -0.0878516191
C  C140  1  0.77980000  0.69690000  0.90150000  1.0 -0.0878516191
C  C141  1  0.59850000  0.22020000  0.19690000  1.0 -0.0878516191
C  C142  1  0.40150000  0.72020000  0.30310000  1.0 -0.0878516191
C  C143  1  0.09850000  0.27980000  0.80310000  1.0 -0.0878516191
C  C144  1  0.90150000  0.77980000  0.69690000  1.0 -0.0878516191
C  C145  1  0.81170000  0.35700000  0.99710000  1.0 0.5885625658
C  C146  1  0.68830000  0.64300000  0.49710000  1.0 0.5885625658
C  C147  1  0.18830000  0.85700000  0.50290000  1.0 0.5885625658
C  C148  1  0.31170000  0.14300000  0.00290000  1.0 0.5885625658
C  C149  1  0.99710000  0.81170000  0.35700000  1.0 0.5885625658
C  C150  1  0.49710000  0.68830000  0.64300000  1.0 0.5885625658
C  C151  1  0.50290000  0.18830000  0.85700000  1.0 0.5885625658
C  C152  1  0.00290000  0.31170000  0.14300000  1.0 0.5885625658
C  C153  1  0.35700000  0.99710000  0.81170000  1.0 0.5885625658
C  C154  1  0.64300000  0.49710000  0.68830000  1.0 0.5885625658
C  C155  1  0.85700000  0.50290000  0.18830000  1.0 0.5885625658
C  C156  1  0.14300000  0.00290000  0.31170000  1.0 0.5885625658
C  C157  1  0.18830000  0.64300000  0.00290000  1.0 0.5885625658
C  C158  1  0.31170000  0.35700000  0.50290000  1.0 0.5885625658
C  C159  1  0.81170000  0.14300000  0.49710000  1.0 0.5885625658
C  C160  1  0.68830000  0.85700000  0.99710000  1.0 0.5885625658
C  C161  1  0.00290000  0.18830000  0.64300000  1.0 0.5885625658
C  C162  1  0.50290000  0.31170000  0.35700000  1.0 0.5885625658
C  C163  1  0.49710000  0.81170000  0.14300000  1.0 0.5885625658
C  C164  1  0.99710000  0.68830000  0.85700000  1.0 0.5885625658
C  C165  1  0.64300000  0.00290000  0.18830000  1.0 0.5885625658
C  C166  1  0.35700000  0.50290000  0.31170000  1.0 0.5885625658
C  C167  1  0.14300000  0.49710000  0.81170000  1.0 0.5885625658
C  C168  1  0.85700000  0.99710000  0.68830000  1.0 0.5885625658
C  C169  1  0.87100000  0.29380000  0.75330000  1.0 0.565067433
C  C170  1  0.62900000  0.70620000  0.25330000  1.0 0.565067433
C  C171  1  0.12900000  0.79380000  0.74670000  1.0 0.565067433
C  C172  1  0.37100000  0.20620000  0.24670000  1.0 0.565067433
C  C173  1  0.75330000  0.87100000  0.29380000  1.0 0.565067433
C  C174  1  0.25330000  0.62900000  0.70620000  1.0 0.565067433
C  C175  1  0.74670000  0.12900000  0.79380000  1.0 0.565067433
C  C176  1  0.24670000  0.37100000  0.20620000  1.0 0.565067433
C  C177  1  0.29380000  0.75330000  0.87100000  1.0 0.565067433
C  C178  1  0.70620000  0.25330000  0.62900000  1.0 0.565067433
C  C179  1  0.79380000  0.74670000  0.12900000  1.0 0.565067433
C  C180  1  0.20620000  0.24670000  0.37100000  1.0 0.565067433
C  C181  1  0.12900000  0.70620000  0.24670000  1.0 0.565067433
C  C182  1  0.37100000  0.29380000  0.74670000  1.0 0.565067433
C  C183  1  0.87100000  0.20620000  0.25330000  1.0 0.565067433
C  C184  1  0.62900000  0.79380000  0.75330000  1.0 0.565067433
C  C185  1  0.24670000  0.12900000  0.70620000  1.0 0.565067433
C  C186  1  0.74670000  0.37100000  0.29380000  1.0 0.565067433
C  C187  1  0.25330000  0.87100000  0.20620000  1.0 0.565067433
C  C188  1  0.75330000  0.62900000  0.79380000  1.0 0.565067433
C  C189  1  0.70620000  0.24670000  0.12900000  1.0 0.565067433
C  C190  1  0.29380000  0.74670000  0.37100000  1.0 0.565067433
C  C191  1  0.20620000  0.25330000  0.87100000  1.0 0.565067433
C  C192  1  0.79380000  0.75330000  0.62900000  1.0 0.565067433
O  O1  1  0.84928000  0.30658000  0.01617000  1.0 -0.5210847703
O  O2  1  0.65072000  0.69342000  0.51617000  1.0 -0.5210847703
O  O3  1  0.15072000  0.80658000  0.48383000  1.0 -0.5210847703
O  O4  1  0.34928000  0.19342000  0.98383000  1.0 -0.5210847703
O  O5  1  0.01617000  0.84928000  0.30658000  1.0 -0.5210847703
O  O6  1  0.51617000  0.65072000  0.69342000  1.0 -0.5210847703
O  O7  1  0.48383000  0.15072000  0.80658000  1.0 -0.5210847703
O  O8  1  0.98383000  0.34928000  0.19342000  1.0 -0.5210847703
O  O9  1  0.30658000  0.01617000  0.84928000  1.0 -0.5210847703
O  O10  1  0.69342000  0.51617000  0.65072000  1.0 -0.5210847703
O  O11  1  0.80658000  0.48383000  0.15072000  1.0 -0.5210847703
O  O12  1  0.19342000  0.98383000  0.34928000  1.0 -0.5210847703
O  O13  1  0.15072000  0.69342000  0.98383000  1.0 -0.5210847703
O  O14  1  0.34928000  0.30658000  0.48383000  1.0 -0.5210847703
O  O15  1  0.84928000  0.19342000  0.51617000  1.0 -0.5210847703
O  O16  1  0.65072000  0.80658000  0.01617000  1.0 -0.5210847703
O  O17  1  0.98383000  0.15072000  0.69342000  1.0 -0.5210847703
O  O18  1  0.48383000  0.34928000  0.30658000  1.0 -0.5210847703
O  O19  1  0.51617000  0.84928000  0.19342000  1.0 -0.5210847703
O  O20  1  0.01617000  0.65072000  0.80658000  1.0 -0.5210847703
O  O21  1  0.69342000  0.98383000  0.15072000  1.0 -0.5210847703
O  O22  1  0.30658000  0.48383000  0.34928000  1.0 -0.5210847703
O  O23  1  0.19342000  0.51617000  0.84928000  1.0 -0.5210847703
O  O24  1  0.80658000  0.01617000  0.65072000  1.0 -0.5210847703
O  O25  1  0.88563000  0.17178000  0.04673000  1.0 -0.1321059879
O  O26  1  0.61437000  0.82822000  0.54673000  1.0 -0.1321059879
O  O27  1  0.11437000  0.67178000  0.45327000  1.0 -0.1321059879
O  O28  1  0.38563000  0.32822000  0.95327000  1.0 -0.1321059879
O  O29  1  0.04673000  0.88563000  0.17178000  1.0 -0.1321059879
O  O30  1  0.54673000  0.61437000  0.82822000  1.0 -0.1321059879
O  O31  1  0.45327000  0.11437000  0.67178000  1.0 -0.1321059879
O  O32  1  0.95327000  0.38563000  0.32822000  1.0 -0.1321059879
O  O33  1  0.17178000  0.04673000  0.88563000  1.0 -0.1321059879
O  O34  1  0.82822000  0.54673000  0.61437000  1.0 -0.1321059879
O  O35  1  0.67178000  0.45327000  0.11437000  1.0 -0.1321059879
O  O36  1  0.32822000  0.95327000  0.38563000  1.0 -0.1321059879
O  O37  1  0.11437000  0.82822000  0.95327000  1.0 -0.1321059879
O  O38  1  0.38563000  0.17178000  0.45327000  1.0 -0.1321059879
O  O39  1  0.88563000  0.32822000  0.54673000  1.0 -0.1321059879
O  O40  1  0.61437000  0.67178000  0.04673000  1.0 -0.1321059879
O  O41  1  0.95327000  0.11437000  0.82822000  1.0 -0.1321059879
O  O42  1  0.45327000  0.38563000  0.17178000  1.0 -0.1321059879
O  O43  1  0.54673000  0.88563000  0.32822000  1.0 -0.1321059879
O  O44  1  0.04673000  0.61437000  0.67178000  1.0 -0.1321059879
O  O45  1  0.82822000  0.95327000  0.11437000  1.0 -0.1321059879
O  O46  1  0.17178000  0.45327000  0.38563000  1.0 -0.1321059879
O  O47  1  0.32822000  0.54673000  0.88563000  1.0 -0.1321059879
O  O48  1  0.67178000  0.04673000  0.61437000  1.0 -0.1321059879
O  O49  1  0.77604000  0.39451000  0.03761000  1.0 -0.5210847703
O  O50  1  0.72396000  0.60549000  0.53761000  1.0 -0.5210847703
O  O51  1  0.22396000  0.89451000  0.46239000  1.0 -0.5210847703
O  O52  1  0.27604000  0.10549000  0.96239000  1.0 -0.5210847703
O  O53  1  0.03761000  0.77604000  0.39451000  1.0 -0.5210847703
O  O54  1  0.53761000  0.72396000  0.60549000  1.0 -0.5210847703
O  O55  1  0.46239000  0.22396000  0.89451000  1.0 -0.5210847703
O  O56  1  0.96239000  0.27604000  0.10549000  1.0 -0.5210847703
O  O57  1  0.39451000  0.03761000  0.77604000  1.0 -0.5210847703
O  O58  1  0.60549000  0.53761000  0.72396000  1.0 -0.5210847703
O  O59  1  0.89451000  0.46239000  0.22396000  1.0 -0.5210847703
O  O60  1  0.10549000  0.96239000  0.27604000  1.0 -0.5210847703
O  O61  1  0.22396000  0.60549000  0.96239000  1.0 -0.5210847703
O  O62  1  0.27604000  0.39451000  0.46239000  1.0 -0.5210847703
O  O63  1  0.77604000  0.10549000  0.53761000  1.0 -0.5210847703
O  O64  1  0.72396000  0.89451000  0.03761000  1.0 -0.5210847703
O  O65  1  0.96239000  0.22396000  0.60549000  1.0 -0.5210847703
O  O66  1  0.46239000  0.27604000  0.39451000  1.0 -0.5210847703
O  O67  1  0.53761000  0.77604000  0.10549000  1.0 -0.5210847703
O  O68  1  0.03761000  0.72396000  0.89451000  1.0 -0.5210847703
O  O69  1  0.60549000  0.96239000  0.22396000  1.0 -0.5210847703
O  O70  1  0.39451000  0.46239000  0.27604000  1.0 -0.5210847703
O  O71  1  0.10549000  0.53761000  0.77604000  1.0 -0.5210847703
O  O72  1  0.89451000  0.03761000  0.72396000  1.0 -0.5210847703
O  O73  1  0.86700000  0.30826000  0.68933000  1.0 -0.5113899892
O  O74  1  0.63300000  0.69174000  0.18933000  1.0 -0.5113899892
O  O75  1  0.13300000  0.80826000  0.81067000  1.0 -0.5113899892
O  O76  1  0.36700000  0.19174000  0.31067000  1.0 -0.5113899892
O  O77  1  0.68933000  0.86700000  0.30826000  1.0 -0.5113899892
O  O78  1  0.18933000  0.63300000  0.69174000  1.0 -0.5113899892
O  O79  1  0.81067000  0.13300000  0.80826000  1.0 -0.5113899892
O  O80  1  0.31067000  0.36700000  0.19174000  1.0 -0.5113899892
O  O81  1  0.30826000  0.68933000  0.86700000  1.0 -0.5113899892
O  O82  1  0.69174000  0.18933000  0.63300000  1.0 -0.5113899892
O  O83  1  0.80826000  0.81067000  0.13300000  1.0 -0.5113899892
O  O84  1  0.19174000  0.31067000  0.36700000  1.0 -0.5113899892
O  O85  1  0.13300000  0.69174000  0.31067000  1.0 -0.5113899892
O  O86  1  0.36700000  0.30826000  0.81067000  1.0 -0.5113899892
O  O87  1  0.86700000  0.19174000  0.18933000  1.0 -0.5113899892
O  O88  1  0.63300000  0.80826000  0.68933000  1.0 -0.5113899892
O  O89  1  0.31067000  0.13300000  0.69174000  1.0 -0.5113899892
O  O90  1  0.81067000  0.36700000  0.30826000  1.0 -0.5113899892
O  O91  1  0.18933000  0.86700000  0.19174000  1.0 -0.5113899892
O  O92  1  0.68933000  0.63300000  0.80826000  1.0 -0.5113899892
O  O93  1  0.69174000  0.31067000  0.13300000  1.0 -0.5113899892
O  O94  1  0.30826000  0.81067000  0.36700000  1.0 -0.5113899892
O  O95  1  0.19174000  0.18933000  0.86700000  1.0 -0.5113899892
O  O96  1  0.80826000  0.68933000  0.63300000  1.0 -0.5113899892
O  O97  1  0.89845000  0.23927000  0.77714000  1.0 -0.5113899892
O  O98  1  0.60155000  0.76073000  0.27714000  1.0 -0.5113899892
O  O99  1  0.10155000  0.73927000  0.72286000  1.0 -0.5113899892
O  O100  1  0.39845000  0.26073000  0.22286000  1.0 -0.5113899892
O  O101  1  0.77714000  0.89845000  0.23927000  1.0 -0.5113899892
O  O102  1  0.27714000  0.60155000  0.76073000  1.0 -0.5113899892
O  O103  1  0.72286000  0.10155000  0.73927000  1.0 -0.5113899892
O  O104  1  0.22286000  0.39845000  0.26073000  1.0 -0.5113899892
O  O105  1  0.23927000  0.77714000  0.89845000  1.0 -0.5113899892
O  O106  1  0.76073000  0.27714000  0.60155000  1.0 -0.5113899892
O  O107  1  0.73927000  0.72286000  0.10155000  1.0 -0.5113899892
O  O108  1  0.26073000  0.22286000  0.39845000  1.0 -0.5113899892
O  O109  1  0.10155000  0.76073000  0.22286000  1.0 -0.5113899892
O  O110  1  0.39845000  0.23927000  0.72286000  1.0 -0.5113899892
O  O111  1  0.89845000  0.26073000  0.27714000  1.0 -0.5113899892
O  O112  1  0.60155000  0.73927000  0.77714000  1.0 -0.5113899892
O  O113  1  0.22286000  0.10155000  0.76073000  1.0 -0.5113899892
O  O114  1  0.72286000  0.39845000  0.23927000  1.0 -0.5113899892
O  O115  1  0.27714000  0.89845000  0.26073000  1.0 -0.5113899892
O  O116  1  0.77714000  0.60155000  0.73927000  1.0 -0.5113899892
O  O117  1  0.76073000  0.22286000  0.10155000  1.0 -0.5113899892
O  O118  1  0.23927000  0.72286000  0.39845000  1.0 -0.5113899892
O  O119  1  0.26073000  0.27714000  0.89845000  1.0 -0.5113899892
O  O120  1  0.73927000  0.77714000  0.60155000  1.0 -0.5113899892
O  O121  1  0.83642000  0.33642000  0.16358000  1.0 -0.9083729309
O  O122  1  0.66358000  0.66358000  0.66358000  1.0 -0.9083729309
O  O123  1  0.16358000  0.83642000  0.33642000  1.0 -0.9083729309
O  O124  1  0.33642000  0.16358000  0.83642000  1.0 -0.9083729309
O  O125  1  0.16358000  0.66358000  0.83642000  1.0 -0.9083729309
O  O126  1  0.33642000  0.33642000  0.33642000  1.0 -0.9083729309
O  O127  1  0.83642000  0.16358000  0.66358000  1.0 -0.9083729309
O  O128  1  0.66358000  0.83642000  0.16358000  1.0 -0.9083729309
