# DDEC6 charges by PACMAN v1.1 (https://github.com/mtap-research/PACMAN-charge/)
data_IHIMAP01_ASR_pacman
_symmetry_space_group_name_H-M   'P 1'
_cell_length_a   7.97900000
_cell_length_b   12.09500000
_cell_length_c   12.29700000
_cell_angle_alpha   111.68100000
_cell_angle_beta   89.93200000
_cell_angle_gamma   100.15800000
_symmetry_Int_Tables_number   1
_chemical_formula_structural   LaH4(CO)6
_chemical_formula_sum   'La4 H16 C24 O24'
_cell_volume   1082.83533224
_cell_formula_units_Z   4
loop_
 _symmetry_equiv_pos_site_id
 _symmetry_equiv_pos_as_xyz
  1  'x, y, z'
loop_
 _atom_site_type_symbol
 _atom_site_label
 _atom_site_symmetry_multiplicity
 _atom_site_fract_x
 _atom_site_fract_y
 _atom_site_fract_z
 _atom_site_occupancy
 _atom_site_charge
La  La1  1  0.99062000  0.64541000  0.35392000  1.0 1.856592215
La  La2  1  0.00938000  0.35459000  0.64608000  1.0 1.856592215
La  La3  1  0.49033000  0.64508000  0.25104000  1.0 1.8549887308
La  La4  1  0.50967000  0.35492000  0.74896000  1.0 1.8549887308
H  H1  1  0.73900000  0.27760000  0.14370000  1.0 0.1314603665
H  H2  1  0.26100000  0.72240000  0.85630000  1.0 0.1314603665
H  H3  1  0.63440000  0.25140000  0.02620000  1.0 0.1314603665
H  H4  1  0.36560000  0.74860000  0.97380000  1.0 0.1314603665
H  H5  1  0.96250000  0.40250000  0.08390000  1.0 0.1314603665
H  H6  1  0.03750000  0.59750000  0.91610000  1.0 0.1314603665
H  H7  1  0.93940000  0.26360000  0.00930000  1.0 0.1314603665
H  H8  1  0.06060000  0.73640000  0.99070000  1.0 0.1314603665
H  H9  1  0.28610000  0.02710000  0.32290000  1.0 0.139921384
H  H10  1  0.71390000  0.97290000  0.67710000  1.0 0.139921384
H  H11  1  0.12220000  0.94920000  0.34740000  1.0 0.139921384
H  H12  1  0.87780000  0.05080000  0.65260000  1.0 0.139921384
H  H13  1  0.40410000  0.07840000  0.50800000  1.0 0.1314603665
H  H14  1  0.59590000  0.92160000  0.49200000  1.0 0.1314603665
H  H15  1  0.26180000  0.98520000  0.53270000  1.0 0.139921384
H  H16  1  0.73820000  0.01480000  0.46730000  1.0 0.139921384
C  C1  1  0.64610000  0.42430000  0.14350000  1.0 0.6530701885
C  C2  1  0.35390000  0.57570000  0.85650000  1.0 0.6530701885
C  C3  1  0.71810000  0.31100000  0.08550000  1.0 -0.2755718758
C  C4  1  0.28190000  0.68900000  0.91450000  1.0 -0.2755718758
C  C5  1  0.88570000  0.33370000  0.02770000  1.0 -0.288449221
C  C6  1  0.11430000  0.66630000  0.97230000  1.0 -0.288449221
C  C7  1  0.86310000  0.35810000  0.91720000  1.0 0.6646206745
C  C8  1  0.13690000  0.64190000  0.08280000  1.0 0.6646206745
C  C9  1  0.14360000  0.42350000  0.30190000  1.0 0.581735886
C  C10  1  0.85640000  0.57650000  0.69810000  1.0 0.581735886
C  C11  1  0.21600000  0.30790000  0.27550000  1.0 0.0208141723
C  C12  1  0.78400000  0.69210000  0.72450000  1.0 0.0208141723
C  C13  1  0.38410000  0.33030000  0.34880000  1.0 0.0059075182
C  C14  1  0.61590000  0.66970000  0.65120000  1.0 0.0059075182
C  C15  1  0.36520000  0.36060000  0.47810000  1.0 0.6023721764
C  C16  1  0.63480000  0.63940000  0.52190000  1.0 0.6023721764
C  C17  1  0.32590000  0.86530000  0.32080000  1.0 0.6318909296
C  C18  1  0.67410000  0.13470000  0.67920000  1.0 0.6318909296
C  C19  1  0.24490000  0.97410000  0.36410000  1.0 -0.2979623905
C  C20  1  0.75510000  0.02590000  0.63590000  1.0 -0.2979623905
C  C21  1  0.28360000  0.04220000  0.49350000  1.0 -0.2979623905
C  C22  1  0.71640000  0.95780000  0.50650000  1.0 -0.2979623905
C  C23  1  0.18090000  0.14100000  0.54710000  1.0 0.6442095408
C  C24  1  0.81910000  0.85900000  0.45290000  1.0 0.6442095408
O  O1  1  0.73650000  0.51570000  0.21740000  1.0 -0.6307431093
O  O2  1  0.26350000  0.48430000  0.78260000  1.0 -0.6307431093
O  O3  1  0.49240000  0.42460000  0.11910000  1.0 -0.5948598316
O  O4  1  0.50760000  0.57540000  0.88090000  1.0 -0.5948598316
O  O5  1  0.23340000  0.51540000  0.29380000  1.0 -0.6307431093
O  O6  1  0.76660000  0.48460000  0.70620000  1.0 -0.6307431093
O  O7  1  0.99190000  0.42600000  0.32720000  1.0 -0.5764701894
O  O8  1  0.00810000  0.57400000  0.67280000  1.0 -0.5764701894
O  O9  1  0.27220000  0.77960000  0.35670000  1.0 -0.6808086565
O  O10  1  0.72780000  0.22040000  0.64330000  1.0 -0.6808086565
O  O11  1  0.44580000  0.85780000  0.25690000  1.0 -0.5571553341
O  O12  1  0.55420000  0.14220000  0.74310000  1.0 -0.5571553341
O  O13  1  0.73180000  0.39350000  0.90320000  1.0 -0.5948598316
O  O14  1  0.26820000  0.60650000  0.09680000  1.0 -0.5948598316
O  O15  1  0.98520000  0.34570000  0.85000000  1.0 -0.647409164
O  O16  1  0.01480000  0.65430000  0.15000000  1.0 -0.647409164
O  O17  1  0.23070000  0.21960000  0.64990000  1.0 -0.6866924694
O  O18  1  0.76930000  0.78040000  0.35010000  1.0 -0.6866924694
O  O19  1  0.05360000  0.14650000  0.49380000  1.0 -0.5549097291
O  O20  1  0.94640000  0.85350000  0.50620000  1.0 -0.5549097291
O  O21  1  0.48700000  0.34910000  0.53770000  1.0 -0.6393353572
O  O22  1  0.51300000  0.65090000  0.46230000  1.0 -0.6393353572
O  O23  1  0.23170000  0.39720000  0.52020000  1.0 -0.6393353572
O  O24  1  0.76830000  0.60280000  0.47980000  1.0 -0.6393353572
