# DDEC6 charges by PACMAN v1.1 (https://github.com/mtap-research/PACMAN-charge/)
data_IHUSOW_ASR_pacman
_symmetry_space_group_name_H-M   'P 1'
_cell_length_a   18.49310000
_cell_length_b   21.03460000
_cell_length_c   22.76840000
_cell_angle_alpha   90.00000000
_cell_angle_beta   90.00000000
_cell_angle_gamma   90.00000000
_symmetry_Int_Tables_number   1
_chemical_formula_structural   Sc2HC24(O7F8)2
_chemical_formula_sum   'Sc16 H8 C192 O112 F128'
_cell_volume   8856.79287595
_cell_formula_units_Z   8
loop_
 _symmetry_equiv_pos_site_id
 _symmetry_equiv_pos_as_xyz
  1  'x, y, z'
loop_
 _atom_site_type_symbol
 _atom_site_label
 _atom_site_symmetry_multiplicity
 _atom_site_fract_x
 _atom_site_fract_y
 _atom_site_fract_z
 _atom_site_occupancy
 _atom_site_charge
Sc  Sc1  1  0.17912000  0.21817000  0.98172000  1.0 1.8131495463
Sc  Sc2  1  0.36014000  0.26041000  0.92834000  1.0 1.7883886146
Sc  Sc3  1  0.32088000  0.78183000  0.98172000  1.0 1.8131495463
Sc  Sc4  1  0.13986000  0.73959000  0.92834000  1.0 1.7883886146
Sc  Sc5  1  0.32088000  0.71817000  0.48172000  1.0 1.8131495463
Sc  Sc6  1  0.13986000  0.76041000  0.42834000  1.0 1.7883886146
Sc  Sc7  1  0.17912000  0.28183000  0.48172000  1.0 1.8131495463
Sc  Sc8  1  0.36014000  0.23959000  0.42834000  1.0 1.7883886146
Sc  Sc9  1  0.67912000  0.28183000  0.51828000  1.0 1.8131495463
Sc  Sc10  1  0.86014000  0.23959000  0.57166000  1.0 1.7883886146
Sc  Sc11  1  0.82088000  0.71817000  0.51828000  1.0 1.8131495463
Sc  Sc12  1  0.63986000  0.76041000  0.57166000  1.0 1.7883886146
Sc  Sc13  1  0.82088000  0.78183000  0.01828000  1.0 1.8131495463
Sc  Sc14  1  0.63986000  0.73959000  0.07166000  1.0 1.7883886146
Sc  Sc15  1  0.67912000  0.21817000  0.01828000  1.0 1.8131495463
Sc  Sc16  1  0.86014000  0.26041000  0.07166000  1.0 1.7883886146
H  H1  1  0.28400000  0.28790000  0.01710000  1.0 0.4119466441
H  H2  1  0.21600000  0.71210000  0.01710000  1.0 0.4119466441
H  H3  1  0.21600000  0.78790000  0.51710000  1.0 0.4119466441
H  H4  1  0.28400000  0.21210000  0.51710000  1.0 0.4119466441
H  H5  1  0.78400000  0.21210000  0.48290000  1.0 0.4119466441
H  H6  1  0.71600000  0.78790000  0.48290000  1.0 0.4119466441
H  H7  1  0.71600000  0.71210000  0.98290000  1.0 0.4119466441
H  H8  1  0.78400000  0.28790000  0.98290000  1.0 0.4119466441
C  C1  1  0.07940000  0.34177000  0.98200000  1.0 0.6399391638
C  C2  1  0.09523000  0.41220000  0.98750000  1.0 -0.2098526536
C  C3  1  0.13326000  0.44429000  0.94451000  1.0 0.1280005696
C  C4  1  0.14480000  0.50887000  0.94763000  1.0 0.1475430774
C  C5  1  0.11970000  0.54446000  0.99476000  1.0 -0.2098526536
C  C6  1  0.08313000  0.51186000  0.03845000  1.0 0.1383654727
C  C7  1  0.07062000  0.44726000  0.03477000  1.0 0.1280005696
C  C8  1  0.13141000  0.61561000  0.99821000  1.0 0.6560720401
C  C9  1  0.04960000  0.11817000  0.97644000  1.0 0.6133250045
C  C10  1  0.09061000  0.05623000  0.96863000  1.0 -0.3065159125
C  C11  1  0.10380000  0.03227000  0.91392000  1.0 0.0783724836
C  C12  1  0.13950000  0.97540000  0.90587000  1.0 0.0783724836
C  C13  1  0.16640000  0.94131000  0.95237000  1.0 -0.2997938832
C  C14  1  0.15546000  0.96670000  0.00728000  1.0 0.1192599841
C  C15  1  0.11682000  0.02242000  0.01499000  1.0 0.1089062504
C  C16  1  0.20059000  0.87695000  0.94423000  1.0 0.6560720401
C  C17  1  0.12824000  0.21164000  0.10825000  1.0 0.4883300113
C  C18  1  0.15175000  0.21695000  0.17206000  1.0 -0.2313673971
C  C19  1  0.18114000  0.16587000  0.20200000  1.0 0.1664048629
C  C20  1  0.20109000  0.17054000  0.26030000  1.0 0.1576039236
C  C21  1  0.19320000  0.22735000  0.29080000  1.0 -0.2098526536
C  C22  1  0.16382000  0.27837000  0.26086000  1.0 0.1576039236
C  C23  1  0.14332000  0.27299000  0.20268000  1.0 0.1576039236
C  C24  1  0.22125000  0.23551000  0.35259000  1.0 0.6940963017
C  C25  1  0.42060000  0.65823000  0.98200000  1.0 0.6399391638
C  C26  1  0.40477000  0.58780000  0.98750000  1.0 -0.2098526536
C  C27  1  0.36674000  0.55571000  0.94451000  1.0 0.1280005696
C  C28  1  0.35520000  0.49113000  0.94763000  1.0 0.1475430774
C  C29  1  0.38030000  0.45554000  0.99476000  1.0 -0.2098526536
C  C30  1  0.41687000  0.48814000  0.03845000  1.0 0.1383654727
C  C31  1  0.42938000  0.55274000  0.03477000  1.0 0.1280005696
C  C32  1  0.36859000  0.38439000  0.99821000  1.0 0.6560720401
C  C33  1  0.45040000  0.88183000  0.97644000  1.0 0.6133250045
C  C34  1  0.40939000  0.94377000  0.96863000  1.0 -0.3065159125
C  C35  1  0.39620000  0.96773000  0.91392000  1.0 0.0783724836
C  C36  1  0.36050000  0.02460000  0.90587000  1.0 0.0783724836
C  C37  1  0.33360000  0.05869000  0.95237000  1.0 -0.2997938832
C  C38  1  0.34454000  0.03330000  0.00728000  1.0 0.1192599841
C  C39  1  0.38318000  0.97758000  0.01499000  1.0 0.1089062504
C  C40  1  0.29941000  0.12305000  0.94423000  1.0 0.6560720401
C  C41  1  0.37176000  0.78836000  0.10825000  1.0 0.4883300113
C  C42  1  0.34825000  0.78305000  0.17206000  1.0 -0.2313673971
C  C43  1  0.31886000  0.83413000  0.20200000  1.0 0.1664048629
C  C44  1  0.29891000  0.82946000  0.26030000  1.0 0.1576039236
C  C45  1  0.30680000  0.77265000  0.29080000  1.0 -0.2098526536
C  C46  1  0.33618000  0.72163000  0.26086000  1.0 0.1576039236
C  C47  1  0.35668000  0.72701000  0.20268000  1.0 0.1576039236
C  C48  1  0.27875000  0.76449000  0.35259000  1.0 0.6940963017
C  C49  1  0.42060000  0.84177000  0.48200000  1.0 0.6399391638
C  C50  1  0.40477000  0.91220000  0.48750000  1.0 -0.2098526536
C  C51  1  0.36674000  0.94429000  0.44451000  1.0 0.1280005696
C  C52  1  0.35520000  0.00887000  0.44763000  1.0 0.1475430774
C  C53  1  0.38030000  0.04446000  0.49476000  1.0 -0.2098526536
C  C54  1  0.41687000  0.01186000  0.53845000  1.0 0.1383654727
C  C55  1  0.42938000  0.94726000  0.53477000  1.0 0.1280005696
C  C56  1  0.36859000  0.11561000  0.49821000  1.0 0.6560720401
C  C57  1  0.45040000  0.61817000  0.47644000  1.0 0.6133250045
C  C58  1  0.40939000  0.55623000  0.46863000  1.0 -0.3065159125
C  C59  1  0.39620000  0.53227000  0.41392000  1.0 0.0783724836
C  C60  1  0.36050000  0.47540000  0.40587000  1.0 0.0783724836
C  C61  1  0.33360000  0.44131000  0.45237000  1.0 -0.2997938832
C  C62  1  0.34454000  0.46670000  0.50728000  1.0 0.1192599841
C  C63  1  0.38318000  0.52242000  0.51499000  1.0 0.1089062504
C  C64  1  0.29941000  0.37695000  0.44423000  1.0 0.6560720401
C  C65  1  0.37176000  0.71164000  0.60825000  1.0 0.4883300113
C  C66  1  0.34825000  0.71695000  0.67206000  1.0 -0.2313673971
C  C67  1  0.31886000  0.66587000  0.70200000  1.0 0.1664048629
C  C68  1  0.29891000  0.67054000  0.76030000  1.0 0.1576039236
C  C69  1  0.30680000  0.72735000  0.79080000  1.0 -0.2098526536
C  C70  1  0.33618000  0.77837000  0.76086000  1.0 0.1576039236
C  C71  1  0.35668000  0.77299000  0.70268000  1.0 0.1576039236
C  C72  1  0.27875000  0.73551000  0.85259000  1.0 0.6940963017
C  C73  1  0.07940000  0.15823000  0.48200000  1.0 0.6399391638
C  C74  1  0.09523000  0.08780000  0.48750000  1.0 -0.2098526536
C  C75  1  0.13326000  0.05571000  0.44451000  1.0 0.1280005696
C  C76  1  0.14480000  0.99113000  0.44763000  1.0 0.1475430774
C  C77  1  0.11970000  0.95554000  0.49476000  1.0 -0.2098526536
C  C78  1  0.08313000  0.98814000  0.53845000  1.0 0.1383654727
C  C79  1  0.07062000  0.05274000  0.53477000  1.0 0.1280005696
C  C80  1  0.13141000  0.88439000  0.49821000  1.0 0.6560720401
C  C81  1  0.04960000  0.38183000  0.47644000  1.0 0.6133250045
C  C82  1  0.09061000  0.44377000  0.46863000  1.0 -0.3065159125
C  C83  1  0.10380000  0.46773000  0.41392000  1.0 0.0783724836
C  C84  1  0.13950000  0.52460000  0.40587000  1.0 0.0783724836
C  C85  1  0.16640000  0.55869000  0.45237000  1.0 -0.2997938832
C  C86  1  0.15546000  0.53330000  0.50728000  1.0 0.1192599841
C  C87  1  0.11682000  0.47758000  0.51499000  1.0 0.1089062504
C  C88  1  0.20059000  0.62305000  0.44423000  1.0 0.6560720401
C  C89  1  0.12824000  0.28836000  0.60825000  1.0 0.4883300113
C  C90  1  0.15175000  0.28305000  0.67206000  1.0 -0.2313673971
C  C91  1  0.18114000  0.33413000  0.70200000  1.0 0.1664048629
C  C92  1  0.20109000  0.32946000  0.76030000  1.0 0.1576039236
C  C93  1  0.19320000  0.27265000  0.79080000  1.0 -0.2098526536
C  C94  1  0.16382000  0.22163000  0.76086000  1.0 0.1576039236
C  C95  1  0.14332000  0.22701000  0.70268000  1.0 0.1576039236
C  C96  1  0.22125000  0.26449000  0.85259000  1.0 0.6940963017
C  C97  1  0.57940000  0.15823000  0.51800000  1.0 0.6399391638
C  C98  1  0.59523000  0.08780000  0.51250000  1.0 -0.2098526536
C  C99  1  0.63326000  0.05571000  0.55549000  1.0 0.1280005696
C  C100  1  0.64480000  0.99113000  0.55237000  1.0 0.1475430774
C  C101  1  0.61970000  0.95554000  0.50524000  1.0 -0.2098526536
C  C102  1  0.58313000  0.98814000  0.46155000  1.0 0.1383654727
C  C103  1  0.57062000  0.05274000  0.46523000  1.0 0.1280005696
C  C104  1  0.63141000  0.88439000  0.50179000  1.0 0.6560720401
C  C105  1  0.54960000  0.38183000  0.52356000  1.0 0.6133250045
C  C106  1  0.59061000  0.44377000  0.53137000  1.0 -0.3065159125
C  C107  1  0.60380000  0.46773000  0.58608000  1.0 0.0783724836
C  C108  1  0.63950000  0.52460000  0.59413000  1.0 0.0783724836
C  C109  1  0.66640000  0.55869000  0.54763000  1.0 -0.2997938832
C  C110  1  0.65546000  0.53330000  0.49272000  1.0 0.1192599841
C  C111  1  0.61682000  0.47758000  0.48501000  1.0 0.1089062504
C  C112  1  0.70059000  0.62305000  0.55577000  1.0 0.6560720401
C  C113  1  0.62824000  0.28836000  0.39175000  1.0 0.4883300113
C  C114  1  0.65175000  0.28305000  0.32794000  1.0 -0.2313673971
C  C115  1  0.68114000  0.33413000  0.29800000  1.0 0.1664048629
C  C116  1  0.70109000  0.32946000  0.23970000  1.0 0.1576039236
C  C117  1  0.69320000  0.27265000  0.20920000  1.0 -0.2098526536
C  C118  1  0.66382000  0.22163000  0.23914000  1.0 0.1576039236
C  C119  1  0.64332000  0.22701000  0.29732000  1.0 0.1576039236
C  C120  1  0.72125000  0.26449000  0.14741000  1.0 0.6940963017
C  C121  1  0.92060000  0.84177000  0.51800000  1.0 0.6399391638
C  C122  1  0.90477000  0.91220000  0.51250000  1.0 -0.2098526536
C  C123  1  0.86674000  0.94429000  0.55549000  1.0 0.1280005696
C  C124  1  0.85520000  0.00887000  0.55237000  1.0 0.1475430774
C  C125  1  0.88030000  0.04446000  0.50524000  1.0 -0.2098526536
C  C126  1  0.91687000  0.01186000  0.46155000  1.0 0.1383654727
C  C127  1  0.92938000  0.94726000  0.46523000  1.0 0.1280005696
C  C128  1  0.86859000  0.11561000  0.50179000  1.0 0.6560720401
C  C129  1  0.95040000  0.61817000  0.52356000  1.0 0.6133250045
C  C130  1  0.90939000  0.55623000  0.53137000  1.0 -0.3065159125
C  C131  1  0.89620000  0.53227000  0.58608000  1.0 0.0783724836
C  C132  1  0.86050000  0.47540000  0.59413000  1.0 0.0783724836
C  C133  1  0.83360000  0.44131000  0.54763000  1.0 -0.2997938832
C  C134  1  0.84454000  0.46670000  0.49272000  1.0 0.1192599841
C  C135  1  0.88318000  0.52242000  0.48501000  1.0 0.1089062504
C  C136  1  0.79941000  0.37695000  0.55577000  1.0 0.6560720401
C  C137  1  0.87176000  0.71164000  0.39175000  1.0 0.4883300113
C  C138  1  0.84825000  0.71695000  0.32794000  1.0 -0.2313673971
C  C139  1  0.81886000  0.66587000  0.29800000  1.0 0.1664048629
C  C140  1  0.79891000  0.67054000  0.23970000  1.0 0.1576039236
C  C141  1  0.80680000  0.72735000  0.20920000  1.0 -0.2098526536
C  C142  1  0.83618000  0.77837000  0.23914000  1.0 0.1576039236
C  C143  1  0.85668000  0.77299000  0.29732000  1.0 0.1576039236
C  C144  1  0.77875000  0.73551000  0.14741000  1.0 0.6940963017
C  C145  1  0.92060000  0.65823000  0.01800000  1.0 0.6399391638
C  C146  1  0.90477000  0.58780000  0.01250000  1.0 -0.2098526536
C  C147  1  0.86674000  0.55571000  0.05549000  1.0 0.1280005696
C  C148  1  0.85520000  0.49113000  0.05237000  1.0 0.1475430774
C  C149  1  0.88030000  0.45554000  0.00524000  1.0 -0.2098526536
C  C150  1  0.91687000  0.48814000  0.96155000  1.0 0.1383654727
C  C151  1  0.92938000  0.55274000  0.96523000  1.0 0.1280005696
C  C152  1  0.86859000  0.38439000  0.00179000  1.0 0.6560720401
C  C153  1  0.95040000  0.88183000  0.02356000  1.0 0.6133250045
C  C154  1  0.90939000  0.94377000  0.03137000  1.0 -0.3065159125
C  C155  1  0.89620000  0.96773000  0.08608000  1.0 0.0783724836
C  C156  1  0.86050000  0.02460000  0.09413000  1.0 0.0783724836
C  C157  1  0.83360000  0.05869000  0.04763000  1.0 -0.2997938832
C  C158  1  0.84454000  0.03330000  0.99272000  1.0 0.1192599841
C  C159  1  0.88318000  0.97758000  0.98501000  1.0 0.1089062504
C  C160  1  0.79941000  0.12305000  0.05577000  1.0 0.6560720401
C  C161  1  0.87176000  0.78836000  0.89175000  1.0 0.4883300113
C  C162  1  0.84825000  0.78305000  0.82794000  1.0 -0.2313673971
C  C163  1  0.81886000  0.83413000  0.79800000  1.0 0.1664048629
C  C164  1  0.79891000  0.82946000  0.73970000  1.0 0.1576039236
C  C165  1  0.80680000  0.77265000  0.70920000  1.0 -0.2098526536
C  C166  1  0.83618000  0.72163000  0.73914000  1.0 0.1576039236
C  C167  1  0.85668000  0.72701000  0.79732000  1.0 0.1576039236
C  C168  1  0.77875000  0.76449000  0.64741000  1.0 0.6940963017
C  C169  1  0.57940000  0.34177000  0.01800000  1.0 0.6399391638
C  C170  1  0.59523000  0.41220000  0.01250000  1.0 -0.2098526536
C  C171  1  0.63326000  0.44429000  0.05549000  1.0 0.1280005696
C  C172  1  0.64480000  0.50887000  0.05237000  1.0 0.1475430774
C  C173  1  0.61970000  0.54446000  0.00524000  1.0 -0.2098526536
C  C174  1  0.58313000  0.51186000  0.96155000  1.0 0.1383654727
C  C175  1  0.57062000  0.44726000  0.96523000  1.0 0.1280005696
C  C176  1  0.63141000  0.61561000  0.00179000  1.0 0.6560720401
C  C177  1  0.54960000  0.11817000  0.02356000  1.0 0.6133250045
C  C178  1  0.59061000  0.05623000  0.03137000  1.0 -0.3065159125
C  C179  1  0.60380000  0.03227000  0.08608000  1.0 0.0783724836
C  C180  1  0.63950000  0.97540000  0.09413000  1.0 0.0783724836
C  C181  1  0.66640000  0.94131000  0.04763000  1.0 -0.2997938832
C  C182  1  0.65546000  0.96670000  0.99272000  1.0 0.1192599841
C  C183  1  0.61682000  0.02242000  0.98501000  1.0 0.1089062504
C  C184  1  0.70059000  0.87695000  0.05577000  1.0 0.6560720401
C  C185  1  0.62824000  0.21164000  0.89175000  1.0 0.4883300113
C  C186  1  0.65175000  0.21695000  0.82794000  1.0 -0.2313673971
C  C187  1  0.68114000  0.16587000  0.79800000  1.0 0.1664048629
C  C188  1  0.70109000  0.17054000  0.73970000  1.0 0.1576039236
C  C189  1  0.69320000  0.22735000  0.70920000  1.0 -0.2098526536
C  C190  1  0.66382000  0.27837000  0.73914000  1.0 0.1576039236
C  C191  1  0.64332000  0.27299000  0.79732000  1.0 0.1576039236
C  C192  1  0.72125000  0.23551000  0.64741000  1.0 0.6940963017
O  O1  1  0.27903000  0.25915000  0.98916000  1.0 -1.0527284098
O  O2  1  0.13132000  0.30592000  0.99511000  1.0 -0.6617834323
O  O3  1  0.01812000  0.32638000  0.96587000  1.0 -0.4882302498
O  O4  1  0.15070000  0.63874000  0.04570000  1.0 -0.4882302498
O  O5  1  0.12043000  0.64560000  0.95054000  1.0 -0.6617834323
O  O6  1  0.08486000  0.16858000  0.96634000  1.0 -0.6419045505
O  O7  1  0.98567000  0.11539000  0.99015000  1.0 -0.5025590872
O  O8  1  0.16297000  0.83678000  0.91684000  1.0 -0.6419045505
O  O9  1  0.26202000  0.86790000  0.96531000  1.0 -0.6419045505
O  O10  1  0.17902000  0.20258000  0.07210000  1.0 -0.6217888717
O  O11  1  0.06270000  0.20650000  0.09910000  1.0 -0.0140366348
O  O12  1  0.17918000  0.25849000  0.38966000  1.0 -0.6217888717
O  O13  1  0.28621000  0.21980000  0.36003000  1.0 -0.6617834323
O  O14  1  0.06580000  0.22950000  0.09470000  1.0 0.0017602379
O  O15  1  0.22097000  0.74085000  0.98916000  1.0 -1.0527284098
O  O16  1  0.36868000  0.69408000  0.99511000  1.0 -0.6617834323
O  O17  1  0.48188000  0.67362000  0.96587000  1.0 -0.4882302498
O  O18  1  0.34930000  0.36126000  0.04570000  1.0 -0.4882302498
O  O19  1  0.37957000  0.35440000  0.95054000  1.0 -0.6617834323
O  O20  1  0.41514000  0.83142000  0.96634000  1.0 -0.6419045505
O  O21  1  0.51433000  0.88461000  0.99015000  1.0 -0.5025590872
O  O22  1  0.33703000  0.16322000  0.91684000  1.0 -0.6419045505
O  O23  1  0.23798000  0.13210000  0.96531000  1.0 -0.6419045505
O  O24  1  0.32098000  0.79742000  0.07210000  1.0 -0.6217888717
O  O25  1  0.43730000  0.79350000  0.09910000  1.0 -0.0140366348
O  O26  1  0.32082000  0.74151000  0.38966000  1.0 -0.6217888717
O  O27  1  0.21379000  0.78020000  0.36003000  1.0 -0.6617834323
O  O28  1  0.43420000  0.77050000  0.09470000  1.0 -0.0011197044
O  O29  1  0.22097000  0.75915000  0.48916000  1.0 -1.0527284098
O  O30  1  0.36868000  0.80592000  0.49511000  1.0 -0.6617834323
O  O31  1  0.48188000  0.82638000  0.46587000  1.0 -0.4882302498
O  O32  1  0.34930000  0.13874000  0.54570000  1.0 -0.4882302498
O  O33  1  0.37957000  0.14560000  0.45054000  1.0 -0.6617834323
O  O34  1  0.41514000  0.66858000  0.46634000  1.0 -0.6419045505
O  O35  1  0.51433000  0.61539000  0.49015000  1.0 -0.5025590872
O  O36  1  0.33703000  0.33678000  0.41684000  1.0 -0.6419045505
O  O37  1  0.23798000  0.36790000  0.46531000  1.0 -0.6419045505
O  O38  1  0.32098000  0.70258000  0.57210000  1.0 -0.6217888717
O  O39  1  0.43730000  0.70650000  0.59910000  1.0 -0.0140366348
O  O40  1  0.32082000  0.75849000  0.88966000  1.0 -0.6217888717
O  O41  1  0.21379000  0.71980000  0.86003000  1.0 -0.6617834323
O  O42  1  0.43420000  0.72950000  0.59470000  1.0 0.0017602379
O  O43  1  0.27903000  0.24085000  0.48916000  1.0 -1.0527284098
O  O44  1  0.13132000  0.19408000  0.49511000  1.0 -0.6617834323
O  O45  1  0.01812000  0.17362000  0.46587000  1.0 -0.4882302498
O  O46  1  0.15070000  0.86126000  0.54570000  1.0 -0.4882302498
O  O47  1  0.12043000  0.85440000  0.45054000  1.0 -0.6617834323
O  O48  1  0.08486000  0.33142000  0.46634000  1.0 -0.6419045505
O  O49  1  0.98567000  0.38461000  0.49015000  1.0 -0.5025590872
O  O50  1  0.16297000  0.66322000  0.41684000  1.0 -0.6419045505
O  O51  1  0.26202000  0.63210000  0.46531000  1.0 -0.6419045505
O  O52  1  0.17902000  0.29742000  0.57210000  1.0 -0.6253759218
O  O53  1  0.06270000  0.29350000  0.59910000  1.0 -0.0140366348
O  O54  1  0.17918000  0.24151000  0.88966000  1.0 -0.6217888717
O  O55  1  0.28621000  0.28020000  0.86003000  1.0 -0.6617834323
O  O56  1  0.06580000  0.27050000  0.59470000  1.0 0.0017602379
O  O57  1  0.77903000  0.24085000  0.51084000  1.0 -1.0527284098
O  O58  1  0.63132000  0.19408000  0.50489000  1.0 -0.6617834323
O  O59  1  0.51812000  0.17362000  0.53413000  1.0 -0.4882302498
O  O60  1  0.65070000  0.86126000  0.45430000  1.0 -0.4882302498
O  O61  1  0.62043000  0.85440000  0.54946000  1.0 -0.6617834323
O  O62  1  0.58486000  0.33142000  0.53366000  1.0 -0.6419045505
O  O63  1  0.48567000  0.38461000  0.50985000  1.0 -0.5025590872
O  O64  1  0.66297000  0.66322000  0.58316000  1.0 -0.6419045505
O  O65  1  0.76202000  0.63210000  0.53469000  1.0 -0.6419045505
O  O66  1  0.67902000  0.29742000  0.42790000  1.0 -0.6217888717
O  O67  1  0.56270000  0.29350000  0.40090000  1.0 -0.0140366348
O  O68  1  0.67918000  0.24151000  0.11034000  1.0 -0.6217888717
O  O69  1  0.78621000  0.28020000  0.13997000  1.0 -0.6617834323
O  O70  1  0.56580000  0.27050000  0.40530000  1.0 -0.0011197044
O  O71  1  0.72097000  0.75915000  0.51084000  1.0 -1.0527284098
O  O72  1  0.86868000  0.80592000  0.50489000  1.0 -0.6617834323
O  O73  1  0.98188000  0.82638000  0.53413000  1.0 -0.4882302498
O  O74  1  0.84930000  0.13874000  0.45430000  1.0 -0.4882302498
O  O75  1  0.87957000  0.14560000  0.54946000  1.0 -0.6617834323
O  O76  1  0.91514000  0.66858000  0.53366000  1.0 -0.6419045505
O  O77  1  0.01433000  0.61539000  0.50985000  1.0 -0.5025590872
O  O78  1  0.83703000  0.33678000  0.58316000  1.0 -0.6419045505
O  O79  1  0.73798000  0.36790000  0.53469000  1.0 -0.6419045505
O  O80  1  0.82098000  0.70258000  0.42790000  1.0 -0.6217888717
O  O81  1  0.93730000  0.70650000  0.40090000  1.0 -0.0166724731
O  O82  1  0.82082000  0.75849000  0.11034000  1.0 -0.6217888717
O  O83  1  0.71379000  0.71980000  0.13997000  1.0 -0.6617834323
O  O84  1  0.93420000  0.72950000  0.40530000  1.0 -0.0011197044
O  O85  1  0.72097000  0.74085000  0.01084000  1.0 -1.0527284098
O  O86  1  0.86868000  0.69408000  0.00489000  1.0 -0.6617834323
O  O87  1  0.98188000  0.67362000  0.03413000  1.0 -0.4882302498
O  O88  1  0.84930000  0.36126000  0.95430000  1.0 -0.4882302498
O  O89  1  0.87957000  0.35440000  0.04946000  1.0 -0.6617834323
O  O90  1  0.91514000  0.83142000  0.03366000  1.0 -0.6419045505
O  O91  1  0.01433000  0.88461000  0.00985000  1.0 -0.5025590872
O  O92  1  0.83703000  0.16322000  0.08316000  1.0 -0.6419045505
O  O93  1  0.73798000  0.13210000  0.03469000  1.0 -0.6419045505
O  O94  1  0.82098000  0.79742000  0.92790000  1.0 -0.6217888717
O  O95  1  0.93730000  0.79350000  0.90090000  1.0 -0.0166724731
O  O96  1  0.82082000  0.74151000  0.61034000  1.0 -0.6217888717
O  O97  1  0.71379000  0.78020000  0.63997000  1.0 -0.6617834323
O  O98  1  0.93420000  0.77050000  0.90530000  1.0 -0.0011197044
O  O99  1  0.77903000  0.25915000  0.01084000  1.0 -1.0527284098
O  O100  1  0.63132000  0.30592000  0.00489000  1.0 -0.6617834323
O  O101  1  0.51812000  0.32638000  0.03413000  1.0 -0.4882302498
O  O102  1  0.65070000  0.63874000  0.95430000  1.0 -0.4882302498
O  O103  1  0.62043000  0.64560000  0.04946000  1.0 -0.6617834323
O  O104  1  0.58486000  0.16858000  0.03366000  1.0 -0.6419045505
O  O105  1  0.48567000  0.11539000  0.00985000  1.0 -0.5025590872
O  O106  1  0.66297000  0.83678000  0.08316000  1.0 -0.6419045505
O  O107  1  0.76202000  0.86790000  0.03469000  1.0 -0.6419045505
O  O108  1  0.67902000  0.20258000  0.92790000  1.0 -0.6253759218
O  O109  1  0.56270000  0.20650000  0.90090000  1.0 -0.0166724731
O  O110  1  0.67918000  0.25849000  0.61034000  1.0 -0.6217888717
O  O111  1  0.78621000  0.21980000  0.63997000  1.0 -0.6617834323
O  O112  1  0.56580000  0.22950000  0.90530000  1.0 -0.0011197044
F  F1  1  0.15770000  0.41155000  0.89763000  1.0 -0.106280509
F  F2  1  0.18249000  0.53693000  0.90449000  1.0 -0.106280509
F  F3  1  0.05634000  0.54300000  0.08513000  1.0 -0.0909531749
F  F4  1  0.03366000  0.41826000  0.07780000  1.0 -0.1177546633
F  F5  1  0.09480000  0.07060000  0.86580000  1.0 0.1089062504
F  F6  1  0.16450000  0.95900000  0.85200000  1.0 0.0907160621
F  F7  1  0.16480000  0.92860000  0.05640000  1.0 0.1192599841
F  F8  1  0.09040000  0.03750000  0.07040000  1.0 0.0907160621
F  F9  1  0.19081000  0.11023000  0.17415000  1.0 -0.1694072978
F  F10  1  0.22906000  0.11966000  0.28705000  1.0 -0.106280509
F  F11  1  0.15610000  0.33434000  0.28790000  1.0 -0.1338442629
F  F12  1  0.11506000  0.32391000  0.17555000  1.0 -0.1396951945
F  F13  1  0.06540000  0.05870000  0.86860000  1.0 0.1089062504
F  F14  1  0.13390000  0.94810000  0.85120000  1.0 0.1089062504
F  F15  1  0.19510000  0.94270000  0.05170000  1.0 0.0907160621
F  F16  1  0.12290000  0.05140000  0.06740000  1.0 0.0907160621
F  F17  1  0.34230000  0.58845000  0.89763000  1.0 -0.106280509
F  F18  1  0.31751000  0.46307000  0.90449000  1.0 -0.106280509
F  F19  1  0.44366000  0.45700000  0.08513000  1.0 -0.0909531749
F  F20  1  0.46634000  0.58174000  0.07780000  1.0 -0.1177546633
F  F21  1  0.40520000  0.92940000  0.86580000  1.0 0.1089062504
F  F22  1  0.33550000  0.04100000  0.85200000  1.0 0.0907160621
F  F23  1  0.33520000  0.07140000  0.05640000  1.0 0.1192599841
F  F24  1  0.40960000  0.96250000  0.07040000  1.0 0.0907160621
F  F25  1  0.30919000  0.88977000  0.17415000  1.0 -0.1694072978
F  F26  1  0.27094000  0.88034000  0.28705000  1.0 -0.106280509
F  F27  1  0.34390000  0.66566000  0.28790000  1.0 -0.1338442629
F  F28  1  0.38494000  0.67609000  0.17555000  1.0 -0.1396951945
F  F29  1  0.43460000  0.94130000  0.86860000  1.0 0.1089062504
F  F30  1  0.36610000  0.05190000  0.85120000  1.0 0.1192599841
F  F31  1  0.30490000  0.05730000  0.05170000  1.0 0.0907160621
F  F32  1  0.37710000  0.94860000  0.06740000  1.0 0.0907160621
F  F33  1  0.34230000  0.91155000  0.39763000  1.0 -0.106280509
F  F34  1  0.31751000  0.03693000  0.40449000  1.0 -0.106280509
F  F35  1  0.44366000  0.04300000  0.58513000  1.0 -0.0909531749
F  F36  1  0.46634000  0.91826000  0.57780000  1.0 -0.1177546633
F  F37  1  0.40520000  0.57060000  0.36580000  1.0 0.1089062504
F  F38  1  0.33550000  0.45900000  0.35200000  1.0 0.0907160621
F  F39  1  0.33520000  0.42860000  0.55640000  1.0 0.1192599841
F  F40  1  0.40960000  0.53750000  0.57040000  1.0 0.0907160621
F  F41  1  0.30919000  0.61023000  0.67415000  1.0 -0.1694072978
F  F42  1  0.27094000  0.61966000  0.78705000  1.0 -0.106280509
F  F43  1  0.34390000  0.83434000  0.78790000  1.0 -0.1338442629
F  F44  1  0.38494000  0.82391000  0.67555000  1.0 -0.1396951945
F  F45  1  0.43460000  0.55870000  0.36860000  1.0 0.1089062504
F  F46  1  0.36610000  0.44810000  0.35120000  1.0 0.1089062504
F  F47  1  0.30490000  0.44270000  0.55170000  1.0 0.0907160621
F  F48  1  0.37710000  0.55140000  0.56740000  1.0 0.0907160621
F  F49  1  0.15770000  0.08845000  0.39763000  1.0 -0.106280509
F  F50  1  0.18249000  0.96307000  0.40449000  1.0 -0.106280509
F  F51  1  0.05634000  0.95700000  0.58513000  1.0 -0.0909531749
F  F52  1  0.03366000  0.08174000  0.57780000  1.0 -0.1177546633
F  F53  1  0.09480000  0.42940000  0.36580000  1.0 0.1089062504
F  F54  1  0.16450000  0.54100000  0.35200000  1.0 0.0907160621
F  F55  1  0.16480000  0.57140000  0.55640000  1.0 0.1192599841
F  F56  1  0.09040000  0.46250000  0.57040000  1.0 0.0907160621
F  F57  1  0.19081000  0.38977000  0.67415000  1.0 -0.1694072978
F  F58  1  0.22906000  0.38034000  0.78705000  1.0 -0.106280509
F  F59  1  0.15610000  0.16566000  0.78790000  1.0 -0.1338442629
F  F60  1  0.11506000  0.17609000  0.67555000  1.0 -0.1396951945
F  F61  1  0.06540000  0.44130000  0.36860000  1.0 0.1089062504
F  F62  1  0.13390000  0.55190000  0.35120000  1.0 0.1192599841
F  F63  1  0.19510000  0.55730000  0.55170000  1.0 0.0907160621
F  F64  1  0.12290000  0.44860000  0.56740000  1.0 0.0907160621
F  F65  1  0.65770000  0.08845000  0.60237000  1.0 -0.106280509
F  F66  1  0.68249000  0.96307000  0.59551000  1.0 -0.106280509
F  F67  1  0.55634000  0.95700000  0.41487000  1.0 -0.0909531749
F  F68  1  0.53366000  0.08174000  0.42220000  1.0 -0.1177546633
F  F69  1  0.59480000  0.42940000  0.63420000  1.0 0.1089062504
F  F70  1  0.66450000  0.54100000  0.64800000  1.0 0.0907160621
F  F71  1  0.66480000  0.57140000  0.44360000  1.0 0.1192599841
F  F72  1  0.59040000  0.46250000  0.42960000  1.0 0.0907160621
F  F73  1  0.69081000  0.38977000  0.32585000  1.0 -0.1694072978
F  F74  1  0.72906000  0.38034000  0.21295000  1.0 -0.106280509
F  F75  1  0.65610000  0.16566000  0.21210000  1.0 -0.1338442629
F  F76  1  0.61506000  0.17609000  0.32445000  1.0 -0.1396951945
F  F77  1  0.56540000  0.44130000  0.63140000  1.0 0.1089062504
F  F78  1  0.63390000  0.55190000  0.64880000  1.0 0.1089062504
F  F79  1  0.69510000  0.55730000  0.44830000  1.0 0.0907160621
F  F80  1  0.62290000  0.44860000  0.43260000  1.0 0.0907160621
F  F81  1  0.84230000  0.91155000  0.60237000  1.0 -0.106280509
F  F82  1  0.81751000  0.03693000  0.59551000  1.0 -0.106280509
F  F83  1  0.94366000  0.04300000  0.41487000  1.0 -0.0909531749
F  F84  1  0.96634000  0.91826000  0.42220000  1.0 -0.1177546633
F  F85  1  0.90520000  0.57060000  0.63420000  1.0 0.1089062504
F  F86  1  0.83550000  0.45900000  0.64800000  1.0 0.0907160621
F  F87  1  0.83520000  0.42860000  0.44360000  1.0 0.1192599841
F  F88  1  0.90960000  0.53750000  0.42960000  1.0 0.0907160621
F  F89  1  0.80919000  0.61023000  0.32585000  1.0 -0.1694072978
F  F90  1  0.77094000  0.61966000  0.21295000  1.0 -0.106280509
F  F91  1  0.84390000  0.83434000  0.21210000  1.0 -0.1338442629
F  F92  1  0.88494000  0.82391000  0.32445000  1.0 -0.1396951945
F  F93  1  0.93460000  0.55870000  0.63140000  1.0 0.1089062504
F  F94  1  0.86610000  0.44810000  0.64880000  1.0 0.1089062504
F  F95  1  0.80490000  0.44270000  0.44830000  1.0 0.0907160621
F  F96  1  0.87710000  0.55140000  0.43260000  1.0 0.0907160621
F  F97  1  0.84230000  0.58845000  0.10237000  1.0 -0.106280509
F  F98  1  0.81751000  0.46307000  0.09551000  1.0 -0.106280509
F  F99  1  0.94366000  0.45700000  0.91487000  1.0 -0.0909531749
F  F100  1  0.96634000  0.58174000  0.92220000  1.0 -0.1177546633
F  F101  1  0.90520000  0.92940000  0.13420000  1.0 0.1089062504
F  F102  1  0.83550000  0.04100000  0.14800000  1.0 0.0907160621
F  F103  1  0.83520000  0.07140000  0.94360000  1.0 0.1192599841
F  F104  1  0.90960000  0.96250000  0.92960000  1.0 0.0907160621
F  F105  1  0.80919000  0.88977000  0.82585000  1.0 -0.1694072978
F  F106  1  0.77094000  0.88034000  0.71295000  1.0 -0.106280509
F  F107  1  0.84390000  0.66566000  0.71210000  1.0 -0.1338442629
F  F108  1  0.88494000  0.67609000  0.82445000  1.0 -0.1396951945
F  F109  1  0.93460000  0.94130000  0.13140000  1.0 0.1089062504
F  F110  1  0.86610000  0.05190000  0.14880000  1.0 0.1192599841
F  F111  1  0.80490000  0.05730000  0.94830000  1.0 0.0907160621
F  F112  1  0.87710000  0.94860000  0.93260000  1.0 0.0907160621
F  F113  1  0.65770000  0.41155000  0.10237000  1.0 -0.106280509
F  F114  1  0.68249000  0.53693000  0.09551000  1.0 -0.106280509
F  F115  1  0.55634000  0.54300000  0.91487000  1.0 -0.0909531749
F  F116  1  0.53366000  0.41826000  0.92220000  1.0 -0.1177546633
F  F117  1  0.59480000  0.07060000  0.13420000  1.0 0.1089062504
F  F118  1  0.66450000  0.95900000  0.14800000  1.0 0.0907160621
F  F119  1  0.66480000  0.92860000  0.94360000  1.0 0.1192599841
F  F120  1  0.59040000  0.03750000  0.92960000  1.0 0.0907160621
F  F121  1  0.69081000  0.11023000  0.82585000  1.0 -0.1694072978
F  F122  1  0.72906000  0.11966000  0.71295000  1.0 -0.106280509
F  F123  1  0.65610000  0.33434000  0.71210000  1.0 -0.1338442629
F  F124  1  0.61506000  0.32391000  0.82445000  1.0 -0.1396951945
F  F125  1  0.56540000  0.05870000  0.13140000  1.0 0.1089062504
F  F126  1  0.63390000  0.94810000  0.14880000  1.0 0.1089062504
F  F127  1  0.69510000  0.94270000  0.94830000  1.0 0.0907160621
F  F128  1  0.62290000  0.05140000  0.93260000  1.0 0.0907160621
