# DDEC6 charges by PACMAN v1.1 (https://github.com/mtap-research/PACMAN-charge/)
data_IJANAJ_FSR_pacman
_symmetry_space_group_name_H-M   'P 1'
_cell_length_a   9.34900000
_cell_length_b   10.44100000
_cell_length_c   12.17700000
_cell_angle_alpha   109.95600000
_cell_angle_beta   103.38800000
_cell_angle_gamma   90.27500000
_symmetry_Int_Tables_number   1
_chemical_formula_structural   Zn3H22C38(N2O7)2
_chemical_formula_sum   'Zn3 H22 C38 N4 O14'
_cell_volume   1082.32212835
_cell_formula_units_Z   1
loop_
 _symmetry_equiv_pos_site_id
 _symmetry_equiv_pos_as_xyz
  1  'x, y, z'
loop_
 _atom_site_type_symbol
 _atom_site_label
 _atom_site_symmetry_multiplicity
 _atom_site_fract_x
 _atom_site_fract_y
 _atom_site_fract_z
 _atom_site_occupancy
 _atom_site_charge
Zn  Zn1  1  0.73945000  0.92692000  0.51344000  1.0 0.8564246642
Zn  Zn2  1  0.26055000  0.07308000  0.48656000  1.0 0.8564246642
Zn  Zn3  1  0.50000000  0.50000000  0.50000000  1.0 0.8397387016
H  H1  1  0.55550000  0.91730000  0.82680000  1.0 0.1194974542
H  H2  1  0.44450000  0.08270000  0.17320000  1.0 0.1194974542
H  H3  1  0.39080000  0.93230000  0.94510000  1.0 0.1086822889
H  H4  1  0.60920000  0.06770000  0.05490000  1.0 0.1086822889
H  H5  1  0.14040000  0.88220000  0.85800000  1.0 0.1194974542
H  H6  1  0.85960000  0.11780000  0.14200000  1.0 0.1194974542
H  H7  1  0.89000000  0.82350000  0.32400000  1.0 0.1307868692
H  H8  1  0.11000000  0.17650000  0.67600000  1.0 0.1307868692
H  H9  1  0.84620000  0.72560000  0.11790000  1.0 0.1429027478
H  H10  1  0.15380000  0.27440000  0.88210000  1.0 0.1429027478
H  H11  1  0.41240000  0.71280000  0.09850000  1.0 0.1429027478
H  H12  1  0.58760000  0.28720000  0.90150000  1.0 0.1429027478
H  H13  1  0.46740000  0.80880000  0.30470000  1.0 0.1307868692
H  H14  1  0.53260000  0.19120000  0.69530000  1.0 0.1307868692
H  H15  1  0.80130000  0.68300000  0.93560000  1.0 0.1307868692
H  H16  1  0.19870000  0.31700000  0.06440000  1.0 0.1307868692
H  H17  1  0.75090000  0.60880000  0.73100000  1.0 0.1307868692
H  H18  1  0.24910000  0.39120000  0.26900000  1.0 0.1307868692
H  H19  1  0.33780000  0.51610000  0.70310000  1.0 0.1194974542
H  H20  1  0.66220000  0.48390000  0.29690000  1.0 0.1194974542
H  H21  1  0.37630000  0.59590000  0.90850000  1.0 0.1307868692
H  H22  1  0.62370000  0.40410000  0.09150000  1.0 0.1307868692
C  C1  1  0.15305000  0.84022000  0.68497000  1.0 -0.0213736118
C  C2  1  0.84695000  0.15978000  0.31503000  1.0 -0.0213736118
C  C3  1  0.25160000  0.82679000  0.61192000  1.0 -0.081591106
C  C4  1  0.74840000  0.17321000  0.38808000  1.0 -0.081591106
C  C5  1  0.40321000  0.85077000  0.66576000  1.0 -0.0546756563
C  C6  1  0.59679000  0.14923000  0.33424000  1.0 -0.0554256317
C  C7  1  0.45502000  0.89505000  0.79106000  1.0 -0.1291841221
C  C8  1  0.54498000  0.10495000  0.20894000  1.0 -0.1291841221
C  C9  1  0.35602000  0.90565000  0.86184000  1.0 -0.1121946377
C  C10  1  0.64398000  0.09435000  0.13816000  1.0 -0.1121946377
C  C11  1  0.20595000  0.87703000  0.80994000  1.0 -0.1226615262
C  C12  1  0.79405000  0.12297000  0.19006000  1.0 -0.1226615262
C  C13  1  0.98836000  0.82324000  0.63385000  1.0 0.5685333955
C  C14  1  0.01164000  0.17676000  0.36615000  1.0 0.5685333955
C  C15  1  0.19521000  0.78640000  0.47680000  1.0 0.5816167044
C  C16  1  0.80479000  0.21360000  0.52320000  1.0 0.5816167044
C  C17  1  0.51214000  0.82687000  0.58872000  1.0 0.5816167044
C  C18  1  0.48786000  0.17313000  0.41128000  1.0 0.5816167044
C  C19  1  0.79300000  0.80140000  0.27794000  1.0 0.1086822889
C  C20  1  0.20700000  0.19860000  0.72206000  1.0 0.1086822889
C  C21  1  0.76730000  0.74250000  0.15378000  1.0 -0.1889313054
C  C22  1  0.23270000  0.25750000  0.84622000  1.0 -0.1889313054
C  C23  1  0.62271000  0.70863000  0.08259000  1.0 0.1086822889
C  C24  1  0.37729000  0.29137000  0.91741000  1.0 0.1086822889
C  C25  1  0.51050000  0.73465000  0.14217000  1.0 -0.1889313054
C  C26  1  0.48950000  0.26535000  0.85783000  1.0 -0.1889313054
C  C27  1  0.54428000  0.79302000  0.26639000  1.0 0.1086822889
C  C28  1  0.45572000  0.20698000  0.73361000  1.0 0.1086822889
C  C29  1  0.59262000  0.65087000  0.94856000  1.0 0.0874032674
C  C30  1  0.40738000  0.34913000  0.05144000  1.0 0.0874032674
C  C31  1  0.70510000  0.65140000  0.89037000  1.0 -0.2015762245
C  C32  1  0.29490000  0.34860000  0.10963000  1.0 -0.2015762245
C  C33  1  0.67390000  0.60550000  0.76674000  1.0 0.0959591615
C  C34  1  0.32610000  0.39450000  0.23326000  1.0 0.0959591615
C  C35  1  0.43210000  0.55218000  0.75023000  1.0 0.0846862468
C  C36  1  0.56790000  0.44782000  0.24977000  1.0 0.0874032674
C  C37  1  0.45510000  0.59932000  0.87476000  1.0 -0.2015762245
C  C38  1  0.54490000  0.40068000  0.12524000  1.0 -0.2015762245
N  N1  1  0.68352000  0.82785000  0.33415000  1.0 -0.2404662025
N  N2  1  0.31648000  0.17215000  0.66585000  1.0 -0.2404662025
N  N3  1  0.53951000  0.55610000  0.69438000  1.0 -0.2328896922
N  N4  1  0.46049000  0.44390000  0.30562000  1.0 -0.2328896922
O  O1  1  0.94302000  0.88715000  0.56242000  1.0 -0.5439542783
O  O2  1  0.05698000  0.11285000  0.43758000  1.0 -0.5439542783
O  O3  1  0.90983000  0.75501000  0.66648000  1.0 -0.489732678
O  O4  1  0.09017000  0.24499000  0.33352000  1.0 -0.489732678
O  O5  1  0.12768000  0.67181000  0.41844000  1.0 -0.4321238799
O  O6  1  0.87232000  0.32819000  0.58156000  1.0 -0.4321238799
O  O7  1  0.22311000  0.87090000  0.42931000  1.0 -0.5439542783
O  O8  1  0.77689000  0.12910000  0.57069000  1.0 -0.5439542783
O  O9  1  0.51383000  0.71201000  0.51267000  1.0 -0.518772806
O  O10  1  0.48617000  0.28799000  0.48733000  1.0 -0.518772806
O  O11  1  0.59879000  0.93067000  0.60810000  1.0 -0.518772806
O  O12  1  0.40121000  0.06933000  0.39190000  1.0 -0.518772806
O  O13  1  0.27349000  0.48152000  0.48995000  1.0 -0.1889313054
O  O14  1  0.72651000  0.51848000  0.51005000  1.0 -0.1844527674
