# DDEC6 charges by PACMAN v1.1 (https://github.com/mtap-research/PACMAN-charge/)
data_IJAXID_ASR_pacman
_symmetry_space_group_name_H-M   'P 1'
_cell_length_a   22.57680000
_cell_length_b   22.57680000
_cell_length_c   23.34910000
_cell_angle_alpha   90.00000000
_cell_angle_beta   90.00000000
_cell_angle_gamma   120.00000000
_symmetry_Int_Tables_number   1
_chemical_formula_structural   Tb9H114C174O47
_chemical_formula_sum   'Tb18 H228 C348 O94'
_cell_volume   10306.84033446
_cell_formula_units_Z   2
loop_
 _symmetry_equiv_pos_site_id
 _symmetry_equiv_pos_as_xyz
  1  'x, y, z'
loop_
 _atom_site_type_symbol
 _atom_site_label
 _atom_site_symmetry_multiplicity
 _atom_site_fract_x
 _atom_site_fract_y
 _atom_site_fract_z
 _atom_site_occupancy
 _atom_site_charge
Tb  Tb1  1  0.39084000  0.78168000  0.65619000  1.0 2.2021837825
Tb  Tb2  1  0.39084000  0.60916000  0.65619000  1.0 2.2021837825
Tb  Tb3  1  0.21832000  0.60916000  0.65619000  1.0 2.2021837825
Tb  Tb4  1  0.60916000  0.21832000  0.15619000  1.0 2.2021837825
Tb  Tb5  1  0.60916000  0.39084000  0.15619000  1.0 2.2021837825
Tb  Tb6  1  0.78168000  0.39084000  0.15619000  1.0 2.2021837825
Tb  Tb7  1  0.60916000  0.21832000  0.34381000  1.0 2.2021837825
Tb  Tb8  1  0.78168000  0.39084000  0.34381000  1.0 2.2021837825
Tb  Tb9  1  0.60916000  0.39084000  0.34381000  1.0 2.2021837825
Tb  Tb10  1  0.39084000  0.78168000  0.84381000  1.0 2.2021837825
Tb  Tb11  1  0.21832000  0.60916000  0.84381000  1.0 2.2021837825
Tb  Tb12  1  0.39084000  0.60916000  0.84381000  1.0 2.2021837825
Tb  Tb13  1  0.54220000  0.77110000  0.75000000  1.0 2.0626471236
Tb  Tb14  1  0.22890000  0.45780000  0.75000000  1.0 2.0626471236
Tb  Tb15  1  0.22890000  0.77110000  0.75000000  1.0 2.0626471236
Tb  Tb16  1  0.45780000  0.22890000  0.25000000  1.0 2.0626471236
Tb  Tb17  1  0.77110000  0.54220000  0.25000000  1.0 2.0626471236
Tb  Tb18  1  0.77110000  0.22890000  0.25000000  1.0 2.0626471236
H  H1  1  0.67515000  0.14601000  0.49481000  1.0 0.1120856697
H  H2  1  0.69505000  0.95323000  0.64595000  1.0 0.0796361638
H  H3  1  0.76781000  0.05906000  0.60335000  1.0 0.0888051385
H  H4  1  0.60487000  0.08247000  0.56898000  1.0 0.0796361638
H  H5  1  0.53417000  0.98059000  0.61595000  1.0 0.0796361638
H  H6  1  0.69187000  0.97658000  0.67718000  1.0 0.0888051385
H  H7  1  0.76424000  0.08050000  0.63564000  1.0 0.0888051385
H  H8  1  0.60900000  0.06207000  0.53946000  1.0 0.0700113427
H  H9  1  0.53643000  0.95995000  0.58434000  1.0 0.0796361638
H  H10  1  0.47086000  0.32485000  0.49481000  1.0 0.1120856697
H  H11  1  0.25818000  0.30495000  0.64595000  1.0 0.0796361638
H  H12  1  0.29125000  0.23219000  0.60335000  1.0 0.0888051385
H  H13  1  0.47760000  0.39513000  0.56898000  1.0 0.0796361638
H  H14  1  0.44642000  0.46583000  0.61595000  1.0 0.0796361638
H  H15  1  0.28471000  0.30813000  0.67718000  1.0 0.0888051385
H  H16  1  0.31626000  0.23576000  0.63564000  1.0 0.0888051385
H  H17  1  0.45307000  0.39100000  0.53946000  1.0 0.0700113427
H  H18  1  0.42352000  0.46357000  0.58434000  1.0 0.0796361638
H  H19  1  0.85399000  0.52914000  0.49481000  1.0 0.1120856697
H  H20  1  0.04677000  0.74182000  0.64595000  1.0 0.0796361638
H  H21  1  0.94094000  0.70875000  0.60335000  1.0 0.0888051385
H  H22  1  0.91753000  0.52240000  0.56898000  1.0 0.0796361638
H  H23  1  0.01941000  0.55358000  0.61595000  1.0 0.0796361638
H  H24  1  0.02342000  0.71529000  0.67718000  1.0 0.0888051385
H  H25  1  0.91950000  0.68374000  0.63564000  1.0 0.0888051385
H  H26  1  0.93793000  0.54693000  0.53946000  1.0 0.0700113427
H  H27  1  0.04005000  0.57648000  0.58434000  1.0 0.0796361638
H  H28  1  0.32485000  0.85399000  0.99481000  1.0 0.1120856697
H  H29  1  0.30495000  0.04677000  0.14595000  1.0 0.0796361638
H  H30  1  0.23219000  0.94094000  0.10335000  1.0 0.0888051385
H  H31  1  0.39513000  0.91753000  0.06898000  1.0 0.0796361638
H  H32  1  0.46583000  0.01941000  0.11595000  1.0 0.0796361638
H  H33  1  0.30813000  0.02342000  0.17718000  1.0 0.0888051385
H  H34  1  0.23576000  0.91950000  0.13564000  1.0 0.0888051385
H  H35  1  0.39100000  0.93793000  0.03946000  1.0 0.0700113427
H  H36  1  0.46357000  0.04005000  0.08434000  1.0 0.0796361638
H  H37  1  0.52914000  0.67515000  0.99481000  1.0 0.1120856697
H  H38  1  0.74182000  0.69505000  0.14595000  1.0 0.0796361638
H  H39  1  0.70875000  0.76781000  0.10335000  1.0 0.0888051385
H  H40  1  0.52240000  0.60487000  0.06898000  1.0 0.0796361638
H  H41  1  0.55358000  0.53417000  0.11595000  1.0 0.0796361638
H  H42  1  0.71529000  0.69187000  0.17718000  1.0 0.0888051385
H  H43  1  0.68374000  0.76424000  0.13564000  1.0 0.0888051385
H  H44  1  0.54693000  0.60900000  0.03946000  1.0 0.0700113427
H  H45  1  0.57648000  0.53643000  0.08434000  1.0 0.0796361638
H  H46  1  0.14601000  0.47086000  0.99481000  1.0 0.1120856697
H  H47  1  0.95323000  0.25818000  0.14595000  1.0 0.0796361638
H  H48  1  0.05906000  0.29125000  0.10335000  1.0 0.0888051385
H  H49  1  0.08247000  0.47760000  0.06898000  1.0 0.0796361638
H  H50  1  0.98059000  0.44642000  0.11595000  1.0 0.0796361638
H  H51  1  0.97658000  0.28471000  0.17718000  1.0 0.0888051385
H  H52  1  0.08050000  0.31626000  0.13564000  1.0 0.0888051385
H  H53  1  0.06207000  0.45307000  0.03946000  1.0 0.0700113427
H  H54  1  0.95995000  0.42352000  0.08434000  1.0 0.0796361638
H  H55  1  0.52914000  0.85399000  0.50519000  1.0 0.1120856697
H  H56  1  0.74182000  0.04677000  0.35405000  1.0 0.0796361638
H  H57  1  0.70875000  0.94094000  0.39665000  1.0 0.0888051385
H  H58  1  0.52240000  0.91753000  0.43102000  1.0 0.0796361638
H  H59  1  0.55358000  0.01941000  0.38405000  1.0 0.0796361638
H  H60  1  0.71529000  0.02342000  0.32282000  1.0 0.0888051385
H  H61  1  0.68374000  0.91950000  0.36436000  1.0 0.0888051385
H  H62  1  0.54693000  0.93793000  0.46054000  1.0 0.0700113427
H  H63  1  0.57648000  0.04005000  0.41566000  1.0 0.0796361638
H  H64  1  0.14601000  0.67515000  0.50519000  1.0 0.1120856697
H  H65  1  0.95323000  0.69505000  0.35405000  1.0 0.0796361638
H  H66  1  0.05906000  0.76781000  0.39665000  1.0 0.0888051385
H  H67  1  0.08247000  0.60487000  0.43102000  1.0 0.0796361638
H  H68  1  0.98059000  0.53417000  0.38405000  1.0 0.0796361638
H  H69  1  0.97658000  0.69187000  0.32282000  1.0 0.0888051385
H  H70  1  0.08050000  0.76424000  0.36436000  1.0 0.0888051385
H  H71  1  0.06207000  0.60900000  0.46054000  1.0 0.0700113427
H  H72  1  0.95995000  0.53643000  0.41566000  1.0 0.0796361638
H  H73  1  0.32485000  0.47086000  0.50519000  1.0 0.1120856697
H  H74  1  0.30495000  0.25818000  0.35405000  1.0 0.0796361638
H  H75  1  0.23219000  0.29125000  0.39665000  1.0 0.0888051385
H  H76  1  0.39513000  0.47760000  0.43102000  1.0 0.0796361638
H  H77  1  0.46583000  0.44642000  0.38405000  1.0 0.0796361638
H  H78  1  0.30813000  0.28471000  0.32282000  1.0 0.0888051385
H  H79  1  0.23576000  0.31626000  0.36436000  1.0 0.0888051385
H  H80  1  0.39100000  0.45307000  0.46054000  1.0 0.0700113427
H  H81  1  0.46357000  0.42352000  0.41566000  1.0 0.0796361638
H  H82  1  0.47086000  0.14601000  0.00519000  1.0 0.1120856697
H  H83  1  0.25818000  0.95323000  0.85405000  1.0 0.0796361638
H  H84  1  0.29125000  0.05906000  0.89665000  1.0 0.0888051385
H  H85  1  0.47760000  0.08247000  0.93102000  1.0 0.0796361638
H  H86  1  0.44642000  0.98059000  0.88405000  1.0 0.0796361638
H  H87  1  0.28471000  0.97658000  0.82282000  1.0 0.0888051385
H  H88  1  0.31626000  0.08050000  0.86436000  1.0 0.0888051385
H  H89  1  0.45307000  0.06207000  0.96054000  1.0 0.0700113427
H  H90  1  0.42352000  0.95995000  0.91566000  1.0 0.0796361638
H  H91  1  0.85399000  0.32485000  0.00519000  1.0 0.1120856697
H  H92  1  0.04677000  0.30495000  0.85405000  1.0 0.0796361638
H  H93  1  0.94094000  0.23219000  0.89665000  1.0 0.0888051385
H  H94  1  0.91753000  0.39513000  0.93102000  1.0 0.0796361638
H  H95  1  0.01941000  0.46583000  0.88405000  1.0 0.0796361638
H  H96  1  0.02342000  0.30813000  0.82282000  1.0 0.0888051385
H  H97  1  0.91950000  0.23576000  0.86436000  1.0 0.0888051385
H  H98  1  0.93793000  0.39100000  0.96054000  1.0 0.0700113427
H  H99  1  0.04005000  0.46357000  0.91566000  1.0 0.0796361638
H  H100  1  0.67515000  0.52914000  0.00519000  1.0 0.1120856697
H  H101  1  0.69505000  0.74182000  0.85405000  1.0 0.0796361638
H  H102  1  0.76781000  0.70875000  0.89665000  1.0 0.0888051385
H  H103  1  0.60487000  0.52240000  0.93102000  1.0 0.0796361638
H  H104  1  0.53417000  0.55358000  0.88405000  1.0 0.0796361638
H  H105  1  0.69187000  0.71529000  0.82282000  1.0 0.0888051385
H  H106  1  0.76424000  0.68374000  0.86436000  1.0 0.0888051385
H  H107  1  0.60900000  0.54693000  0.96054000  1.0 0.0700113427
H  H108  1  0.53643000  0.57648000  0.91566000  1.0 0.0796361638
H  H109  1  0.32485000  0.85399000  0.50519000  1.0 0.1120856697
H  H110  1  0.30495000  0.04677000  0.35405000  1.0 0.0796361638
H  H111  1  0.23219000  0.94094000  0.39665000  1.0 0.0888051385
H  H112  1  0.39513000  0.91753000  0.43102000  1.0 0.0796361638
H  H113  1  0.46583000  0.01941000  0.38405000  1.0 0.0796361638
H  H114  1  0.30813000  0.02342000  0.32282000  1.0 0.0888051385
H  H115  1  0.23576000  0.91950000  0.36436000  1.0 0.0888051385
H  H116  1  0.39100000  0.93793000  0.46054000  1.0 0.0700113427
H  H117  1  0.46357000  0.04005000  0.41566000  1.0 0.0796361638
H  H118  1  0.52914000  0.67515000  0.50519000  1.0 0.1120856697
H  H119  1  0.74182000  0.69505000  0.35405000  1.0 0.0796361638
H  H120  1  0.70875000  0.76781000  0.39665000  1.0 0.0888051385
H  H121  1  0.52240000  0.60487000  0.43102000  1.0 0.0796361638
H  H122  1  0.55358000  0.53417000  0.38405000  1.0 0.0796361638
H  H123  1  0.71529000  0.69187000  0.32282000  1.0 0.0888051385
H  H124  1  0.68374000  0.76424000  0.36436000  1.0 0.0888051385
H  H125  1  0.54693000  0.60900000  0.46054000  1.0 0.0700113427
H  H126  1  0.57648000  0.53643000  0.41566000  1.0 0.0796361638
H  H127  1  0.14601000  0.47086000  0.50519000  1.0 0.1120856697
H  H128  1  0.95323000  0.25818000  0.35405000  1.0 0.0796361638
H  H129  1  0.05906000  0.29125000  0.39665000  1.0 0.0888051385
H  H130  1  0.08247000  0.47760000  0.43102000  1.0 0.0796361638
H  H131  1  0.98059000  0.44642000  0.38405000  1.0 0.0796361638
H  H132  1  0.97658000  0.28471000  0.32282000  1.0 0.0888051385
H  H133  1  0.08050000  0.31626000  0.36436000  1.0 0.0888051385
H  H134  1  0.06207000  0.45307000  0.46054000  1.0 0.0700113427
H  H135  1  0.95995000  0.42352000  0.41566000  1.0 0.0796361638
H  H136  1  0.67515000  0.14601000  0.00519000  1.0 0.1120856697
H  H137  1  0.69505000  0.95323000  0.85405000  1.0 0.0888051385
H  H138  1  0.76781000  0.05906000  0.89665000  1.0 0.0888051385
H  H139  1  0.60487000  0.08247000  0.93102000  1.0 0.0796361638
H  H140  1  0.53417000  0.98059000  0.88405000  1.0 0.0796361638
H  H141  1  0.69187000  0.97658000  0.82282000  1.0 0.0888051385
H  H142  1  0.76424000  0.08050000  0.86436000  1.0 0.0888051385
H  H143  1  0.60900000  0.06207000  0.96054000  1.0 0.0700113427
H  H144  1  0.53643000  0.95995000  0.91566000  1.0 0.0796361638
H  H145  1  0.47086000  0.32485000  0.00519000  1.0 0.1120856697
H  H146  1  0.25818000  0.30495000  0.85405000  1.0 0.0796361638
H  H147  1  0.29125000  0.23219000  0.89665000  1.0 0.0888051385
H  H148  1  0.47760000  0.39513000  0.93102000  1.0 0.0796361638
H  H149  1  0.44642000  0.46583000  0.88405000  1.0 0.0796361638
H  H150  1  0.28471000  0.30813000  0.82282000  1.0 0.0888051385
H  H151  1  0.31626000  0.23576000  0.86436000  1.0 0.0888051385
H  H152  1  0.45307000  0.39100000  0.96054000  1.0 0.0700113427
H  H153  1  0.42352000  0.46357000  0.91566000  1.0 0.0796361638
H  H154  1  0.85399000  0.52914000  0.00519000  1.0 0.1120856697
H  H155  1  0.04677000  0.74182000  0.85405000  1.0 0.0888051385
H  H156  1  0.94094000  0.70875000  0.89665000  1.0 0.0888051385
H  H157  1  0.91753000  0.52240000  0.93102000  1.0 0.0796361638
H  H158  1  0.01941000  0.55358000  0.88405000  1.0 0.0796361638
H  H159  1  0.02342000  0.71529000  0.82282000  1.0 0.0888051385
H  H160  1  0.91950000  0.68374000  0.86436000  1.0 0.0888051385
H  H161  1  0.93793000  0.54693000  0.96054000  1.0 0.0700113427
H  H162  1  0.04005000  0.57648000  0.91566000  1.0 0.0796361638
H  H163  1  0.47086000  0.14601000  0.49481000  1.0 0.1120856697
H  H164  1  0.25818000  0.95323000  0.64595000  1.0 0.0796361638
H  H165  1  0.29125000  0.05906000  0.60335000  1.0 0.0888051385
H  H166  1  0.47760000  0.08247000  0.56898000  1.0 0.0796361638
H  H167  1  0.44642000  0.98059000  0.61595000  1.0 0.0796361638
H  H168  1  0.28471000  0.97658000  0.67718000  1.0 0.0888051385
H  H169  1  0.31626000  0.08050000  0.63564000  1.0 0.0888051385
H  H170  1  0.45307000  0.06207000  0.53946000  1.0 0.0700113427
H  H171  1  0.42352000  0.95995000  0.58434000  1.0 0.0796361638
H  H172  1  0.85399000  0.32485000  0.49481000  1.0 0.1120856697
H  H173  1  0.04677000  0.30495000  0.64595000  1.0 0.0796361638
H  H174  1  0.94094000  0.23219000  0.60335000  1.0 0.0888051385
H  H175  1  0.91753000  0.39513000  0.56898000  1.0 0.0796361638
H  H176  1  0.01941000  0.46583000  0.61595000  1.0 0.0796361638
H  H177  1  0.02342000  0.30813000  0.67718000  1.0 0.0888051385
H  H178  1  0.91950000  0.23576000  0.63564000  1.0 0.0888051385
H  H179  1  0.93793000  0.39100000  0.53946000  1.0 0.0700113427
H  H180  1  0.04005000  0.46357000  0.58434000  1.0 0.0796361638
H  H181  1  0.67515000  0.52914000  0.49481000  1.0 0.1120856697
H  H182  1  0.69505000  0.74182000  0.64595000  1.0 0.0796361638
H  H183  1  0.76781000  0.70875000  0.60335000  1.0 0.0888051385
H  H184  1  0.60487000  0.52240000  0.56898000  1.0 0.0796361638
H  H185  1  0.53417000  0.55358000  0.61595000  1.0 0.0796361638
H  H186  1  0.69187000  0.71529000  0.67718000  1.0 0.0888051385
H  H187  1  0.76424000  0.68374000  0.63564000  1.0 0.0888051385
H  H188  1  0.60900000  0.54693000  0.53946000  1.0 0.0700113427
H  H189  1  0.53643000  0.57648000  0.58434000  1.0 0.0796361638
H  H190  1  0.52914000  0.85399000  0.99481000  1.0 0.1120856697
H  H191  1  0.74182000  0.04677000  0.14595000  1.0 0.0796361638
H  H192  1  0.70875000  0.94094000  0.10335000  1.0 0.0888051385
H  H193  1  0.52240000  0.91753000  0.06898000  1.0 0.0796361638
H  H194  1  0.55358000  0.01941000  0.11595000  1.0 0.0796361638
H  H195  1  0.71529000  0.02342000  0.17718000  1.0 0.0888051385
H  H196  1  0.68374000  0.91950000  0.13564000  1.0 0.0888051385
H  H197  1  0.54693000  0.93793000  0.03946000  1.0 0.0700113427
H  H198  1  0.57648000  0.04005000  0.08434000  1.0 0.0796361638
H  H199  1  0.14601000  0.67515000  0.99481000  1.0 0.1120856697
H  H200  1  0.95323000  0.69505000  0.14595000  1.0 0.0796361638
H  H201  1  0.05906000  0.76781000  0.10335000  1.0 0.0888051385
H  H202  1  0.08247000  0.60487000  0.06898000  1.0 0.0796361638
H  H203  1  0.98059000  0.53417000  0.11595000  1.0 0.0796361638
H  H204  1  0.97658000  0.69187000  0.17718000  1.0 0.0888051385
H  H205  1  0.08050000  0.76424000  0.13564000  1.0 0.0888051385
H  H206  1  0.06207000  0.60900000  0.03946000  1.0 0.0700113427
H  H207  1  0.95995000  0.53643000  0.08434000  1.0 0.0796361638
H  H208  1  0.32485000  0.47086000  0.99481000  1.0 0.1120856697
H  H209  1  0.30495000  0.25818000  0.14595000  1.0 0.0796361638
H  H210  1  0.23219000  0.29125000  0.10335000  1.0 0.0888051385
H  H211  1  0.39513000  0.47760000  0.06898000  1.0 0.0796361638
H  H212  1  0.46583000  0.44642000  0.11595000  1.0 0.0796361638
H  H213  1  0.30813000  0.28471000  0.17718000  1.0 0.0888051385
H  H214  1  0.23576000  0.31626000  0.13564000  1.0 0.0888051385
H  H215  1  0.39100000  0.45307000  0.03946000  1.0 0.0700113427
H  H216  1  0.46357000  0.42352000  0.08434000  1.0 0.0796361638
H  H217  1  0.82024000  0.17975000  0.61277000  1.0 0.0966321771
H  H218  1  0.35951000  0.17975000  0.61277000  1.0 0.0966321771
H  H219  1  0.82024000  0.64049000  0.61277000  1.0 0.0966321771
H  H220  1  0.17975000  0.82025000  0.11277000  1.0 0.0966321771
H  H221  1  0.64049000  0.82025000  0.11277000  1.0 0.0966321771
H  H222  1  0.17975000  0.35951000  0.11277000  1.0 0.0966321771
H  H223  1  0.64049000  0.82025000  0.38723000  1.0 0.0966321771
H  H224  1  0.17975000  0.82025000  0.38723000  1.0 0.0966321771
H  H225  1  0.17975000  0.35951000  0.38723000  1.0 0.0966321771
H  H226  1  0.35951000  0.17975000  0.88723000  1.0 0.0966321771
H  H227  1  0.82024000  0.17975000  0.88723000  1.0 0.0966321771
H  H228  1  0.82024000  0.64049000  0.88723000  1.0 0.0966321771
C  C1  1  0.55940000  0.89120000  0.66430000  1.0 0.5460767244
C  C2  1  0.60710000  0.95660000  0.63470000  1.0 -0.0223122831
C  C3  1  0.69470000  0.08350000  0.58320000  1.0 0.0341441784
C  C4  1  0.74070000  0.15180000  0.55810000  1.0 0.0700113427
C  C5  1  0.71890000  0.17480000  0.51120000  1.0 -0.2259425526
C  C6  1  0.67690000  0.98000000  0.63110000  1.0 -0.0223122831
C  C7  1  0.72020000  0.04320000  0.60560000  1.0 -0.0316522772
C  C8  1  0.62400000  0.05750000  0.58590000  1.0 -0.0513041999
C  C9  1  0.58160000  0.99600000  0.61260000  1.0 -0.040397207
C  C10  1  0.67420000  0.99400000  0.64900000  1.0 -0.0563841561
C  C11  1  0.71760000  0.05610000  0.62420000  1.0 -0.040397207
C  C12  1  0.62660000  0.04550000  0.56840000  1.0 -0.077026762
C  C13  1  0.58350000  0.98390000  0.59440000  1.0 -0.0726031877
C  C14  1  0.33180000  0.44060000  0.66430000  1.0 0.5460767244
C  C15  1  0.34950000  0.39290000  0.63470000  1.0 -0.0223122831
C  C16  1  0.38880000  0.30530000  0.58320000  1.0 0.0341441784
C  C17  1  0.41110000  0.25930000  0.55810000  1.0 0.0700113427
C  C18  1  0.45590000  0.28110000  0.51120000  1.0 -0.2259425526
C  C19  1  0.30310000  0.32310000  0.63110000  1.0 -0.0316522772
C  C20  1  0.32300000  0.27980000  0.60560000  1.0 -0.0316522772
C  C21  1  0.43350000  0.37600000  0.58590000  1.0 -0.0513041999
C  C22  1  0.41440000  0.41840000  0.61260000  1.0 -0.040397207
C  C23  1  0.31980000  0.32580000  0.64900000  1.0 -0.0563841561
C  C24  1  0.33850000  0.28240000  0.62420000  1.0 -0.040397207
C  C25  1  0.41890000  0.37340000  0.56840000  1.0 -0.077026762
C  C26  1  0.40040000  0.41650000  0.59440000  1.0 -0.0726031877
C  C27  1  0.10880000  0.66820000  0.66430000  1.0 0.5460767244
C  C28  1  0.04340000  0.65050000  0.63470000  1.0 -0.0223122831
C  C29  1  0.91650000  0.61120000  0.58320000  1.0 0.0341441784
C  C30  1  0.84820000  0.58890000  0.55810000  1.0 0.0700113427
C  C31  1  0.82520000  0.54410000  0.51120000  1.0 -0.2259425526
C  C32  1  0.02000000  0.69690000  0.63110000  1.0 -0.0316522772
C  C33  1  0.95680000  0.67700000  0.60560000  1.0 -0.0316522772
C  C34  1  0.94250000  0.56650000  0.58590000  1.0 -0.0513041999
C  C35  1  0.00400000  0.58560000  0.61260000  1.0 -0.040397207
C  C36  1  0.00600000  0.68020000  0.64900000  1.0 -0.0563841561
C  C37  1  0.94390000  0.66150000  0.62420000  1.0 -0.040397207
C  C38  1  0.95450000  0.58110000  0.56840000  1.0 -0.077026762
C  C39  1  0.01610000  0.59960000  0.59440000  1.0 -0.0726031877
C  C40  1  0.44060000  0.10880000  0.16430000  1.0 0.5460767244
C  C41  1  0.39290000  0.04340000  0.13470000  1.0 -0.0223122831
C  C42  1  0.30530000  0.91650000  0.08320000  1.0 0.0341441784
C  C43  1  0.25930000  0.84820000  0.05810000  1.0 0.0700113427
C  C44  1  0.28110000  0.82520000  0.01120000  1.0 -0.2259425526
C  C45  1  0.32310000  0.02000000  0.13110000  1.0 -0.0223122831
C  C46  1  0.27980000  0.95680000  0.10560000  1.0 -0.0316522772
C  C47  1  0.37600000  0.94250000  0.08590000  1.0 -0.0513041999
C  C48  1  0.41840000  0.00400000  0.11260000  1.0 -0.040397207
C  C49  1  0.32580000  0.00600000  0.14900000  1.0 -0.0563841561
C  C50  1  0.28240000  0.94390000  0.12420000  1.0 -0.040397207
C  C51  1  0.37340000  0.95450000  0.06840000  1.0 -0.077026762
C  C52  1  0.41650000  0.01610000  0.09440000  1.0 -0.0726031877
C  C53  1  0.66820000  0.55940000  0.16430000  1.0 0.5460767244
C  C54  1  0.65050000  0.60710000  0.13470000  1.0 -0.0223122831
C  C55  1  0.61120000  0.69470000  0.08320000  1.0 0.0341441784
C  C56  1  0.58890000  0.74070000  0.05810000  1.0 0.0700113427
C  C57  1  0.54410000  0.71890000  0.01120000  1.0 -0.2259425526
C  C58  1  0.69690000  0.67690000  0.13110000  1.0 -0.0223122831
C  C59  1  0.67700000  0.72020000  0.10560000  1.0 -0.0316522772
C  C60  1  0.56650000  0.62400000  0.08590000  1.0 -0.0513041999
C  C61  1  0.58560000  0.58160000  0.11260000  1.0 -0.040397207
C  C62  1  0.68020000  0.67420000  0.14900000  1.0 -0.0563841561
C  C63  1  0.66150000  0.71760000  0.12420000  1.0 -0.040397207
C  C64  1  0.58110000  0.62660000  0.06840000  1.0 -0.077026762
C  C65  1  0.59960000  0.58350000  0.09440000  1.0 -0.0726031877
C  C66  1  0.89120000  0.33180000  0.16430000  1.0 0.5460767244
C  C67  1  0.95660000  0.34950000  0.13470000  1.0 -0.0223122831
C  C68  1  0.08350000  0.38880000  0.08320000  1.0 0.0341441784
C  C69  1  0.15180000  0.41110000  0.05810000  1.0 0.0700113427
C  C70  1  0.17480000  0.45590000  0.01120000  1.0 -0.2259425526
C  C71  1  0.98000000  0.30310000  0.13110000  1.0 -0.0223122831
C  C72  1  0.04320000  0.32300000  0.10560000  1.0 -0.0316522772
C  C73  1  0.05750000  0.43350000  0.08590000  1.0 -0.0513041999
C  C74  1  0.99600000  0.41440000  0.11260000  1.0 -0.040397207
C  C75  1  0.99400000  0.31980000  0.14900000  1.0 -0.0563841561
C  C76  1  0.05610000  0.33850000  0.12420000  1.0 -0.040397207
C  C77  1  0.04550000  0.41890000  0.06840000  1.0 -0.077026762
C  C78  1  0.98390000  0.40040000  0.09440000  1.0 -0.0726031877
C  C79  1  0.66820000  0.10880000  0.33570000  1.0 0.5460767244
C  C80  1  0.65050000  0.04340000  0.36530000  1.0 -0.0223122831
C  C81  1  0.61120000  0.91650000  0.41680000  1.0 0.0341441784
C  C82  1  0.58890000  0.84820000  0.44190000  1.0 0.0700113427
C  C83  1  0.54410000  0.82520000  0.48880000  1.0 -0.2259425526
C  C84  1  0.69690000  0.02000000  0.36890000  1.0 -0.0223122831
C  C85  1  0.67700000  0.95680000  0.39440000  1.0 -0.0316522772
C  C86  1  0.56650000  0.94250000  0.41410000  1.0 -0.0513041999
C  C87  1  0.58560000  0.00400000  0.38740000  1.0 -0.040397207
C  C88  1  0.68020000  0.00600000  0.35100000  1.0 -0.0563841561
C  C89  1  0.66150000  0.94390000  0.37580000  1.0 -0.040397207
C  C90  1  0.58110000  0.95450000  0.43160000  1.0 -0.077026762
C  C91  1  0.59960000  0.01610000  0.40560000  1.0 -0.0726031877
C  C92  1  0.89120000  0.55940000  0.33570000  1.0 0.5460767244
C  C93  1  0.95660000  0.60710000  0.36530000  1.0 -0.0223122831
C  C94  1  0.08350000  0.69470000  0.41680000  1.0 0.0341441784
C  C95  1  0.15180000  0.74070000  0.44190000  1.0 0.0700113427
C  C96  1  0.17480000  0.71890000  0.48880000  1.0 -0.2259425526
C  C97  1  0.98000000  0.67690000  0.36890000  1.0 -0.0223122831
C  C98  1  0.04320000  0.72020000  0.39440000  1.0 -0.0316522772
C  C99  1  0.05750000  0.62400000  0.41410000  1.0 -0.0513041999
C  C100  1  0.99600000  0.58160000  0.38740000  1.0 -0.040397207
C  C101  1  0.99400000  0.67420000  0.35100000  1.0 -0.0563841561
C  C102  1  0.05610000  0.71760000  0.37580000  1.0 -0.040397207
C  C103  1  0.04550000  0.62660000  0.43160000  1.0 -0.077026762
C  C104  1  0.98390000  0.58350000  0.40560000  1.0 -0.0726031877
C  C105  1  0.44060000  0.33180000  0.33570000  1.0 0.5460767244
C  C106  1  0.39290000  0.34950000  0.36530000  1.0 -0.0223122831
C  C107  1  0.30530000  0.38880000  0.41680000  1.0 0.0341441784
C  C108  1  0.25930000  0.41110000  0.44190000  1.0 0.0700113427
C  C109  1  0.28110000  0.45590000  0.48880000  1.0 -0.2259425526
C  C110  1  0.32310000  0.30310000  0.36890000  1.0 -0.0223122831
C  C111  1  0.27980000  0.32300000  0.39440000  1.0 -0.0316522772
C  C112  1  0.37600000  0.43350000  0.41410000  1.0 -0.0513041999
C  C113  1  0.41840000  0.41440000  0.38740000  1.0 -0.040397207
C  C114  1  0.32580000  0.31980000  0.35100000  1.0 -0.0563841561
C  C115  1  0.28240000  0.33850000  0.37580000  1.0 -0.040397207
C  C116  1  0.37340000  0.41890000  0.43160000  1.0 -0.077026762
C  C117  1  0.41650000  0.40040000  0.40560000  1.0 -0.0726031877
C  C118  1  0.33180000  0.89120000  0.83570000  1.0 0.5460767244
C  C119  1  0.34950000  0.95660000  0.86530000  1.0 -0.0223122831
C  C120  1  0.38880000  0.08350000  0.91680000  1.0 0.0341441784
C  C121  1  0.41110000  0.15180000  0.94190000  1.0 0.0700113427
C  C122  1  0.45590000  0.17480000  0.98880000  1.0 -0.2259425526
C  C123  1  0.30310000  0.98000000  0.86890000  1.0 -0.0316522772
C  C124  1  0.32300000  0.04320000  0.89440000  1.0 -0.0316522772
C  C125  1  0.43350000  0.05750000  0.91410000  1.0 -0.0513041999
C  C126  1  0.41440000  0.99600000  0.88740000  1.0 -0.040397207
C  C127  1  0.31980000  0.99400000  0.85100000  1.0 -0.0563841561
C  C128  1  0.33850000  0.05610000  0.87580000  1.0 -0.040397207
C  C129  1  0.41890000  0.04550000  0.93160000  1.0 -0.077026762
C  C130  1  0.40040000  0.98390000  0.90560000  1.0 -0.0726031877
C  C131  1  0.10880000  0.44060000  0.83570000  1.0 0.5460767244
C  C132  1  0.04340000  0.39290000  0.86530000  1.0 -0.0223122831
C  C133  1  0.91650000  0.30530000  0.91680000  1.0 0.0341441784
C  C134  1  0.84820000  0.25930000  0.94190000  1.0 0.0700113427
C  C135  1  0.82520000  0.28110000  0.98880000  1.0 -0.2259425526
C  C136  1  0.02000000  0.32310000  0.86890000  1.0 -0.0316522772
C  C137  1  0.95680000  0.27980000  0.89440000  1.0 -0.0316522772
C  C138  1  0.94250000  0.37600000  0.91410000  1.0 -0.0513041999
C  C139  1  0.00400000  0.41840000  0.88740000  1.0 -0.040397207
C  C140  1  0.00600000  0.32580000  0.85100000  1.0 -0.0563841561
C  C141  1  0.94390000  0.28240000  0.87580000  1.0 -0.040397207
C  C142  1  0.95450000  0.37340000  0.93160000  1.0 -0.077026762
C  C143  1  0.01610000  0.41650000  0.90560000  1.0 -0.0726031877
C  C144  1  0.55940000  0.66820000  0.83570000  1.0 0.5460767244
C  C145  1  0.60710000  0.65050000  0.86530000  1.0 -0.0223122831
C  C146  1  0.69470000  0.61120000  0.91680000  1.0 0.0341441784
C  C147  1  0.74070000  0.58890000  0.94190000  1.0 0.0700113427
C  C148  1  0.71890000  0.54410000  0.98880000  1.0 -0.2259425526
C  C149  1  0.67690000  0.69690000  0.86890000  1.0 -0.0316522772
C  C150  1  0.72020000  0.67700000  0.89440000  1.0 -0.0316522772
C  C151  1  0.62400000  0.56650000  0.91410000  1.0 -0.0513041999
C  C152  1  0.58160000  0.58560000  0.88740000  1.0 -0.040397207
C  C153  1  0.67420000  0.68020000  0.85100000  1.0 -0.0563841561
C  C154  1  0.71760000  0.66150000  0.87580000  1.0 -0.040397207
C  C155  1  0.62660000  0.58110000  0.93160000  1.0 -0.077026762
C  C156  1  0.58350000  0.59960000  0.90560000  1.0 -0.0726031877
C  C157  1  0.44060000  0.10880000  0.33570000  1.0 0.5460767244
C  C158  1  0.39290000  0.04340000  0.36530000  1.0 -0.0223122831
C  C159  1  0.30530000  0.91650000  0.41680000  1.0 0.0341441784
C  C160  1  0.25930000  0.84820000  0.44190000  1.0 0.0700113427
C  C161  1  0.28110000  0.82520000  0.48880000  1.0 -0.2259425526
C  C162  1  0.32310000  0.02000000  0.36890000  1.0 -0.0223122831
C  C163  1  0.27980000  0.95680000  0.39440000  1.0 -0.0316522772
C  C164  1  0.37600000  0.94250000  0.41410000  1.0 -0.0513041999
C  C165  1  0.41840000  0.00400000  0.38740000  1.0 -0.040397207
C  C166  1  0.32580000  0.00600000  0.35100000  1.0 -0.0563841561
C  C167  1  0.28240000  0.94390000  0.37580000  1.0 -0.040397207
C  C168  1  0.37340000  0.95450000  0.43160000  1.0 -0.077026762
C  C169  1  0.41650000  0.01610000  0.40560000  1.0 -0.0726031877
C  C170  1  0.66820000  0.55940000  0.33570000  1.0 0.5460767244
C  C171  1  0.65050000  0.60710000  0.36530000  1.0 -0.0223122831
C  C172  1  0.61120000  0.69470000  0.41680000  1.0 0.0341441784
C  C173  1  0.58890000  0.74070000  0.44190000  1.0 0.0700113427
C  C174  1  0.54410000  0.71890000  0.48880000  1.0 -0.2259425526
C  C175  1  0.69690000  0.67690000  0.36890000  1.0 -0.0223122831
C  C176  1  0.67700000  0.72020000  0.39440000  1.0 -0.0316522772
C  C177  1  0.56650000  0.62400000  0.41410000  1.0 -0.0513041999
C  C178  1  0.58560000  0.58160000  0.38740000  1.0 -0.040397207
C  C179  1  0.68020000  0.67420000  0.35100000  1.0 -0.0563841561
C  C180  1  0.66150000  0.71760000  0.37580000  1.0 -0.040397207
C  C181  1  0.58110000  0.62660000  0.43160000  1.0 -0.077026762
C  C182  1  0.59960000  0.58350000  0.40560000  1.0 -0.0726031877
C  C183  1  0.89120000  0.33180000  0.33570000  1.0 0.5460767244
C  C184  1  0.95660000  0.34950000  0.36530000  1.0 -0.0223122831
C  C185  1  0.08350000  0.38880000  0.41680000  1.0 0.0341441784
C  C186  1  0.15180000  0.41110000  0.44190000  1.0 0.0700113427
C  C187  1  0.17480000  0.45590000  0.48880000  1.0 -0.2259425526
C  C188  1  0.98000000  0.30310000  0.36890000  1.0 -0.0223122831
C  C189  1  0.04320000  0.32300000  0.39440000  1.0 -0.0316522772
C  C190  1  0.05750000  0.43350000  0.41410000  1.0 -0.0513041999
C  C191  1  0.99600000  0.41440000  0.38740000  1.0 -0.040397207
C  C192  1  0.99400000  0.31980000  0.35100000  1.0 -0.0563841561
C  C193  1  0.05610000  0.33850000  0.37580000  1.0 -0.040397207
C  C194  1  0.04550000  0.41890000  0.43160000  1.0 -0.077026762
C  C195  1  0.98390000  0.40040000  0.40560000  1.0 -0.0726031877
C  C196  1  0.55940000  0.89120000  0.83570000  1.0 0.5460767244
C  C197  1  0.60710000  0.95660000  0.86530000  1.0 -0.0223122831
C  C198  1  0.69470000  0.08350000  0.91680000  1.0 0.0341441784
C  C199  1  0.74070000  0.15180000  0.94190000  1.0 0.0700113427
C  C200  1  0.71890000  0.17480000  0.98880000  1.0 -0.2259425526
C  C201  1  0.67690000  0.98000000  0.86890000  1.0 -0.0223122831
C  C202  1  0.72020000  0.04320000  0.89440000  1.0 -0.0316522772
C  C203  1  0.62400000  0.05750000  0.91410000  1.0 -0.0513041999
C  C204  1  0.58160000  0.99600000  0.88740000  1.0 -0.040397207
C  C205  1  0.67420000  0.99400000  0.85100000  1.0 -0.0563841561
C  C206  1  0.71760000  0.05610000  0.87580000  1.0 -0.040397207
C  C207  1  0.62660000  0.04550000  0.93160000  1.0 -0.077026762
C  C208  1  0.58350000  0.98390000  0.90560000  1.0 -0.0726031877
C  C209  1  0.33180000  0.44060000  0.83570000  1.0 0.5460767244
C  C210  1  0.34950000  0.39290000  0.86530000  1.0 -0.0223122831
C  C211  1  0.38880000  0.30530000  0.91680000  1.0 0.0341441784
C  C212  1  0.41110000  0.25930000  0.94190000  1.0 0.0700113427
C  C213  1  0.45590000  0.28110000  0.98880000  1.0 -0.2259425526
C  C214  1  0.30310000  0.32310000  0.86890000  1.0 -0.0316522772
C  C215  1  0.32300000  0.27980000  0.89440000  1.0 -0.0316522772
C  C216  1  0.43350000  0.37600000  0.91410000  1.0 -0.0513041999
C  C217  1  0.41440000  0.41840000  0.88740000  1.0 -0.040397207
C  C218  1  0.31980000  0.32580000  0.85100000  1.0 -0.0563841561
C  C219  1  0.33850000  0.28240000  0.87580000  1.0 -0.040397207
C  C220  1  0.41890000  0.37340000  0.93160000  1.0 -0.077026762
C  C221  1  0.40040000  0.41650000  0.90560000  1.0 -0.0726031877
C  C222  1  0.10880000  0.66820000  0.83570000  1.0 0.5460767244
C  C223  1  0.04340000  0.65050000  0.86530000  1.0 -0.0223122831
C  C224  1  0.91650000  0.61120000  0.91680000  1.0 0.0341441784
C  C225  1  0.84820000  0.58890000  0.94190000  1.0 0.0700113427
C  C226  1  0.82520000  0.54410000  0.98880000  1.0 -0.2259425526
C  C227  1  0.02000000  0.69690000  0.86890000  1.0 -0.0316522772
C  C228  1  0.95680000  0.67700000  0.89440000  1.0 -0.0316522772
C  C229  1  0.94250000  0.56650000  0.91410000  1.0 -0.0513041999
C  C230  1  0.00400000  0.58560000  0.88740000  1.0 -0.040397207
C  C231  1  0.00600000  0.68020000  0.85100000  1.0 -0.0563841561
C  C232  1  0.94390000  0.66150000  0.87580000  1.0 -0.040397207
C  C233  1  0.95450000  0.58110000  0.93160000  1.0 -0.077026762
C  C234  1  0.01610000  0.59960000  0.90560000  1.0 -0.0726031877
C  C235  1  0.33180000  0.89120000  0.66430000  1.0 0.5460767244
C  C236  1  0.34950000  0.95660000  0.63470000  1.0 -0.0223122831
C  C237  1  0.38880000  0.08350000  0.58320000  1.0 0.0341441784
C  C238  1  0.41110000  0.15180000  0.55810000  1.0 0.0700113427
C  C239  1  0.45590000  0.17480000  0.51120000  1.0 -0.2259425526
C  C240  1  0.30310000  0.98000000  0.63110000  1.0 -0.0316522772
C  C241  1  0.32300000  0.04320000  0.60560000  1.0 -0.0316522772
C  C242  1  0.43350000  0.05750000  0.58590000  1.0 -0.0513041999
C  C243  1  0.41440000  0.99600000  0.61260000  1.0 -0.040397207
C  C244  1  0.31980000  0.99400000  0.64900000  1.0 -0.0563841561
C  C245  1  0.33850000  0.05610000  0.62420000  1.0 -0.040397207
C  C246  1  0.41890000  0.04550000  0.56840000  1.0 -0.077026762
C  C247  1  0.40040000  0.98390000  0.59440000  1.0 -0.0726031877
C  C248  1  0.10880000  0.44060000  0.66430000  1.0 0.5460767244
C  C249  1  0.04340000  0.39290000  0.63470000  1.0 -0.0223122831
C  C250  1  0.91650000  0.30530000  0.58320000  1.0 0.0341441784
C  C251  1  0.84820000  0.25930000  0.55810000  1.0 0.0700113427
C  C252  1  0.82520000  0.28110000  0.51120000  1.0 -0.2259425526
C  C253  1  0.02000000  0.32310000  0.63110000  1.0 -0.0316522772
C  C254  1  0.95680000  0.27980000  0.60560000  1.0 -0.0316522772
C  C255  1  0.94250000  0.37600000  0.58590000  1.0 -0.0513041999
C  C256  1  0.00400000  0.41840000  0.61260000  1.0 -0.040397207
C  C257  1  0.00600000  0.32580000  0.64900000  1.0 -0.0563841561
C  C258  1  0.94390000  0.28240000  0.62420000  1.0 -0.040397207
C  C259  1  0.95450000  0.37340000  0.56840000  1.0 -0.077026762
C  C260  1  0.01610000  0.41650000  0.59440000  1.0 -0.0726031877
C  C261  1  0.55940000  0.66820000  0.66430000  1.0 0.5460767244
C  C262  1  0.60710000  0.65050000  0.63470000  1.0 -0.0223122831
C  C263  1  0.69470000  0.61120000  0.58320000  1.0 0.0341441784
C  C264  1  0.74070000  0.58890000  0.55810000  1.0 0.0700113427
C  C265  1  0.71890000  0.54410000  0.51120000  1.0 -0.2259425526
C  C266  1  0.67690000  0.69690000  0.63110000  1.0 -0.0223122831
C  C267  1  0.72020000  0.67700000  0.60560000  1.0 -0.0316522772
C  C268  1  0.62400000  0.56650000  0.58590000  1.0 -0.0513041999
C  C269  1  0.58160000  0.58560000  0.61260000  1.0 -0.040397207
C  C270  1  0.67420000  0.68020000  0.64900000  1.0 -0.0563841561
C  C271  1  0.71760000  0.66150000  0.62420000  1.0 -0.040397207
C  C272  1  0.62660000  0.58110000  0.56840000  1.0 -0.077026762
C  C273  1  0.58350000  0.59960000  0.59440000  1.0 -0.0726031877
C  C274  1  0.66820000  0.10880000  0.16430000  1.0 0.5460767244
C  C275  1  0.65050000  0.04340000  0.13470000  1.0 -0.0223122831
C  C276  1  0.61120000  0.91650000  0.08320000  1.0 0.0341441784
C  C277  1  0.58890000  0.84820000  0.05810000  1.0 0.0700113427
C  C278  1  0.54410000  0.82520000  0.01120000  1.0 -0.2259425526
C  C279  1  0.69690000  0.02000000  0.13110000  1.0 -0.0223122831
C  C280  1  0.67700000  0.95680000  0.10560000  1.0 -0.0316522772
C  C281  1  0.56650000  0.94250000  0.08590000  1.0 -0.0513041999
C  C282  1  0.58560000  0.00400000  0.11260000  1.0 -0.040397207
C  C283  1  0.68020000  0.00600000  0.14900000  1.0 -0.0563841561
C  C284  1  0.66150000  0.94390000  0.12420000  1.0 -0.040397207
C  C285  1  0.58110000  0.95450000  0.06840000  1.0 -0.077026762
C  C286  1  0.59960000  0.01610000  0.09440000  1.0 -0.0726031877
C  C287  1  0.89120000  0.55940000  0.16430000  1.0 0.5460767244
C  C288  1  0.95660000  0.60710000  0.13470000  1.0 -0.0223122831
C  C289  1  0.08350000  0.69470000  0.08320000  1.0 0.0341441784
C  C290  1  0.15180000  0.74070000  0.05810000  1.0 0.0700113427
C  C291  1  0.17480000  0.71890000  0.01120000  1.0 -0.2259425526
C  C292  1  0.98000000  0.67690000  0.13110000  1.0 -0.0223122831
C  C293  1  0.04320000  0.72020000  0.10560000  1.0 -0.0316522772
C  C294  1  0.05750000  0.62400000  0.08590000  1.0 -0.0513041999
C  C295  1  0.99600000  0.58160000  0.11260000  1.0 -0.040397207
C  C296  1  0.99400000  0.67420000  0.14900000  1.0 -0.0563841561
C  C297  1  0.05610000  0.71760000  0.12420000  1.0 -0.040397207
C  C298  1  0.04550000  0.62660000  0.06840000  1.0 -0.077026762
C  C299  1  0.98390000  0.58350000  0.09440000  1.0 -0.0726031877
C  C300  1  0.44060000  0.33180000  0.16430000  1.0 0.5460767244
C  C301  1  0.39290000  0.34950000  0.13470000  1.0 -0.0223122831
C  C302  1  0.30530000  0.38880000  0.08320000  1.0 0.0341441784
C  C303  1  0.25930000  0.41110000  0.05810000  1.0 0.0700113427
C  C304  1  0.28110000  0.45590000  0.01120000  1.0 -0.2259425526
C  C305  1  0.32310000  0.30310000  0.13110000  1.0 -0.0223122831
C  C306  1  0.27980000  0.32300000  0.10560000  1.0 -0.0316522772
C  C307  1  0.37600000  0.43350000  0.08590000  1.0 -0.0513041999
C  C308  1  0.41840000  0.41440000  0.11260000  1.0 -0.040397207
C  C309  1  0.32580000  0.31980000  0.14900000  1.0 -0.0563841561
C  C310  1  0.28240000  0.33850000  0.12420000  1.0 -0.040397207
C  C311  1  0.37340000  0.41890000  0.06840000  1.0 -0.077026762
C  C312  1  0.41650000  0.40040000  0.09440000  1.0 -0.0726031877
C  C313  1  0.80520000  0.19480000  0.58080000  1.0 -0.1960247611
C  C314  1  0.76090000  0.23910000  0.48860000  1.0 0.0396699602
C  C315  1  0.73575000  0.26425000  0.43950000  1.0 0.6473569269
C  C316  1  0.38960000  0.19480000  0.58080000  1.0 -0.1960247611
C  C317  1  0.47820000  0.23910000  0.48860000  1.0 0.0396699602
C  C318  1  0.52850000  0.26425000  0.43950000  1.0 0.6473569269
C  C319  1  0.80520000  0.61040000  0.58080000  1.0 -0.1960247611
C  C320  1  0.76090000  0.52180000  0.48860000  1.0 0.0396699602
C  C321  1  0.73575000  0.47150000  0.43950000  1.0 0.6473569269
C  C322  1  0.19480000  0.80520000  0.08080000  1.0 -0.1960247611
C  C323  1  0.23910000  0.76090000  0.98860000  1.0 0.0396699602
C  C324  1  0.26425000  0.73575000  0.93950000  1.0 0.6473569269
C  C325  1  0.61040000  0.80520000  0.08080000  1.0 -0.1960247611
C  C326  1  0.52180000  0.76090000  0.98860000  1.0 0.0396699602
C  C327  1  0.47150000  0.73575000  0.93950000  1.0 0.6473569269
C  C328  1  0.19480000  0.38960000  0.08080000  1.0 -0.1960247611
C  C329  1  0.23910000  0.47820000  0.98860000  1.0 0.0396699602
C  C330  1  0.26425000  0.52850000  0.93950000  1.0 0.6473569269
C  C331  1  0.61040000  0.80520000  0.41920000  1.0 -0.1960247611
C  C332  1  0.52180000  0.76090000  0.51140000  1.0 0.0396699602
C  C333  1  0.47150000  0.73575000  0.56050000  1.0 0.6473569269
C  C334  1  0.19480000  0.80520000  0.41920000  1.0 -0.1960247611
C  C335  1  0.23910000  0.76090000  0.51140000  1.0 0.0396699602
C  C336  1  0.26425000  0.73575000  0.56050000  1.0 0.6473569269
C  C337  1  0.19480000  0.38960000  0.41920000  1.0 -0.1960247611
C  C338  1  0.23910000  0.47820000  0.51140000  1.0 0.0396699602
C  C339  1  0.26425000  0.52850000  0.56050000  1.0 0.6473569269
C  C340  1  0.38960000  0.19480000  0.91920000  1.0 -0.1960247611
C  C341  1  0.47820000  0.23910000  0.01140000  1.0 0.0396699602
C  C342  1  0.52850000  0.26425000  0.06050000  1.0 0.6473569269
C  C343  1  0.80520000  0.19480000  0.91920000  1.0 -0.1960247611
C  C344  1  0.76090000  0.23910000  0.01140000  1.0 0.0396699602
C  C345  1  0.73575000  0.26425000  0.06050000  1.0 0.6473569269
C  C346  1  0.80520000  0.61040000  0.91920000  1.0 -0.1960247611
C  C347  1  0.76090000  0.52180000  0.01140000  1.0 0.0396699602
C  C348  1  0.73575000  0.47150000  0.06050000  1.0 0.6473569269
O  O1  1  0.49790000  0.87540000  0.66550000  1.0 -0.5594181423
O  O2  1  0.58290000  0.85810000  0.68610000  1.0 -0.5698348984
O  O3  1  0.67587000  0.22413000  0.42178000  1.0 -0.6230181907
O  O4  1  0.37750000  0.50210000  0.66550000  1.0 -0.5594181423
O  O5  1  0.27520000  0.41710000  0.68610000  1.0 -0.5698348984
O  O6  1  0.54826000  0.32413000  0.42178000  1.0 -0.6230181907
O  O7  1  0.12460000  0.62250000  0.66550000  1.0 -0.5594181423
O  O8  1  0.14190000  0.72480000  0.68610000  1.0 -0.5698348984
O  O9  1  0.77587000  0.45174000  0.42178000  1.0 -0.6230181907
O  O10  1  0.50210000  0.12460000  0.16550000  1.0 -0.5594181423
O  O11  1  0.41710000  0.14190000  0.18610000  1.0 -0.5698348984
O  O12  1  0.32413000  0.77587000  0.92178000  1.0 -0.6230181907
O  O13  1  0.62250000  0.49790000  0.16550000  1.0 -0.5594181423
O  O14  1  0.72480000  0.58290000  0.18610000  1.0 -0.5698348984
O  O15  1  0.45174000  0.67587000  0.92178000  1.0 -0.6230181907
O  O16  1  0.87540000  0.37750000  0.16550000  1.0 -0.5594181423
O  O17  1  0.85810000  0.27520000  0.18610000  1.0 -0.5698348984
O  O18  1  0.22413000  0.54826000  0.92178000  1.0 -0.6230181907
O  O19  1  0.62250000  0.12460000  0.33450000  1.0 -0.5594181423
O  O20  1  0.72480000  0.14190000  0.31390000  1.0 -0.5698348984
O  O21  1  0.45174000  0.77587000  0.57822000  1.0 -0.6230181907
O  O22  1  0.87540000  0.49790000  0.33450000  1.0 -0.5594181423
O  O23  1  0.85810000  0.58290000  0.31390000  1.0 -0.5698348984
O  O24  1  0.22413000  0.67587000  0.57822000  1.0 -0.6230181907
O  O25  1  0.50210000  0.37750000  0.33450000  1.0 -0.5594181423
O  O26  1  0.41710000  0.27520000  0.31390000  1.0 -0.5698348984
O  O27  1  0.32413000  0.54826000  0.57822000  1.0 -0.6230181907
O  O28  1  0.37750000  0.87540000  0.83450000  1.0 -0.5594181423
O  O29  1  0.27520000  0.85810000  0.81390000  1.0 -0.5698348984
O  O30  1  0.54826000  0.22413000  0.07822000  1.0 -0.6230181907
O  O31  1  0.12460000  0.50210000  0.83450000  1.0 -0.5594181423
O  O32  1  0.14190000  0.41710000  0.81390000  1.0 -0.5698348984
O  O33  1  0.77587000  0.32413000  0.07822000  1.0 -0.6230181907
O  O34  1  0.49790000  0.62250000  0.83450000  1.0 -0.5594181423
O  O35  1  0.58290000  0.72480000  0.81390000  1.0 -0.5698348984
O  O36  1  0.67587000  0.45174000  0.07822000  1.0 -0.6230181907
O  O37  1  0.50210000  0.12460000  0.33450000  1.0 -0.5594181423
O  O38  1  0.41710000  0.14190000  0.31390000  1.0 -0.5698348984
O  O39  1  0.32413000  0.77587000  0.57822000  1.0 -0.6230181907
O  O40  1  0.62250000  0.49790000  0.33450000  1.0 -0.5594181423
O  O41  1  0.72480000  0.58290000  0.31390000  1.0 -0.5698348984
O  O42  1  0.45174000  0.67587000  0.57822000  1.0 -0.6230181907
O  O43  1  0.87540000  0.37750000  0.33450000  1.0 -0.5594181423
O  O44  1  0.85810000  0.27520000  0.31390000  1.0 -0.5698348984
O  O45  1  0.22413000  0.54826000  0.57822000  1.0 -0.6230181907
O  O46  1  0.49790000  0.87540000  0.83450000  1.0 -0.5594181423
O  O47  1  0.58290000  0.85810000  0.81390000  1.0 -0.5698348984
O  O48  1  0.67587000  0.22413000  0.07822000  1.0 -0.6230181907
O  O49  1  0.37750000  0.50210000  0.83450000  1.0 -0.5594181423
O  O50  1  0.27520000  0.41710000  0.81390000  1.0 -0.5698348984
O  O51  1  0.54826000  0.32413000  0.07822000  1.0 -0.6230181907
O  O52  1  0.12460000  0.62250000  0.83450000  1.0 -0.5594181423
O  O53  1  0.14190000  0.72480000  0.81390000  1.0 -0.5698348984
O  O54  1  0.77587000  0.45174000  0.07822000  1.0 -0.6230181907
O  O55  1  0.37750000  0.87540000  0.66550000  1.0 -0.5594181423
O  O56  1  0.27520000  0.85810000  0.68610000  1.0 -0.5698348984
O  O57  1  0.54826000  0.22413000  0.42178000  1.0 -0.6230181907
O  O58  1  0.12460000  0.50210000  0.66550000  1.0 -0.5594181423
O  O59  1  0.14190000  0.41710000  0.68610000  1.0 -0.5698348984
O  O60  1  0.77587000  0.32413000  0.42178000  1.0 -0.6230181907
O  O61  1  0.49790000  0.62250000  0.66550000  1.0 -0.5594181423
O  O62  1  0.58290000  0.72480000  0.68610000  1.0 -0.5698348984
O  O63  1  0.67587000  0.45174000  0.42178000  1.0 -0.6230181907
O  O64  1  0.62250000  0.12460000  0.16550000  1.0 -0.5594181423
O  O65  1  0.72480000  0.14190000  0.18610000  1.0 -0.5698348984
O  O66  1  0.45174000  0.77587000  0.92178000  1.0 -0.6230181907
O  O67  1  0.87540000  0.49790000  0.16550000  1.0 -0.5594181423
O  O68  1  0.85810000  0.58290000  0.18610000  1.0 -0.5698348984
O  O69  1  0.22413000  0.67587000  0.92178000  1.0 -0.6230181907
O  O70  1  0.50210000  0.37750000  0.16550000  1.0 -0.5594181423
O  O71  1  0.41710000  0.27520000  0.18610000  1.0 -0.5698348984
O  O72  1  0.32413000  0.54826000  0.92178000  1.0 -0.6230181907
O  O73  1  0.39690000  0.79380000  0.75000000  1.0 -0.9597974624
O  O74  1  0.39690000  0.60310000  0.75000000  1.0 -0.9597974624
O  O75  1  0.20620000  0.60310000  0.75000000  1.0 -0.9597974624
O  O76  1  0.60310000  0.20620000  0.25000000  1.0 -0.9597974624
O  O77  1  0.60310000  0.39690000  0.25000000  1.0 -0.9597974624
O  O78  1  0.79380000  0.39690000  0.25000000  1.0 -0.9597974624
O  O79  1  0.33333333  0.66666667  0.64120000  1.0 -1.1324698036
O  O80  1  0.66666667  0.33333333  0.14120000  1.0 -1.1324698036
O  O81  1  0.66666667  0.33333333  0.35880000  1.0 -1.1324698036
O  O82  1  0.33333333  0.66666667  0.85880000  1.0 -1.1324698036
O  O83  1  0.45088000  0.72544000  0.69036000  1.0 -1.0076481109
O  O84  1  0.27456000  0.54912000  0.69036000  1.0 -1.0076481109
O  O85  1  0.27456000  0.72544000  0.69036000  1.0 -1.0076481109
O  O86  1  0.54912000  0.27456000  0.19036000  1.0 -1.0076481109
O  O87  1  0.72544000  0.45088000  0.19036000  1.0 -1.0076481109
O  O88  1  0.72544000  0.27456000  0.19036000  1.0 -1.0076481109
O  O89  1  0.72544000  0.27456000  0.30964000  1.0 -1.0076481109
O  O90  1  0.72544000  0.45088000  0.30964000  1.0 -1.0076481109
O  O91  1  0.54912000  0.27456000  0.30964000  1.0 -1.0076481109
O  O92  1  0.27456000  0.72544000  0.80964000  1.0 -1.0076481109
O  O93  1  0.27456000  0.54912000  0.80964000  1.0 -1.0076481109
O  O94  1  0.45088000  0.72544000  0.80964000  1.0 -1.0076481109
