# DDEC6 charges by PACMAN v1.1 (https://github.com/mtap-research/PACMAN-charge/)
data_IJENIV_ASR_pacman
_symmetry_space_group_name_H-M   'P 1'
_cell_length_a   19.58560000
_cell_length_b   19.58560000
_cell_length_c   15.78430000
_cell_angle_alpha   90.00000000
_cell_angle_beta   90.00000000
_cell_angle_gamma   120.00000000
_symmetry_Int_Tables_number   1
_chemical_formula_structural   Eu4Ag3H91C63S27Cl3O25
_chemical_formula_sum   'Eu8 Ag6 H182 C126 S54 Cl6 O50'
_cell_volume   5243.60198867
_cell_formula_units_Z   2
loop_
 _symmetry_equiv_pos_site_id
 _symmetry_equiv_pos_as_xyz
  1  'x, y, z'
loop_
 _atom_site_type_symbol
 _atom_site_label
 _atom_site_symmetry_multiplicity
 _atom_site_fract_x
 _atom_site_fract_y
 _atom_site_fract_z
 _atom_site_occupancy
 _atom_site_charge
Eu  Eu1  1  0.44483000  0.66309000  0.21598000  1.0 2.1881200435
Eu  Eu2  1  0.33691000  0.78174000  0.21598000  1.0 2.1881200435
Eu  Eu3  1  0.21826000  0.55517000  0.21598000  1.0 2.1881200435
Eu  Eu4  1  0.55517000  0.33691000  0.78402000  1.0 2.1881200435
Eu  Eu5  1  0.66309000  0.21826000  0.78402000  1.0 2.1881200435
Eu  Eu6  1  0.78174000  0.44483000  0.78402000  1.0 2.1881200435
Eu  Eu7  1  0.33333333  0.66666667  0.40918000  1.0 2.184028406
Eu  Eu8  1  0.66666667  0.33333333  0.59082000  1.0 2.1881200435
Ag  Ag1  1  0.39810000  0.76914000  0.77635000  1.0 0.2314745377
Ag  Ag2  1  0.23086000  0.62896000  0.77635000  1.0 0.2314745377
Ag  Ag3  1  0.37104000  0.60190000  0.77635000  1.0 0.2314745377
Ag  Ag4  1  0.60190000  0.23086000  0.22365000  1.0 0.2314745377
Ag  Ag5  1  0.76914000  0.37104000  0.22365000  1.0 0.2314745377
Ag  Ag6  1  0.62896000  0.39810000  0.22365000  1.0 0.2314745377
H  H1  1  0.22310000  0.42700000  0.47130000  1.0 0.151441669
H  H2  1  0.57300000  0.79610000  0.47130000  1.0 0.151441669
H  H3  1  0.20390000  0.77690000  0.47130000  1.0 0.151441669
H  H4  1  0.77690000  0.57300000  0.52870000  1.0 0.151441669
H  H5  1  0.42700000  0.20390000  0.52870000  1.0 0.151441669
H  H6  1  0.79610000  0.22310000  0.52870000  1.0 0.151441669
H  H7  1  0.30030000  0.49180000  0.51960000  1.0 0.151441669
H  H8  1  0.50820000  0.80850000  0.51960000  1.0 0.1573811041
H  H9  1  0.19150000  0.69970000  0.51960000  1.0 0.1573811041
H  H10  1  0.69970000  0.50820000  0.48040000  1.0 0.1573811041
H  H11  1  0.49180000  0.19150000  0.48040000  1.0 0.1573811041
H  H12  1  0.80850000  0.30030000  0.48040000  1.0 0.1573811041
H  H13  1  0.26870000  0.40000000  0.53500000  1.0 0.1398880952
H  H14  1  0.60000000  0.86870000  0.53500000  1.0 0.1398880952
H  H15  1  0.13130000  0.73130000  0.53500000  1.0 0.1398880952
H  H16  1  0.73130000  0.60000000  0.46500000  1.0 0.1398880952
H  H17  1  0.40000000  0.13130000  0.46500000  1.0 0.1398880952
H  H18  1  0.86870000  0.26870000  0.46500000  1.0 0.1398880952
H  H19  1  0.65490000  0.77650000  0.58620000  1.0 0.1573811041
H  H20  1  0.22350000  0.87840000  0.58620000  1.0 0.1573811041
H  H21  1  0.12160000  0.34510000  0.58620000  1.0 0.1573811041
H  H22  1  0.34510000  0.22350000  0.41380000  1.0 0.1573811041
H  H23  1  0.77650000  0.12160000  0.41380000  1.0 0.1573811041
H  H24  1  0.87840000  0.65490000  0.41380000  1.0 0.1573811041
H  H25  1  0.65850000  0.70330000  0.62640000  1.0 0.1398880952
H  H26  1  0.29670000  0.95520000  0.62640000  1.0 0.1398880952
H  H27  1  0.04480000  0.34150000  0.62640000  1.0 0.1398880952
H  H28  1  0.34150000  0.29670000  0.37360000  1.0 0.1398880952
H  H29  1  0.70330000  0.04480000  0.37360000  1.0 0.1398880952
H  H30  1  0.95520000  0.65850000  0.37360000  1.0 0.1398880952
H  H31  1  0.57510000  0.69700000  0.60850000  1.0 0.1573811041
H  H32  1  0.30300000  0.87810000  0.60850000  1.0 0.1573811041
H  H33  1  0.12190000  0.42490000  0.60850000  1.0 0.1573811041
H  H34  1  0.42490000  0.30300000  0.39150000  1.0 0.1573811041
H  H35  1  0.69700000  0.12190000  0.39150000  1.0 0.1573811041
H  H36  1  0.87810000  0.57510000  0.39150000  1.0 0.1573811041
H  H37  1  0.69040000  0.04740000  0.16130000  1.0 0.1324207376
H  H38  1  0.95260000  0.64300000  0.16130000  1.0 0.1324207376
H  H39  1  0.35700000  0.30960000  0.16130000  1.0 0.1324207376
H  H40  1  0.30960000  0.95260000  0.83870000  1.0 0.1324207376
H  H41  1  0.04740000  0.35700000  0.83870000  1.0 0.1324207376
H  H42  1  0.64300000  0.69040000  0.83870000  1.0 0.1324207376
H  H43  1  0.68780000  0.00170000  0.24630000  1.0 0.0990981313
H  H44  1  0.99830000  0.68610000  0.24630000  1.0 0.0990981313
H  H45  1  0.31390000  0.31220000  0.24630000  1.0 0.0990981313
H  H46  1  0.31220000  0.99830000  0.75370000  1.0 0.0990981313
H  H47  1  0.00170000  0.31390000  0.75370000  1.0 0.0990981313
H  H48  1  0.68610000  0.68780000  0.75370000  1.0 0.0990981313
H  H49  1  0.60750000  0.98170000  0.19920000  1.0 0.0882034888
H  H50  1  0.01830000  0.62580000  0.19920000  1.0 0.0882034888
H  H51  1  0.37420000  0.39250000  0.19920000  1.0 0.0882034888
H  H52  1  0.39250000  0.01830000  0.80080000  1.0 0.0882034888
H  H53  1  0.98170000  0.37420000  0.80080000  1.0 0.0882034888
H  H54  1  0.62580000  0.60750000  0.80080000  1.0 0.0882034888
H  H55  1  0.79340000  0.99800000  0.88220000  1.0 0.1147682036
H  H56  1  0.00200000  0.79540000  0.88220000  1.0 0.1197892719
H  H57  1  0.20460000  0.20660000  0.88220000  1.0 0.1197892719
H  H58  1  0.20660000  0.00200000  0.11780000  1.0 0.1197892719
H  H59  1  0.99800000  0.20460000  0.11780000  1.0 0.1147682036
H  H60  1  0.79540000  0.79340000  0.11780000  1.0 0.1197892719
H  H61  1  0.81450000  0.97880000  0.97380000  1.0 0.0702177818
H  H62  1  0.02120000  0.83570000  0.97380000  1.0 0.0791482316
H  H63  1  0.16430000  0.18550000  0.97380000  1.0 0.0791482316
H  H64  1  0.18550000  0.02120000  0.02620000  1.0 0.0791482316
H  H65  1  0.97880000  0.16430000  0.02620000  1.0 0.0702177818
H  H66  1  0.83570000  0.81450000  0.02620000  1.0 0.0702177818
H  H67  1  0.87110000  0.06240000  0.93020000  1.0 0.0791482316
H  H68  1  0.93760000  0.80870000  0.93020000  1.0 0.0791482316
H  H69  1  0.19130000  0.12890000  0.93020000  1.0 0.0791482316
H  H70  1  0.12890000  0.93760000  0.06980000  1.0 0.0791482316
H  H71  1  0.06240000  0.19130000  0.06980000  1.0 0.0791482316
H  H72  1  0.80870000  0.87110000  0.06980000  1.0 0.0791482316
H  H73  1  0.58820000  0.99650000  0.69560000  1.0 0.151441669
H  H74  1  0.00350000  0.59170000  0.69560000  1.0 0.151441669
H  H75  1  0.40830000  0.41180000  0.69560000  1.0 0.151441669
H  H76  1  0.41180000  0.00350000  0.30440000  1.0 0.151441669
H  H77  1  0.99650000  0.40830000  0.30440000  1.0 0.151441669
H  H78  1  0.59170000  0.58820000  0.30440000  1.0 0.151441669
H  H79  1  0.51880000  0.91910000  0.65190000  1.0 0.151441669
H  H80  1  0.08090000  0.59970000  0.65190000  1.0 0.151441669
H  H81  1  0.40030000  0.48120000  0.65190000  1.0 0.151441669
H  H82  1  0.48120000  0.08090000  0.34810000  1.0 0.151441669
H  H83  1  0.91910000  0.40030000  0.34810000  1.0 0.151441669
H  H84  1  0.59970000  0.51880000  0.34810000  1.0 0.151441669
H  H85  1  0.58220000  0.91290000  0.71050000  1.0 0.1197892719
H  H86  1  0.08710000  0.66930000  0.71050000  1.0 0.1197892719
H  H87  1  0.33070000  0.41780000  0.71050000  1.0 0.1197892719
H  H88  1  0.41780000  0.08710000  0.28950000  1.0 0.1197892719
H  H89  1  0.91290000  0.33070000  0.28950000  1.0 0.1197892719
H  H90  1  0.66930000  0.58220000  0.28950000  1.0 0.1197892719
H  H91  1  0.36630000  0.87050000  0.00820000  1.0 0.1573811041
H  H92  1  0.12950000  0.49580000  0.00820000  1.0 0.1573811041
H  H93  1  0.50420000  0.63370000  0.00820000  1.0 0.1573811041
H  H94  1  0.63370000  0.12950000  0.99180000  1.0 0.1573811041
H  H95  1  0.87050000  0.50420000  0.99180000  1.0 0.1573811041
H  H96  1  0.49580000  0.36630000  0.99180000  1.0 0.1573811041
H  H97  1  0.29850000  0.81130000  0.94520000  1.0 0.151441669
H  H98  1  0.18870000  0.48720000  0.94520000  1.0 0.151441669
H  H99  1  0.51280000  0.70150000  0.94520000  1.0 0.151441669
H  H100  1  0.70150000  0.18870000  0.05480000  1.0 0.151441669
H  H101  1  0.81130000  0.51280000  0.05480000  1.0 0.151441669
H  H102  1  0.48720000  0.29850000  0.05480000  1.0 0.151441669
H  H103  1  0.37340000  0.88870000  0.90870000  1.0 0.1197892719
H  H104  1  0.11130000  0.48470000  0.90870000  1.0 0.1197892719
H  H105  1  0.51530000  0.62660000  0.90870000  1.0 0.1197892719
H  H106  1  0.62660000  0.11130000  0.09130000  1.0 0.1197892719
H  H107  1  0.88870000  0.51530000  0.09130000  1.0 0.1197892719
H  H108  1  0.48470000  0.37340000  0.09130000  1.0 0.1197892719
H  H109  1  0.32470000  0.53370000  0.32230000  1.0 0.3642457217
H  H110  1  0.46630000  0.79100000  0.32230000  1.0 0.3642457217
H  H111  1  0.20900000  0.67530000  0.32230000  1.0 0.3642457217
H  H112  1  0.67530000  0.46630000  0.67770000  1.0 0.3642457217
H  H113  1  0.53370000  0.20900000  0.67770000  1.0 0.3642457217
H  H114  1  0.79100000  0.32470000  0.67770000  1.0 0.3642457217
H  H115  1  0.33333333  0.66666667  0.09450000  1.0 0.4139358292
H  H116  1  0.66666667  0.33333333  0.90550000  1.0 0.415881295
H  H117  1  0.32400000  0.21200000  0.11600000  1.0 0.1679520722
H  H118  1  0.78800000  0.11200000  0.11600000  1.0 0.1679520722
H  H119  1  0.88800000  0.67600000  0.11600000  1.0 0.1679520722
H  H120  1  0.67600000  0.78800000  0.88400000  1.0 0.1679520722
H  H121  1  0.21200000  0.88800000  0.88400000  1.0 0.1679520722
H  H122  1  0.11200000  0.32400000  0.88400000  1.0 0.1679520722
H  H123  1  0.31700000  0.26500000  0.16400000  1.0 0.151441669
H  H124  1  0.73500000  0.05200000  0.16400000  1.0 0.151441669
H  H125  1  0.94800000  0.68300000  0.16400000  1.0 0.151441669
H  H126  1  0.68300000  0.73500000  0.83600000  1.0 0.151441669
H  H127  1  0.26500000  0.94800000  0.83600000  1.0 0.151441669
H  H128  1  0.05200000  0.31700000  0.83600000  1.0 0.151441669
H  H129  1  0.16550000  0.29170000  0.11540000  1.0 0.0882034888
H  H130  1  0.70830000  0.87380000  0.11540000  1.0 0.0882034888
H  H131  1  0.12620000  0.83450000  0.11540000  1.0 0.0882034888
H  H132  1  0.83450000  0.70830000  0.88460000  1.0 0.0882034888
H  H133  1  0.29170000  0.12620000  0.88460000  1.0 0.0882034888
H  H134  1  0.87380000  0.16550000  0.88460000  1.0 0.0882034888
H  H135  1  0.17170000  0.25690000  0.20500000  1.0 0.151441669
H  H136  1  0.74310000  0.91480000  0.20500000  1.0 0.151441669
H  H137  1  0.08520000  0.82830000  0.20500000  1.0 0.151441669
H  H138  1  0.82830000  0.74310000  0.79500000  1.0 0.151441669
H  H139  1  0.25690000  0.08520000  0.79500000  1.0 0.151441669
H  H140  1  0.91480000  0.17170000  0.79500000  1.0 0.151441669
H  H141  1  0.18920000  0.22450000  0.11940000  1.0 0.0882034888
H  H142  1  0.77550000  0.96470000  0.11940000  1.0 0.0882034888
H  H143  1  0.03530000  0.81080000  0.11940000  1.0 0.0882034888
H  H144  1  0.81080000  0.77550000  0.88060000  1.0 0.0882034888
H  H145  1  0.22450000  0.03530000  0.88060000  1.0 0.0882034888
H  H146  1  0.96470000  0.18920000  0.88060000  1.0 0.0882034888
H  H147  1  0.19030000  0.22500000  0.00610000  1.0 0.0990981313
H  H148  1  0.77500000  0.96530000  0.00610000  1.0 0.0990981313
H  H149  1  0.03470000  0.80970000  0.00610000  1.0 0.0990981313
H  H150  1  0.80970000  0.77500000  0.99390000  1.0 0.0990981313
H  H151  1  0.22500000  0.03470000  0.99390000  1.0 0.0990981313
H  H152  1  0.96530000  0.19030000  0.99390000  1.0 0.0990981313
H  H153  1  0.18200000  0.13950000  0.00420000  1.0 0.0702177818
H  H154  1  0.86050000  0.04250000  0.00420000  1.0 0.0702177818
H  H155  1  0.95750000  0.81800000  0.00420000  1.0 0.0702177818
H  H156  1  0.81800000  0.86050000  0.99580000  1.0 0.0702177818
H  H157  1  0.13950000  0.95750000  0.99580000  1.0 0.0702177818
H  H158  1  0.04250000  0.18200000  0.99580000  1.0 0.0702177818
H  H159  1  0.20570000  0.19180000  0.91990000  1.0 0.0279559968
H  H160  1  0.80820000  0.01390000  0.91990000  1.0 0.0279559968
H  H161  1  0.98610000  0.79430000  0.91990000  1.0 0.0279559968
H  H162  1  0.79430000  0.80820000  0.08010000  1.0 0.0279559968
H  H163  1  0.19180000  0.98610000  0.08010000  1.0 0.0279559968
H  H164  1  0.01390000  0.20570000  0.08010000  1.0 0.0279559968
H  H165  1  0.52260000  0.51000000  0.82150000  1.0 0.1324207376
H  H166  1  0.49000000  0.01260000  0.82150000  1.0 0.1324207376
H  H167  1  0.98740000  0.47740000  0.82150000  1.0 0.1324207376
H  H168  1  0.47740000  0.49000000  0.17850000  1.0 0.1324207376
H  H169  1  0.51000000  0.98740000  0.17850000  1.0 0.1324207376
H  H170  1  0.01260000  0.52260000  0.17850000  1.0 0.1324207376
H  H171  1  0.52470000  0.58430000  0.77660000  1.0 0.0882034888
H  H172  1  0.41570000  0.94040000  0.77660000  1.0 0.0882034888
H  H173  1  0.05960000  0.47530000  0.77660000  1.0 0.0882034888
H  H174  1  0.47530000  0.41570000  0.22340000  1.0 0.0882034888
H  H175  1  0.58430000  0.05960000  0.22340000  1.0 0.0882034888
H  H176  1  0.94040000  0.52470000  0.22340000  1.0 0.0882034888
H  H177  1  0.52080000  0.51450000  0.72030000  1.0 0.1398880952
H  H178  1  0.48550000  0.00630000  0.72030000  1.0 0.1398880952
H  H179  1  0.99370000  0.47920000  0.72030000  1.0 0.1398880952
H  H180  1  0.47920000  0.48550000  0.27970000  1.0 0.1398880952
H  H181  1  0.51450000  0.99370000  0.27970000  1.0 0.1398880952
H  H182  1  0.00630000  0.52080000  0.27970000  1.0 0.1398880952
C  C1  1  0.46450000  0.60730000  0.40970000  1.0 0.6175772737
C  C2  1  0.39270000  0.85720000  0.40970000  1.0 0.6175772737
C  C3  1  0.14280000  0.53550000  0.40970000  1.0 0.6175772737
C  C4  1  0.53550000  0.39270000  0.59030000  1.0 0.6175772737
C  C5  1  0.60730000  0.14280000  0.59030000  1.0 0.6175772737
C  C6  1  0.85720000  0.46450000  0.59030000  1.0 0.6175772737
C  C7  1  0.42700000  0.47210000  0.46050000  1.0 -0.0012330354
C  C8  1  0.52790000  0.95490000  0.46050000  1.0 -0.0012330354
C  C9  1  0.04510000  0.57300000  0.46050000  1.0 -0.0012330354
C  C10  1  0.57300000  0.52790000  0.53950000  1.0 -0.0012330354
C  C11  1  0.47210000  0.04510000  0.53950000  1.0 -0.0012330354
C  C12  1  0.95490000  0.42700000  0.53950000  1.0 -0.0012330354
C  C13  1  0.48330000  0.55200000  0.45820000  1.0 -0.0779816989
C  C14  1  0.44800000  0.93130000  0.45820000  1.0 -0.0779816989
C  C15  1  0.06870000  0.51670000  0.45820000  1.0 -0.0779816989
C  C16  1  0.51670000  0.44800000  0.54180000  1.0 -0.0779816989
C  C17  1  0.55200000  0.06870000  0.54180000  1.0 -0.0779816989
C  C18  1  0.93130000  0.48330000  0.54180000  1.0 -0.0779816989
C  C19  1  0.55690000  0.58080000  0.49660000  1.0 -0.0200843405
C  C20  1  0.41920000  0.97610000  0.49660000  1.0 -0.0252452602
C  C21  1  0.02390000  0.44310000  0.49660000  1.0 -0.0252452602
C  C22  1  0.44310000  0.41920000  0.50340000  1.0 -0.0252452602
C  C23  1  0.58080000  0.02390000  0.50340000  1.0 -0.0252452602
C  C24  1  0.97610000  0.55690000  0.50340000  1.0 -0.0252452602
C  C25  1  0.27500000  0.43960000  0.49300000  1.0 -0.4246717502
C  C26  1  0.56040000  0.83540000  0.49300000  1.0 -0.4255701039
C  C27  1  0.16460000  0.72500000  0.49300000  1.0 -0.4255701039
C  C28  1  0.72500000  0.56040000  0.50700000  1.0 -0.4246717502
C  C29  1  0.43960000  0.16460000  0.50700000  1.0 -0.4255701039
C  C30  1  0.83540000  0.27500000  0.50700000  1.0 -0.4255701039
C  C31  1  0.62930000  0.71890000  0.58810000  1.0 -0.4499479691
C  C32  1  0.28110000  0.91040000  0.58810000  1.0 -0.4499479691
C  C33  1  0.08960000  0.37070000  0.58810000  1.0 -0.4499479691
C  C34  1  0.37070000  0.28110000  0.41190000  1.0 -0.4499479691
C  C35  1  0.71890000  0.08960000  0.41190000  1.0 -0.4499479691
C  C36  1  0.91040000  0.62930000  0.41190000  1.0 -0.4499479691
C  C37  1  0.49480000  0.81720000  0.09550000  1.0 0.5948000143
C  C38  1  0.18280000  0.67760000  0.09550000  1.0 0.5948000143
C  C39  1  0.32240000  0.50520000  0.09550000  1.0 0.5948000143
C  C40  1  0.50520000  0.18280000  0.90450000  1.0 0.5952090214
C  C41  1  0.81720000  0.32240000  0.90450000  1.0 0.5952090214
C  C42  1  0.67760000  0.49480000  0.90450000  1.0 0.5948000143
C  C43  1  0.54290000  0.87360000  0.02530000  1.0 -0.0707004179
C  C44  1  0.12640000  0.66930000  0.02530000  1.0 -0.0707004179
C  C45  1  0.33070000  0.45710000  0.02530000  1.0 -0.0707004179
C  C46  1  0.45710000  0.12640000  0.97470000  1.0 -0.0707004179
C  C47  1  0.87360000  0.33070000  0.97470000  1.0 -0.0707004179
C  C48  1  0.66930000  0.54290000  0.97470000  1.0 -0.0707004179
C  C49  1  0.62130000  0.93040000  0.03940000  1.0 -0.1386572952
C  C50  1  0.06960000  0.69090000  0.03940000  1.0 -0.1386572952
C  C51  1  0.30910000  0.37870000  0.03940000  1.0 -0.1386572952
C  C52  1  0.37870000  0.06960000  0.96060000  1.0 -0.1386572952
C  C53  1  0.93040000  0.30910000  0.96060000  1.0 -0.1386572952
C  C54  1  0.69090000  0.62130000  0.96060000  1.0 -0.1386572952
C  C55  1  0.66310000  0.98600000  0.97520000  1.0 -0.1337463642
C  C56  1  0.01400000  0.67710000  0.97520000  1.0 -0.1337463642
C  C57  1  0.32290000  0.33690000  0.97520000  1.0 -0.1337463642
C  C58  1  0.33690000  0.01400000  0.02480000  1.0 -0.1337463642
C  C59  1  0.98600000  0.32290000  0.02480000  1.0 -0.1337463642
C  C60  1  0.67710000  0.66310000  0.02480000  1.0 -0.1337463642
C  C61  1  0.62610000  0.98340000  0.89910000  1.0 -0.1065684249
C  C62  1  0.01660000  0.64270000  0.89910000  1.0 -0.1065684249
C  C63  1  0.35730000  0.37390000  0.89910000  1.0 -0.1049340029
C  C64  1  0.37390000  0.01660000  0.10090000  1.0 -0.1065684249
C  C65  1  0.98340000  0.35730000  0.10090000  1.0 -0.1065684249
C  C66  1  0.64270000  0.62610000  0.10090000  1.0 -0.1065684249
C  C67  1  0.54790000  0.92410000  0.88380000  1.0 -0.0463410594
C  C68  1  0.07590000  0.62380000  0.88380000  1.0 -0.0463410594
C  C69  1  0.37620000  0.45210000  0.88380000  1.0 -0.0463410594
C  C70  1  0.45210000  0.07590000  0.11620000  1.0 -0.0463410594
C  C71  1  0.92410000  0.37620000  0.11620000  1.0 -0.0463410594
C  C72  1  0.62380000  0.54790000  0.11620000  1.0 -0.0463410594
C  C73  1  0.50670000  0.86910000  0.94760000  1.0 -0.0408037768
C  C74  1  0.13090000  0.63760000  0.94760000  1.0 -0.0408037768
C  C75  1  0.36240000  0.49330000  0.94760000  1.0 -0.0408037768
C  C76  1  0.49330000  0.13090000  0.05240000  1.0 -0.0408037768
C  C77  1  0.86910000  0.36240000  0.05240000  1.0 -0.0408037768
C  C78  1  0.63760000  0.50670000  0.05240000  1.0 -0.0408037768
C  C79  1  0.66830000  0.05080000  0.83610000  1.0 0.5532988896
C  C80  1  0.94920000  0.61750000  0.83610000  1.0 0.5532988896
C  C81  1  0.38250000  0.33170000  0.83610000  1.0 0.5532988896
C  C82  1  0.33170000  0.94920000  0.16390000  1.0 0.5532988896
C  C83  1  0.05080000  0.38250000  0.16390000  1.0 0.5532988896
C  C84  1  0.61750000  0.66830000  0.16390000  1.0 0.5532988896
C  C85  1  0.66290000  0.99680000  0.19110000  1.0 -0.2809173474
C  C86  1  0.00320000  0.66610000  0.19110000  1.0 -0.2809173474
C  C87  1  0.33390000  0.33710000  0.19110000  1.0 -0.2809173474
C  C88  1  0.33710000  0.00320000  0.80890000  1.0 -0.2809173474
C  C89  1  0.99680000  0.33390000  0.80890000  1.0 -0.2809173474
C  C90  1  0.66610000  0.66290000  0.80890000  1.0 -0.2809173474
C  C91  1  0.81620000  0.02030000  0.93760000  1.0 -0.1970659603
C  C92  1  0.97970000  0.79590000  0.93760000  1.0 -0.1970659603
C  C93  1  0.20410000  0.18380000  0.93760000  1.0 -0.1970659603
C  C94  1  0.18380000  0.97970000  0.06240000  1.0 -0.1970659603
C  C95  1  0.02030000  0.20410000  0.06240000  1.0 -0.1970659603
C  C96  1  0.79590000  0.81620000  0.06240000  1.0 -0.1970659603
C  C97  1  0.55190000  0.93980000  0.70250000  1.0 -0.2912924697
C  C98  1  0.06020000  0.61210000  0.70250000  1.0 -0.2912924697
C  C99  1  0.38790000  0.44810000  0.70250000  1.0 -0.2912924697
C  C100  1  0.44810000  0.06020000  0.29750000  1.0 -0.2912924697
C  C101  1  0.93980000  0.38790000  0.29750000  1.0 -0.2912924697
C  C102  1  0.61210000  0.55190000  0.29750000  1.0 -0.2912924697
C  C103  1  0.35530000  0.84700000  0.95150000  1.0 -0.5055141856
C  C104  1  0.15300000  0.50830000  0.95150000  1.0 -0.5055141856
C  C105  1  0.49170000  0.64470000  0.95150000  1.0 -0.5055141856
C  C106  1  0.64470000  0.15300000  0.04850000  1.0 -0.5055141856
C  C107  1  0.84700000  0.49170000  0.04850000  1.0 -0.5055141856
C  C108  1  0.50830000  0.35530000  0.04850000  1.0 -0.5055141856
C  C109  1  0.19400000  0.27120000  0.14780000  1.0 -0.3352074434
C  C110  1  0.72880000  0.92280000  0.14780000  1.0 -0.3338023414
C  C111  1  0.07720000  0.80600000  0.14780000  1.0 -0.3338023414
C  C112  1  0.80600000  0.72880000  0.85220000  1.0 -0.3338023414
C  C113  1  0.27120000  0.07720000  0.85220000  1.0 -0.3338023414
C  C114  1  0.92280000  0.19400000  0.85220000  1.0 -0.3338023414
C  C115  1  0.21100000  0.19300000  0.98200000  1.0 -0.1856057008
C  C116  1  0.80700000  0.01800000  0.98200000  1.0 -0.1856057008
C  C117  1  0.98200000  0.78900000  0.98200000  1.0 -0.1856057008
C  C118  1  0.78900000  0.80700000  0.01800000  1.0 -0.1856057008
C  C119  1  0.19300000  0.98200000  0.01800000  1.0 -0.1856057008
C  C120  1  0.01800000  0.21100000  0.01800000  1.0 -0.1856057008
C  C121  1  0.50340000  0.52720000  0.77320000  1.0 -0.3075139979
C  C122  1  0.47280000  0.97620000  0.77320000  1.0 -0.3075139979
C  C123  1  0.02380000  0.49660000  0.77320000  1.0 -0.3075139979
C  C124  1  0.49660000  0.47280000  0.22680000  1.0 -0.3075139979
C  C125  1  0.52720000  0.02380000  0.22680000  1.0 -0.3075139979
C  C126  1  0.97620000  0.50340000  0.22680000  1.0 -0.3075139979
S  S1  1  0.66835000  0.92378000  0.13022000  1.0 0.1573811041
S  S2  1  0.07622000  0.74457000  0.13022000  1.0 0.151441669
S  S3  1  0.25543000  0.33165000  0.13022000  1.0 0.1573811041
S  S4  1  0.33165000  0.07622000  0.86978000  1.0 0.1573811041
S  S5  1  0.92378000  0.25543000  0.86978000  1.0 0.1573811041
S  S6  1  0.74457000  0.66835000  0.86978000  1.0 0.1573811041
S  S7  1  0.76050000  0.06020000  0.98620000  1.0 0.1573811041
S  S8  1  0.93980000  0.70030000  0.98620000  1.0 0.1573811041
S  S9  1  0.29970000  0.23950000  0.98620000  1.0 0.1573811041
S  S10  1  0.23950000  0.93980000  0.01380000  1.0 0.151441669
S  S11  1  0.06020000  0.29970000  0.01380000  1.0 0.151441669
S  S12  1  0.70030000  0.76050000  0.01380000  1.0 0.1573811041
S  S13  1  0.49060000  0.92351000  0.79326000  1.0 0.1914171306
S  S14  1  0.07649000  0.56709000  0.79326000  1.0 0.1914171306
S  S15  1  0.43291000  0.50940000  0.79326000  1.0 0.1914171306
S  S16  1  0.50940000  0.07649000  0.20674000  1.0 0.1914171306
S  S17  1  0.92351000  0.43291000  0.20674000  1.0 0.1914171306
S  S18  1  0.56709000  0.49060000  0.20674000  1.0 0.1914171306
S  S19  1  0.33562000  0.43953000  0.40645000  1.0 -0.0200843405
S  S20  1  0.56047000  0.89609000  0.40645000  1.0 -0.0200843405
S  S21  1  0.10391000  0.66438000  0.40645000  1.0 -0.0128315714
S  S22  1  0.66438000  0.56047000  0.59355000  1.0 -0.0200843405
S  S23  1  0.43953000  0.10391000  0.59355000  1.0 -0.0128315714
S  S24  1  0.89609000  0.33562000  0.59355000  1.0 -0.0128315714
S  S25  1  0.62806000  0.68260000  0.48596000  1.0 0.0702177818
S  S26  1  0.31740000  0.94546000  0.48596000  1.0 0.0702177818
S  S27  1  0.05454000  0.37194000  0.48596000  1.0 0.0702177818
S  S28  1  0.37194000  0.31740000  0.51404000  1.0 0.0702177818
S  S29  1  0.68260000  0.05454000  0.51404000  1.0 0.0702177818
S  S30  1  0.94546000  0.62806000  0.51404000  1.0 0.0702177818
S  S31  1  0.40672000  0.79220000  0.93756000  1.0 0.0791482316
S  S32  1  0.20780000  0.61452000  0.93756000  1.0 0.0791482316
S  S33  1  0.38548000  0.59328000  0.93756000  1.0 0.0791482316
S  S34  1  0.59328000  0.20780000  0.06244000  1.0 0.0791482316
S  S35  1  0.79220000  0.38548000  0.06244000  1.0 0.0791482316
S  S36  1  0.61452000  0.40672000  0.06244000  1.0 0.0791482316
S  S37  1  0.29560000  0.34510000  0.15470000  1.0 0.181822371
S  S38  1  0.65490000  0.95050000  0.15470000  1.0 0.181822371
S  S39  1  0.04950000  0.70440000  0.15470000  1.0 0.181822371
S  S40  1  0.70440000  0.65490000  0.84530000  1.0 0.181822371
S  S41  1  0.34510000  0.04950000  0.84530000  1.0 0.181822371
S  S42  1  0.95050000  0.29560000  0.84530000  1.0 0.181822371
S  S43  1  0.31330000  0.23610000  0.00870000  1.0 0.0791482316
S  S44  1  0.76390000  0.07720000  0.00870000  1.0 0.0791482316
S  S45  1  0.92280000  0.68670000  0.00870000  1.0 0.0791482316
S  S46  1  0.68670000  0.76390000  0.99130000  1.0 0.0791482316
S  S47  1  0.23610000  0.92280000  0.99130000  1.0 0.0791482316
S  S48  1  0.07720000  0.31330000  0.99130000  1.0 0.0791482316
S  S49  1  0.39330000  0.47550000  0.77560000  1.0 0.1914171306
S  S50  1  0.52450000  0.91780000  0.77560000  1.0 0.1914171306
S  S51  1  0.08220000  0.60670000  0.77560000  1.0 0.1914171306
S  S52  1  0.60670000  0.52450000  0.22440000  1.0 0.1914171306
S  S53  1  0.47550000  0.08220000  0.22440000  1.0 0.1914171306
S  S54  1  0.91780000  0.39330000  0.22440000  1.0 0.1914171306
Cl  Cl1  1  0.28526000  0.75629000  0.69964000  1.0 -0.4583471129
Cl  Cl2  1  0.24371000  0.52897000  0.69964000  1.0 -0.4583471129
Cl  Cl3  1  0.47103000  0.71474000  0.69964000  1.0 -0.4583471129
Cl  Cl4  1  0.71474000  0.24371000  0.30036000  1.0 -0.4583471129
Cl  Cl5  1  0.75629000  0.47103000  0.30036000  1.0 -0.4583471129
Cl  Cl6  1  0.52897000  0.28526000  0.30036000  1.0 -0.4583471129
O  O1  1  0.48433000  0.61834000  0.33317000  1.0 -0.6694642613
O  O2  1  0.38166000  0.86599000  0.33317000  1.0 -0.6694642613
O  O3  1  0.13401000  0.51567000  0.33317000  1.0 -0.6694642613
O  O4  1  0.51567000  0.38166000  0.66683000  1.0 -0.6694642613
O  O5  1  0.61834000  0.13401000  0.66683000  1.0 -0.6694642613
O  O6  1  0.86599000  0.48433000  0.66683000  1.0 -0.6694642613
O  O7  1  0.42926000  0.63680000  0.44930000  1.0 -0.6912060787
O  O8  1  0.36320000  0.79246000  0.44930000  1.0 -0.6912060787
O  O9  1  0.20754000  0.57074000  0.44930000  1.0 -0.6912060787
O  O10  1  0.57074000  0.36320000  0.55070000  1.0 -0.6912060787
O  O11  1  0.63680000  0.20754000  0.55070000  1.0 -0.6912060787
O  O12  1  0.79246000  0.42926000  0.55070000  1.0 -0.6912060787
O  O13  1  0.32680000  0.58262000  0.30034000  1.0 -1.2216314365
O  O14  1  0.41738000  0.74418000  0.30034000  1.0 -1.2216314365
O  O15  1  0.25582000  0.67320000  0.30034000  1.0 -1.2216314365
O  O16  1  0.67320000  0.41738000  0.69966000  1.0 -1.2261649181
O  O17  1  0.58262000  0.25582000  0.69966000  1.0 -1.2216314365
O  O18  1  0.74418000  0.32680000  0.69966000  1.0 -1.2216314365
O  O19  1  0.33333333  0.66666667  0.15790000  1.0 -1.2448336889
O  O20  1  0.66666667  0.33333333  0.84210000  1.0 -1.2478948642
O  O21  1  0.49741000  0.75518000  0.10397000  1.0 -0.6444328636
O  O22  1  0.24482000  0.74223000  0.10397000  1.0 -0.6444328636
O  O23  1  0.25777000  0.50259000  0.10397000  1.0 -0.6444328636
O  O24  1  0.50259000  0.24482000  0.89603000  1.0 -0.6444328636
O  O25  1  0.75518000  0.25777000  0.89603000  1.0 -0.6444328636
O  O26  1  0.74223000  0.49741000  0.89603000  1.0 -0.6444328636
O  O27  1  0.45589000  0.83895000  0.14030000  1.0 -0.6694642613
O  O28  1  0.16105000  0.61694000  0.14030000  1.0 -0.6694642613
O  O29  1  0.38306000  0.54411000  0.14030000  1.0 -0.6694642613
O  O30  1  0.54411000  0.16105000  0.85970000  1.0 -0.6694642613
O  O31  1  0.83895000  0.38306000  0.85970000  1.0 -0.6694642613
O  O32  1  0.61694000  0.45589000  0.85970000  1.0 -0.6694642613
O  O33  1  0.71920000  0.05190000  0.78740000  1.0 -0.5164528101
O  O34  1  0.94810000  0.66730000  0.78740000  1.0 -0.5164528101
O  O35  1  0.33270000  0.28080000  0.78740000  1.0 -0.5164528101
O  O36  1  0.28080000  0.94810000  0.21260000  1.0 -0.5164528101
O  O37  1  0.05190000  0.33270000  0.21260000  1.0 -0.5164528101
O  O38  1  0.66730000  0.71920000  0.21260000  1.0 -0.5164528101
O  O39  1  0.64498000  0.09990000  0.83958000  1.0 -0.6532839745
O  O40  1  0.90010000  0.54508000  0.83958000  1.0 -0.6532839745
O  O41  1  0.45492000  0.35502000  0.83958000  1.0 -0.6532839745
O  O42  1  0.35502000  0.90010000  0.16042000  1.0 -0.6532839745
O  O43  1  0.09990000  0.45492000  0.16042000  1.0 -0.6532839745
O  O44  1  0.54508000  0.64498000  0.16042000  1.0 -0.6532839745
O  O45  1  0.33140000  0.23040000  0.16580000  1.0 -0.4977014869
O  O46  1  0.76960000  0.10100000  0.16580000  1.0 -0.4977014869
O  O47  1  0.89900000  0.66860000  0.16580000  1.0 -0.4977014869
O  O48  1  0.66860000  0.76960000  0.83420000  1.0 -0.4977014869
O  O49  1  0.23040000  0.89900000  0.83420000  1.0 -0.4977014869
O  O50  1  0.10100000  0.33140000  0.83420000  1.0 -0.4977014869
