# DDEC6 charges by PACMAN v1.1 (https://github.com/mtap-research/PACMAN-charge/)
data_IJENOB_FSR_pacman
_symmetry_space_group_name_H-M   'P 1'
_cell_length_a   19.75240000
_cell_length_b   19.75240000
_cell_length_c   15.34600000
_cell_angle_alpha   90.00000000
_cell_angle_beta   90.00000000
_cell_angle_gamma   120.00000000
_symmetry_Int_Tables_number   1
_chemical_formula_structural   Eu4H112C87(S15O16)2
_chemical_formula_sum   'Eu8 H224 C174 S60 O64'
_cell_volume   5185.20067774
_cell_formula_units_Z   2
loop_
 _symmetry_equiv_pos_site_id
 _symmetry_equiv_pos_as_xyz
  1  'x, y, z'
loop_
 _atom_site_type_symbol
 _atom_site_label
 _atom_site_symmetry_multiplicity
 _atom_site_fract_x
 _atom_site_fract_y
 _atom_site_fract_z
 _atom_site_occupancy
 _atom_site_charge
Eu  Eu1  1  0.21749000  0.66065000  0.71111000  1.0 2.0207915996
Eu  Eu2  1  0.33935000  0.55684000  0.71111000  1.0 2.0207915996
Eu  Eu3  1  0.44316000  0.78251000  0.71111000  1.0 2.0207915996
Eu  Eu4  1  0.78251000  0.33935000  0.28889000  1.0 2.0207915996
Eu  Eu5  1  0.66065000  0.44316000  0.28889000  1.0 2.0207915996
Eu  Eu6  1  0.55684000  0.21749000  0.28889000  1.0 2.0207915996
Eu  Eu7  1  0.33333333  0.66666667  0.91368000  1.0 2.1405847365
Eu  Eu8  1  0.66666667  0.33333333  0.08632000  1.0 2.1405847365
H  H1  1  0.11879000  0.39109000  0.02080000  1.0 0.1288312122
H  H2  1  0.60891000  0.72770000  0.02080000  1.0 0.1288312122
H  H3  1  0.27230000  0.88121000  0.02080000  1.0 0.1288312122
H  H4  1  0.88121000  0.60891000  0.97920000  1.0 0.1288312122
H  H5  1  0.39109000  0.27230000  0.97920000  1.0 0.1288312122
H  H6  1  0.72770000  0.11879000  0.97920000  1.0 0.1288312122
H  H7  1  0.18739000  0.41079000  0.95250000  1.0 0.154184028
H  H8  1  0.58921000  0.77660000  0.95250000  1.0 0.154184028
H  H9  1  0.22340000  0.81261000  0.95250000  1.0 0.154184028
H  H10  1  0.81261000  0.58921000  0.04750000  1.0 0.154184028
H  H11  1  0.41079000  0.22340000  0.04750000  1.0 0.154184028
H  H12  1  0.77660000  0.18739000  0.04750000  1.0 0.154184028
H  H13  1  0.18569000  0.47979000  0.00520000  1.0 0.1288312122
H  H14  1  0.52021000  0.70590000  0.00520000  1.0 0.1288312122
H  H15  1  0.29410000  0.81431000  0.00520000  1.0 0.1288312122
H  H16  1  0.81431000  0.52021000  0.99480000  1.0 0.1288312122
H  H17  1  0.47979000  0.29410000  0.99480000  1.0 0.1288312122
H  H18  1  0.70590000  0.18569000  0.99480000  1.0 0.1288312122
H  H19  1  0.16309000  0.68779000  0.10340000  1.0 0.1413662353
H  H20  1  0.31221000  0.47530000  0.10340000  1.0 0.1413662353
H  H21  1  0.52470000  0.83691000  0.10340000  1.0 0.1413662353
H  H22  1  0.83691000  0.31221000  0.89660000  1.0 0.1413662353
H  H23  1  0.68779000  0.52470000  0.89660000  1.0 0.1413662353
H  H24  1  0.47530000  0.16309000  0.89660000  1.0 0.1413662353
H  H25  1  0.14979000  0.75999000  0.12230000  1.0 0.1413662353
H  H26  1  0.24001000  0.38980000  0.12230000  1.0 0.1413662353
H  H27  1  0.61020000  0.85021000  0.12230000  1.0 0.1413662353
H  H28  1  0.85021000  0.24001000  0.87770000  1.0 0.1413662353
H  H29  1  0.75999000  0.61020000  0.87770000  1.0 0.1413662353
H  H30  1  0.38980000  0.14979000  0.87770000  1.0 0.1413662353
H  H31  1  0.08849000  0.67479000  0.15810000  1.0 0.1288312122
H  H32  1  0.32521000  0.41370000  0.15810000  1.0 0.1288312122
H  H33  1  0.58630000  0.91151000  0.15810000  1.0 0.1288312122
H  H34  1  0.91151000  0.32521000  0.84190000  1.0 0.1288312122
H  H35  1  0.67479000  0.58630000  0.84190000  1.0 0.1288312122
H  H36  1  0.41370000  0.08849000  0.84190000  1.0 0.1288312122
H  H37  1  0.04259000  0.67819000  0.34940000  1.0 0.09989725
H  H38  1  0.32181000  0.36440000  0.34940000  1.0 0.09989725
H  H39  1  0.63560000  0.95741000  0.34940000  1.0 0.09989725
H  H40  1  0.95741000  0.32181000  0.65060000  1.0 0.09989725
H  H41  1  0.67819000  0.63560000  0.65060000  1.0 0.09989725
H  H42  1  0.36440000  0.04259000  0.65060000  1.0 0.09989725
H  H43  1  0.01169000  0.69999000  0.26340000  1.0 0.1288312122
H  H44  1  0.30001000  0.31170000  0.26340000  1.0 0.1288312122
H  H45  1  0.68830000  0.98831000  0.26340000  1.0 0.1288312122
H  H46  1  0.98831000  0.30001000  0.73660000  1.0 0.1288312122
H  H47  1  0.69999000  0.68830000  0.73660000  1.0 0.1288312122
H  H48  1  0.31170000  0.01169000  0.73660000  1.0 0.1288312122
H  H49  1  0.97639000  0.61039000  0.29080000  1.0 0.09989725
H  H50  1  0.38961000  0.36600000  0.29080000  1.0 0.09989725
H  H51  1  0.63400000  0.02361000  0.29080000  1.0 0.09989725
H  H52  1  0.02361000  0.38961000  0.70920000  1.0 0.09989725
H  H53  1  0.61039000  0.63400000  0.70920000  1.0 0.09989725
H  H54  1  0.36600000  0.97639000  0.70920000  1.0 0.09989725
H  H55  1  0.98949000  0.82169000  0.50720000  1.0 0.0821367758
H  H56  1  0.17831000  0.16780000  0.50720000  1.0 0.0821367758
H  H57  1  0.83220000  0.01051000  0.50720000  1.0 0.0821367758
H  H58  1  0.01051000  0.17831000  0.49280000  1.0 0.0821367758
H  H59  1  0.82169000  0.83220000  0.49280000  1.0 0.0821367758
H  H60  1  0.16780000  0.98949000  0.49280000  1.0 0.0821367758
H  H61  1  0.05619000  0.86309000  0.57970000  1.0 0.0821367758
H  H62  1  0.13691000  0.19310000  0.57970000  1.0 0.0821367758
H  H63  1  0.80690000  0.94381000  0.57970000  1.0 0.0821367758
H  H64  1  0.94381000  0.13691000  0.42030000  1.0 0.0821367758
H  H65  1  0.86309000  0.80690000  0.42030000  1.0 0.0821367758
H  H66  1  0.19310000  0.05619000  0.42030000  1.0 0.0821367758
H  H67  1  0.97719000  0.78389000  0.60220000  1.0 0.09989725
H  H68  1  0.21611000  0.19330000  0.60220000  1.0 0.09989725
H  H69  1  0.80670000  0.02281000  0.60220000  1.0 0.09989725
H  H70  1  0.02281000  0.21611000  0.39780000  1.0 0.09989725
H  H71  1  0.78389000  0.80670000  0.39780000  1.0 0.09989725
H  H72  1  0.19330000  0.97719000  0.39780000  1.0 0.09989725
H  H73  1  0.91499000  0.52529000  0.86580000  1.0 0.1195005198
H  H74  1  0.47471000  0.38970000  0.86580000  1.0 0.1195005198
H  H75  1  0.61030000  0.08501000  0.86580000  1.0 0.1195005198
H  H76  1  0.08501000  0.47471000  0.13420000  1.0 0.1195005198
H  H77  1  0.52529000  0.61030000  0.13420000  1.0 0.1195005198
H  H78  1  0.38970000  0.91499000  0.13420000  1.0 0.1195005198
H  H79  1  0.88569000  0.57109000  0.80460000  1.0 0.09989725
H  H80  1  0.42891000  0.31460000  0.80460000  1.0 0.09989725
H  H81  1  0.68540000  0.11431000  0.80460000  1.0 0.09989725
H  H82  1  0.11431000  0.42891000  0.19540000  1.0 0.09989725
H  H83  1  0.57109000  0.68540000  0.19540000  1.0 0.09989725
H  H84  1  0.31460000  0.88569000  0.19540000  1.0 0.09989725
H  H85  1  0.97689000  0.59939000  0.81080000  1.0 0.1097612674
H  H86  1  0.40061000  0.37750000  0.81080000  1.0 0.1097612674
H  H87  1  0.62250000  0.02311000  0.81080000  1.0 0.1097612674
H  H88  1  0.02311000  0.40061000  0.18920000  1.0 0.1097612674
H  H89  1  0.59939000  0.62250000  0.18920000  1.0 0.1097612674
H  H90  1  0.37750000  0.97689000  0.18920000  1.0 0.1097612674
H  H91  1  0.87259000  0.37189000  0.50180000  1.0 0.0912511035
H  H92  1  0.62811000  0.50070000  0.50180000  1.0 0.0912511035
H  H93  1  0.49930000  0.12741000  0.50180000  1.0 0.0912511035
H  H94  1  0.12741000  0.62811000  0.49820000  1.0 0.0912511035
H  H95  1  0.37189000  0.49930000  0.49820000  1.0 0.0912511035
H  H96  1  0.50070000  0.87259000  0.49820000  1.0 0.0912511035
H  H97  1  0.81409000  0.30239000  0.56460000  1.0 0.0821367758
H  H98  1  0.69761000  0.51170000  0.56460000  1.0 0.0821367758
H  H99  1  0.48830000  0.18591000  0.56460000  1.0 0.0821367758
H  H100  1  0.18591000  0.69761000  0.43540000  1.0 0.0821367758
H  H101  1  0.30239000  0.48830000  0.43540000  1.0 0.0821367758
H  H102  1  0.51170000  0.81409000  0.43540000  1.0 0.0821367758
H  H103  1  0.88809000  0.37799000  0.60460000  1.0 0.0717180505
H  H104  1  0.62201000  0.51010000  0.60460000  1.0 0.0717180505
H  H105  1  0.48990000  0.11191000  0.60460000  1.0 0.0717180505
H  H106  1  0.11191000  0.62201000  0.39540000  1.0 0.0717180505
H  H107  1  0.37799000  0.48990000  0.39540000  1.0 0.0717180505
H  H108  1  0.51010000  0.88809000  0.39540000  1.0 0.0717180505
H  H109  1  0.46629000  0.67719000  0.82180000  1.0 0.3572894255
H  H110  1  0.32281000  0.78910000  0.82180000  1.0 0.3572894255
H  H111  1  0.21090000  0.53371000  0.82180000  1.0 0.3572894255
H  H112  1  0.53371000  0.32281000  0.17820000  1.0 0.3572894255
H  H113  1  0.67719000  0.21090000  0.17820000  1.0 0.3572894255
H  H114  1  0.78910000  0.46629000  0.17820000  1.0 0.3572894255
H  H115  1  0.33333333  0.66666667  0.58460000  1.0 0.3572894255
H  H116  1  0.66666667  0.33333333  0.41540000  1.0 0.3572894255
H  H117  1  0.15499000  0.75899000  0.76300000  1.0 0.2981715197
H  H118  1  0.24101000  0.39600000  0.76300000  1.0 0.2981715197
H  H119  1  0.60400000  0.84501000  0.76300000  1.0 0.2981715197
H  H120  1  0.84501000  0.24101000  0.23700000  1.0 0.2981715197
H  H121  1  0.75899000  0.60400000  0.23700000  1.0 0.2981715197
H  H122  1  0.39600000  0.15499000  0.23700000  1.0 0.2981715197
H  H123  1  0.22599000  0.80999000  0.72700000  1.0 0.2758305663
H  H124  1  0.19001000  0.41600000  0.72700000  1.0 0.2758305663
H  H125  1  0.58400000  0.77401000  0.72700000  1.0 0.2758305663
H  H126  1  0.77401000  0.19001000  0.27300000  1.0 0.2758305663
H  H127  1  0.80999000  0.58400000  0.27300000  1.0 0.2758305663
H  H128  1  0.41600000  0.22599000  0.27300000  1.0 0.2758305663
H  H129  1  0.05799000  0.64599000  0.67600000  1.0 0.2102510998
H  H130  1  0.35401000  0.41200000  0.67600000  1.0 0.2102510998
H  H131  1  0.58800000  0.94201000  0.67600000  1.0 0.2102510998
H  H132  1  0.94201000  0.35401000  0.32400000  1.0 0.2102510998
H  H133  1  0.64599000  0.58800000  0.32400000  1.0 0.2102510998
H  H134  1  0.41200000  0.05799000  0.32400000  1.0 0.2102510998
H  H135  1  0.07499000  0.59599000  0.63400000  1.0 0.2175663704
H  H136  1  0.40401000  0.47900000  0.63400000  1.0 0.2175663704
H  H137  1  0.52100000  0.92501000  0.63400000  1.0 0.2175663704
H  H138  1  0.92501000  0.40401000  0.36600000  1.0 0.2175663704
H  H139  1  0.59599000  0.52100000  0.36600000  1.0 0.2175663704
H  H140  1  0.47900000  0.07499000  0.36600000  1.0 0.2175663704
H  H141  1  0.97889000  0.79049000  0.77130000  1.0 0.3233102853
H  H142  1  0.20951000  0.18840000  0.77130000  1.0 0.3233102853
H  H143  1  0.81160000  0.02111000  0.77130000  1.0 0.3233102853
H  H144  1  0.02111000  0.20951000  0.22870000  1.0 0.3233102853
H  H145  1  0.79049000  0.81160000  0.22870000  1.0 0.3233102853
H  H146  1  0.18840000  0.97889000  0.22870000  1.0 0.3233102853
H  H147  1  0.04929000  0.65969000  0.33240000  1.0 0.0912511035
H  H148  1  0.34031000  0.38960000  0.33240000  1.0 0.0912511035
H  H149  1  0.61040000  0.95071000  0.33240000  1.0 0.0912511035
H  H150  1  0.95071000  0.34031000  0.66760000  1.0 0.0912511035
H  H151  1  0.65969000  0.61040000  0.66760000  1.0 0.0912511035
H  H152  1  0.38960000  0.04929000  0.66760000  1.0 0.0912511035
H  H153  1  0.98289000  0.60479000  0.26440000  1.0 0.1097612674
H  H154  1  0.39521000  0.37810000  0.26440000  1.0 0.1097612674
H  H155  1  0.62190000  0.01711000  0.26440000  1.0 0.1097612674
H  H156  1  0.01711000  0.39521000  0.73560000  1.0 0.1097612674
H  H157  1  0.60479000  0.62190000  0.73560000  1.0 0.1097612674
H  H158  1  0.37810000  0.98289000  0.73560000  1.0 0.1097612674
H  H159  1  0.98409000  0.57309000  0.36000000  1.0 0.0912511035
H  H160  1  0.42691000  0.41100000  0.36000000  1.0 0.0912511035
H  H161  1  0.58900000  0.01591000  0.36000000  1.0 0.0912511035
H  H162  1  0.01591000  0.42691000  0.64000000  1.0 0.0912511035
H  H163  1  0.57309000  0.58900000  0.64000000  1.0 0.0912511035
H  H164  1  0.41100000  0.98409000  0.64000000  1.0 0.0912511035
H  H165  1  0.08419000  0.71959000  0.48040000  1.0 0.0717180505
H  H166  1  0.28041000  0.36460000  0.48040000  1.0 0.0717180505
H  H167  1  0.63540000  0.91581000  0.48040000  1.0 0.0717180505
H  H168  1  0.91581000  0.28041000  0.51960000  1.0 0.0717180505
H  H169  1  0.71959000  0.63540000  0.51960000  1.0 0.0717180505
H  H170  1  0.36460000  0.08419000  0.51960000  1.0 0.0717180505
H  H171  1  0.14459000  0.80199000  0.52310000  1.0 0.0717180505
H  H172  1  0.19801000  0.34260000  0.52310000  1.0 0.0717180505
H  H173  1  0.65740000  0.85541000  0.52310000  1.0 0.0717180505
H  H174  1  0.85541000  0.19801000  0.47690000  1.0 0.0717180505
H  H175  1  0.80199000  0.65740000  0.47690000  1.0 0.0717180505
H  H176  1  0.34260000  0.14459000  0.47690000  1.0 0.0717180505
H  H177  1  0.11139000  0.79879000  0.42720000  1.0 0.0821367758
H  H178  1  0.20121000  0.31260000  0.42720000  1.0 0.0821367758
H  H179  1  0.68740000  0.88861000  0.42720000  1.0 0.0821367758
H  H180  1  0.88861000  0.20121000  0.57280000  1.0 0.0821367758
H  H181  1  0.79879000  0.68740000  0.57280000  1.0 0.0821367758
H  H182  1  0.31260000  0.11139000  0.57280000  1.0 0.0821367758
H  H183  1  0.88509000  0.44879000  0.77310000  1.0 0.09989725
H  H184  1  0.55121000  0.43630000  0.77310000  1.0 0.09989725
H  H185  1  0.56370000  0.11491000  0.77310000  1.0 0.09989725
H  H186  1  0.11491000  0.55121000  0.22690000  1.0 0.09989725
H  H187  1  0.44879000  0.56370000  0.22690000  1.0 0.09989725
H  H188  1  0.43630000  0.88509000  0.22690000  1.0 0.09989725
H  H189  1  0.94069000  0.52149000  0.83390000  1.0 0.09989725
H  H190  1  0.47851000  0.41920000  0.83390000  1.0 0.09989725
H  H191  1  0.58080000  0.05931000  0.83390000  1.0 0.09989725
H  H192  1  0.05931000  0.47851000  0.16610000  1.0 0.09989725
H  H193  1  0.52149000  0.58080000  0.16610000  1.0 0.09989725
H  H194  1  0.41920000  0.94069000  0.16610000  1.0 0.09989725
H  H195  1  0.95639000  0.52559000  0.73120000  1.0 0.09989725
H  H196  1  0.47441000  0.43080000  0.73120000  1.0 0.09989725
H  H197  1  0.56920000  0.04361000  0.73120000  1.0 0.09989725
H  H198  1  0.04361000  0.47441000  0.26880000  1.0 0.09989725
H  H199  1  0.52559000  0.56920000  0.26880000  1.0 0.09989725
H  H200  1  0.43080000  0.95639000  0.26880000  1.0 0.09989725
H  H201  1  0.82149000  0.33809000  0.64280000  1.0 0.0717180505
H  H202  1  0.66191000  0.48340000  0.64280000  1.0 0.0717180505
H  H203  1  0.51660000  0.17851000  0.64280000  1.0 0.0717180505
H  H204  1  0.17851000  0.66191000  0.35720000  1.0 0.0717180505
H  H205  1  0.33809000  0.51660000  0.35720000  1.0 0.0717180505
H  H206  1  0.48340000  0.82149000  0.35720000  1.0 0.0717180505
H  H207  1  0.88639000  0.40919000  0.58650000  1.0 0.0912511035
H  H208  1  0.59081000  0.47720000  0.58650000  1.0 0.0912511035
H  H209  1  0.52280000  0.11361000  0.58650000  1.0 0.0912511035
H  H210  1  0.11361000  0.59081000  0.41350000  1.0 0.0912511035
H  H211  1  0.40919000  0.52280000  0.41350000  1.0 0.0912511035
H  H212  1  0.47720000  0.88639000  0.41350000  1.0 0.0912511035
H  H213  1  0.81399000  0.33749000  0.53890000  1.0 0.0912511035
H  H214  1  0.66251000  0.47650000  0.53890000  1.0 0.0912511035
H  H215  1  0.52350000  0.18601000  0.53890000  1.0 0.0912511035
H  H216  1  0.18601000  0.66251000  0.46110000  1.0 0.0912511035
H  H217  1  0.33749000  0.52350000  0.46110000  1.0 0.0912511035
H  H218  1  0.47650000  0.81399000  0.46110000  1.0 0.0912511035
H  H219  1  0.31799000  0.69699000  0.08590000  1.0 0.2102510998
H  H220  1  0.30301000  0.62100000  0.08590000  1.0 0.2102510998
H  H221  1  0.37900000  0.68201000  0.08590000  1.0 0.2102510998
H  H222  1  0.68201000  0.30301000  0.91410000  1.0 0.2102510998
H  H223  1  0.69699000  0.37900000  0.91410000  1.0 0.2102510998
H  H224  1  0.62100000  0.31799000  0.91410000  1.0 0.2102510998
C  C1  1  0.14529000  0.60779000  0.91340000  1.0 0.5954408938
C  C2  1  0.39221000  0.53750000  0.91340000  1.0 0.5954408938
C  C3  1  0.46250000  0.85471000  0.91340000  1.0 0.5954408938
C  C4  1  0.85471000  0.39221000  0.08660000  1.0 0.5954408938
C  C5  1  0.60779000  0.46250000  0.08660000  1.0 0.5954408938
C  C6  1  0.53750000  0.14529000  0.08660000  1.0 0.5954408938
C  C7  1  0.06949000  0.55089000  0.95980000  1.0 -0.0907493339
C  C8  1  0.44911000  0.51860000  0.95980000  1.0 -0.0907493339
C  C9  1  0.48140000  0.93051000  0.95980000  1.0 -0.0907493339
C  C10  1  0.93051000  0.44911000  0.04020000  1.0 -0.0907493339
C  C11  1  0.55089000  0.48140000  0.04020000  1.0 -0.0907493339
C  C12  1  0.51860000  0.06949000  0.04020000  1.0 -0.0907493339
C  C13  1  0.02949000  0.58149000  0.00710000  1.0 -0.0506638952
C  C14  1  0.41851000  0.44800000  0.00710000  1.0 -0.0506638952
C  C15  1  0.55200000  0.97051000  0.00710000  1.0 -0.0506638952
C  C16  1  0.97051000  0.41851000  0.99290000  1.0 -0.0506638952
C  C17  1  0.58149000  0.55200000  0.99290000  1.0 -0.0506638952
C  C18  1  0.44800000  0.02949000  0.99290000  1.0 -0.0506638952
C  C19  1  0.04159000  0.47159000  0.95360000  1.0 -0.0386805332
C  C20  1  0.52841000  0.57000000  0.95360000  1.0 -0.0386805332
C  C21  1  0.43000000  0.95841000  0.95360000  1.0 -0.0386805332
C  C22  1  0.95841000  0.52841000  0.04640000  1.0 -0.0386805332
C  C23  1  0.47159000  0.43000000  0.04640000  1.0 -0.0386805332
C  C24  1  0.57000000  0.04159000  0.04640000  1.0 -0.0386805332
C  C25  1  0.15359000  0.42889000  0.97740000  1.0 -0.4351704076
C  C26  1  0.57111000  0.72470000  0.97740000  1.0 -0.4351704076
C  C27  1  0.27530000  0.84641000  0.97740000  1.0 -0.4351704076
C  C28  1  0.84641000  0.57111000  0.02260000  1.0 -0.4351704076
C  C29  1  0.42889000  0.27530000  0.02260000  1.0 -0.4351704076
C  C30  1  0.72470000  0.15359000  0.02260000  1.0 -0.4351704076
C  C31  1  0.12379000  0.70389000  0.10990000  1.0 -0.4948431736
C  C32  1  0.29611000  0.41990000  0.10990000  1.0 -0.4948431736
C  C33  1  0.58010000  0.87621000  0.10990000  1.0 -0.4954929059
C  C34  1  0.87621000  0.29611000  0.89010000  1.0 -0.4948431736
C  C35  1  0.70389000  0.58010000  0.89010000  1.0 -0.4948431736
C  C36  1  0.41990000  0.12379000  0.89010000  1.0 -0.4948431736
C  C37  1  0.81459000  0.49529000  0.41450000  1.0 0.3877844408
C  C38  1  0.50471000  0.31930000  0.41450000  1.0 0.3877844408
C  C39  1  0.68070000  0.18541000  0.41450000  1.0 0.3877844408
C  C40  1  0.18541000  0.50471000  0.58550000  1.0 0.3877844408
C  C41  1  0.49529000  0.68070000  0.58550000  1.0 0.3877844408
C  C42  1  0.31930000  0.81459000  0.58550000  1.0 0.3877844408
C  C43  1  0.86819000  0.54269000  0.48560000  1.0 -0.0821727048
C  C44  1  0.45731000  0.32550000  0.48560000  1.0 -0.0821727048
C  C45  1  0.67450000  0.13181000  0.48560000  1.0 -0.0821727048
C  C46  1  0.13181000  0.45731000  0.51440000  1.0 -0.0821727048
C  C47  1  0.54269000  0.67450000  0.51440000  1.0 -0.0821727048
C  C48  1  0.32550000  0.86819000  0.51440000  1.0 -0.0821727048
C  C49  1  0.92609000  0.61999000  0.47280000  1.0 -0.0506638952
C  C50  1  0.38001000  0.30610000  0.47280000  1.0 -0.0506638952
C  C51  1  0.69390000  0.07391000  0.47280000  1.0 -0.0506638952
C  C52  1  0.07391000  0.38001000  0.52720000  1.0 -0.0506638952
C  C53  1  0.61999000  0.69390000  0.52720000  1.0 -0.0506638952
C  C54  1  0.30610000  0.92609000  0.52720000  1.0 -0.0506638952
C  C55  1  0.98109000  0.65959000  0.53770000  1.0 0.0205864946
C  C56  1  0.34041000  0.32150000  0.53770000  1.0 0.0205864946
C  C57  1  0.67850000  0.01891000  0.53770000  1.0 0.0205864946
C  C58  1  0.01891000  0.34041000  0.46230000  1.0 0.0205864946
C  C59  1  0.65959000  0.67850000  0.46230000  1.0 0.0205864946
C  C60  1  0.32150000  0.98109000  0.46230000  1.0 0.0205864946
C  C61  1  0.97819000  0.62199000  0.61530000  1.0 -0.0950473776
C  C62  1  0.37801000  0.35620000  0.61530000  1.0 -0.0950473776
C  C63  1  0.64380000  0.02181000  0.61530000  1.0 -0.0950473776
C  C64  1  0.02181000  0.37801000  0.38470000  1.0 -0.0950473776
C  C65  1  0.62199000  0.64380000  0.38470000  1.0 -0.0950473776
C  C66  1  0.35620000  0.97819000  0.38470000  1.0 -0.0950473776
C  C67  1  0.92019000  0.54469000  0.62810000  1.0 -0.1237856602
C  C68  1  0.45531000  0.37550000  0.62810000  1.0 -0.1237856602
C  C69  1  0.62450000  0.07981000  0.62810000  1.0 -0.1237856602
C  C70  1  0.07981000  0.45531000  0.37190000  1.0 -0.1237856602
C  C71  1  0.54469000  0.62450000  0.37190000  1.0 -0.1237856602
C  C72  1  0.37550000  0.92019000  0.37190000  1.0 -0.1237856602
C  C73  1  0.86519000  0.50499000  0.56320000  1.0 0.0378736466
C  C74  1  0.49501000  0.36020000  0.56320000  1.0 0.0378736466
C  C75  1  0.63980000  0.13481000  0.56320000  1.0 0.0378736466
C  C76  1  0.13481000  0.49501000  0.43680000  1.0 0.0378736466
C  C77  1  0.50499000  0.63980000  0.43680000  1.0 0.0378736466
C  C78  1  0.36020000  0.86519000  0.43680000  1.0 0.0378736466
C  C79  1  0.04709000  0.66169000  0.67680000  1.0 0.09989725
C  C80  1  0.33831000  0.38540000  0.67680000  1.0 0.09989725
C  C81  1  0.61460000  0.95291000  0.67680000  1.0 0.09989725
C  C82  1  0.95291000  0.33831000  0.32320000  1.0 0.09989725
C  C83  1  0.66169000  0.61460000  0.32320000  1.0 0.09989725
C  C84  1  0.38540000  0.04709000  0.32320000  1.0 0.09989725
C  C85  1  0.99679000  0.66369000  0.31270000  1.0 -0.1989587662
C  C86  1  0.33631000  0.33310000  0.31270000  1.0 -0.1989587662
C  C87  1  0.66690000  0.00321000  0.31270000  1.0 -0.1989587662
C  C88  1  0.00321000  0.33631000  0.68730000  1.0 -0.1989587662
C  C89  1  0.66369000  0.66690000  0.68730000  1.0 -0.1989587662
C  C90  1  0.33310000  0.99679000  0.68730000  1.0 -0.1989587662
C  C91  1  0.01559000  0.81279000  0.55650000  1.0 -0.2481559719
C  C92  1  0.18721000  0.20280000  0.55650000  1.0 -0.2481559719
C  C93  1  0.79720000  0.98441000  0.55650000  1.0 -0.2481559719
C  C94  1  0.98441000  0.18721000  0.44350000  1.0 -0.2481559719
C  C95  1  0.81279000  0.79720000  0.44350000  1.0 -0.2481559719
C  C96  1  0.20280000  0.01559000  0.44350000  1.0 -0.2481559719
C  C97  1  0.92409000  0.55379000  0.81080000  1.0 -0.1989587662
C  C98  1  0.44621000  0.37030000  0.81080000  1.0 -0.1989587662
C  C99  1  0.62970000  0.07591000  0.81080000  1.0 -0.1989587662
C  C100  1  0.07591000  0.44621000  0.18920000  1.0 -0.1989587662
C  C101  1  0.55379000  0.62970000  0.18920000  1.0 -0.1989587662
C  C102  1  0.37030000  0.92409000  0.18920000  1.0 -0.1989587662
C  C103  1  0.84769000  0.35919000  0.55940000  1.0 -0.2301515346
C  C104  1  0.64081000  0.48850000  0.55940000  1.0 -0.2301515346
C  C105  1  0.51150000  0.15231000  0.55940000  1.0 -0.2301515346
C  C106  1  0.15231000  0.64081000  0.44060000  1.0 -0.2301515346
C  C107  1  0.35919000  0.51150000  0.44060000  1.0 -0.2301515346
C  C108  1  0.48850000  0.84769000  0.44060000  1.0 -0.2301515346
C  C109  1  0.86419000  0.54829000  0.49390000  1.0 -0.0821727048
C  C110  1  0.45171000  0.31590000  0.49390000  1.0 -0.0821727048
C  C111  1  0.68410000  0.13581000  0.49390000  1.0 -0.0821727048
C  C112  1  0.13581000  0.45171000  0.50610000  1.0 -0.0821727048
C  C113  1  0.54829000  0.68410000  0.50610000  1.0 -0.0821727048
C  C114  1  0.31590000  0.86419000  0.50610000  1.0 -0.0821727048
C  C115  1  0.91689000  0.62669000  0.47800000  1.0 -0.0506638952
C  C116  1  0.37331000  0.29020000  0.47800000  1.0 -0.0506638952
C  C117  1  0.70980000  0.08311000  0.47800000  1.0 -0.0506638952
C  C118  1  0.08311000  0.37331000  0.52200000  1.0 -0.0506638952
C  C119  1  0.62669000  0.70980000  0.52200000  1.0 -0.0506638952
C  C120  1  0.29020000  0.91689000  0.52200000  1.0 -0.0506638952
C  C121  1  0.95109000  0.67819000  0.54730000  1.0 0.026770042
C  C122  1  0.32181000  0.27290000  0.54730000  1.0 0.026770042
C  C123  1  0.72710000  0.04891000  0.54730000  1.0 0.026770042
C  C124  1  0.04891000  0.32181000  0.45270000  1.0 0.026770042
C  C125  1  0.67819000  0.72710000  0.45270000  1.0 0.026770042
C  C126  1  0.27290000  0.95109000  0.45270000  1.0 0.026770042
C  C127  1  0.93259000  0.65109000  0.63250000  1.0 -0.0907493339
C  C128  1  0.34891000  0.28150000  0.63250000  1.0 -0.0907493339
C  C129  1  0.71850000  0.06741000  0.63250000  1.0 -0.0907493339
C  C130  1  0.06741000  0.34891000  0.36750000  1.0 -0.0907493339
C  C131  1  0.65109000  0.71850000  0.36750000  1.0 -0.0907493339
C  C132  1  0.28150000  0.93259000  0.36750000  1.0 -0.0907493339
C  C133  1  0.87989000  0.57269000  0.64840000  1.0 -0.0217431742
C  C134  1  0.42731000  0.30720000  0.64840000  1.0 -0.0217431742
C  C135  1  0.69280000  0.12011000  0.64840000  1.0 -0.0217431742
C  C136  1  0.12011000  0.42731000  0.35160000  1.0 -0.0217431742
C  C137  1  0.57269000  0.69280000  0.35160000  1.0 -0.0217431742
C  C138  1  0.30720000  0.87989000  0.35160000  1.0 -0.0217431742
C  C139  1  0.84559000  0.52129000  0.57910000  1.0 0.0492251734
C  C140  1  0.47871000  0.32430000  0.57910000  1.0 0.0492251734
C  C141  1  0.67570000  0.15441000  0.57910000  1.0 0.0492251734
C  C142  1  0.15441000  0.47871000  0.42090000  1.0 0.0492251734
C  C143  1  0.52129000  0.67570000  0.42090000  1.0 0.0492251734
C  C144  1  0.32430000  0.84559000  0.42090000  1.0 0.0492251734
C  C145  1  0.96919000  0.70899000  0.70970000  1.0 0.1195005198
C  C146  1  0.29101000  0.26020000  0.70970000  1.0 0.1195005198
C  C147  1  0.73980000  0.03081000  0.70970000  1.0 0.1195005198
C  C148  1  0.03081000  0.29101000  0.29030000  1.0 0.1195005198
C  C149  1  0.70899000  0.73980000  0.29030000  1.0 0.1195005198
C  C150  1  0.26020000  0.96919000  0.29030000  1.0 0.1195005198
C  C151  1  0.99429000  0.61899000  0.32600000  1.0 -0.2481559719
C  C152  1  0.38101000  0.37530000  0.32600000  1.0 -0.2481559719
C  C153  1  0.62470000  0.00571000  0.32600000  1.0 -0.2481559719
C  C154  1  0.00571000  0.38101000  0.67400000  1.0 -0.2481559719
C  C155  1  0.61899000  0.62470000  0.67400000  1.0 -0.2481559719
C  C156  1  0.37530000  0.99429000  0.67400000  1.0 -0.2481559719
C  C157  1  0.09879000  0.77479000  0.48520000  1.0 -0.3114136016
C  C158  1  0.22521000  0.32400000  0.48520000  1.0 -0.3114136016
C  C159  1  0.67600000  0.90121000  0.48520000  1.0 -0.3114136016
C  C160  1  0.90121000  0.22521000  0.51480000  1.0 -0.3114136016
C  C161  1  0.77479000  0.67600000  0.51480000  1.0 -0.3114136016
C  C162  1  0.32400000  0.09879000  0.51480000  1.0 -0.3114136016
C  C163  1  0.91599000  0.50599000  0.77600000  1.0 -0.1686780905
C  C164  1  0.49401000  0.41000000  0.77600000  1.0 -0.1686780905
C  C165  1  0.59000000  0.08401000  0.77600000  1.0 -0.1686780905
C  C166  1  0.08401000  0.49401000  0.22400000  1.0 -0.1686780905
C  C167  1  0.50599000  0.59000000  0.22400000  1.0 -0.1686780905
C  C168  1  0.41000000  0.91599000  0.22400000  1.0 -0.1686780905
C  C169  1  0.83099000  0.37099000  0.59100000  1.0 -0.1864655868
C  C170  1  0.62901000  0.46000000  0.59100000  1.0 -0.1864655868
C  C171  1  0.54000000  0.16901000  0.59100000  1.0 -0.1864655868
C  C172  1  0.16901000  0.62901000  0.40900000  1.0 -0.1864655868
C  C173  1  0.37099000  0.54000000  0.40900000  1.0 -0.1864655868
C  C174  1  0.46000000  0.83099000  0.40900000  1.0 -0.1864655868
S  S1  1  0.92319000  0.66849000  0.37530000  1.0 0.09989725
S  S2  1  0.33151000  0.25470000  0.37530000  1.0 0.09989725
S  S3  1  0.74530000  0.07681000  0.37530000  1.0 0.09989725
S  S4  1  0.07681000  0.33151000  0.62470000  1.0 0.09989725
S  S5  1  0.66849000  0.74530000  0.62470000  1.0 0.09989725
S  S6  1  0.25470000  0.92319000  0.62470000  1.0 0.09989725
S  S7  1  0.05929000  0.75726000  0.52070000  1.0 0.0912511035
S  S8  1  0.24274000  0.30203000  0.52070000  1.0 0.0912511035
S  S9  1  0.69797000  0.94071000  0.52070000  1.0 0.0912511035
S  S10  1  0.94071000  0.24274000  0.47930000  1.0 0.0912511035
S  S11  1  0.75726000  0.69797000  0.47930000  1.0 0.0912511035
S  S12  1  0.30203000  0.05929000  0.47930000  1.0 0.0912511035
S  S13  1  0.91459000  0.49329000  0.72540000  1.0 0.0205864946
S  S14  1  0.50671000  0.42130000  0.72540000  1.0 0.0205864946
S  S15  1  0.57870000  0.08541000  0.72540000  1.0 0.0205864946
S  S16  1  0.08541000  0.50671000  0.27460000  1.0 0.0205864946
S  S17  1  0.49329000  0.57870000  0.27460000  1.0 0.0205864946
S  S18  1  0.42130000  0.91459000  0.27460000  1.0 0.0205864946
S  S19  1  0.78999000  0.40539000  0.57230000  1.0 0.0717180505
S  S20  1  0.59461000  0.38460000  0.57230000  1.0 0.0717180505
S  S21  1  0.61540000  0.21001000  0.57230000  1.0 0.0717180505
S  S22  1  0.21001000  0.59461000  0.42770000  1.0 0.0717180505
S  S23  1  0.40539000  0.61540000  0.42770000  1.0 0.0717180505
S  S24  1  0.38460000  0.78999000  0.42770000  1.0 0.0717180505
S  S25  1  0.09588000  0.43789000  0.89213000  1.0 -0.0386805332
S  S26  1  0.56211000  0.65799000  0.89213000  1.0 -0.0386805332
S  S27  1  0.34201000  0.90412000  0.89213000  1.0 -0.0386805332
S  S28  1  0.90412000  0.56211000  0.10787000  1.0 -0.0386805332
S  S29  1  0.43789000  0.34201000  0.10787000  1.0 -0.0386805332
S  S30  1  0.65799000  0.09588000  0.10787000  1.0 -0.0386805332
S  S31  1  0.06903000  0.68371000  0.01185000  1.0 0.026770042
S  S32  1  0.31629000  0.38532000  0.01185000  1.0 0.026770042
S  S33  1  0.61468000  0.93097000  0.01185000  1.0 0.026770042
S  S34  1  0.93097000  0.31629000  0.98815000  1.0 0.026770042
S  S35  1  0.68371000  0.61468000  0.98815000  1.0 0.026770042
S  S36  1  0.38532000  0.06903000  0.98815000  1.0 0.026770042
S  S37  1  0.93509000  0.65479000  0.36340000  1.0 0.1288312122
S  S38  1  0.34521000  0.28030000  0.36340000  1.0 0.1288312122
S  S39  1  0.71970000  0.06491000  0.36340000  1.0 0.1288312122
S  S40  1  0.06491000  0.34521000  0.63660000  1.0 0.1288312122
S  S41  1  0.65479000  0.71970000  0.63660000  1.0 0.1288312122
S  S42  1  0.28030000  0.93509000  0.63660000  1.0 0.1288312122
S  S43  1  0.02059000  0.78169000  0.52950000  1.0 0.0912511035
S  S44  1  0.21831000  0.23890000  0.52950000  1.0 0.0912511035
S  S45  1  0.76110000  0.97941000  0.52950000  1.0 0.0912511035
S  S46  1  0.97941000  0.21831000  0.47050000  1.0 0.0912511035
S  S47  1  0.78169000  0.76110000  0.47050000  1.0 0.0912511035
S  S48  1  0.23890000  0.02059000  0.47050000  1.0 0.0912511035
S  S49  1  0.85549000  0.54479000  0.76090000  1.0 0.0042170556
S  S50  1  0.45521000  0.31070000  0.76090000  1.0 0.0042170556
S  S51  1  0.68930000  0.14451000  0.76090000  1.0 0.0042170556
S  S52  1  0.14451000  0.45521000  0.23910000  1.0 0.0042170556
S  S53  1  0.54479000  0.68930000  0.23910000  1.0 0.0042170556
S  S54  1  0.31070000  0.85549000  0.23910000  1.0 0.0042170556
S  S55  1  0.77629000  0.41949000  0.59970000  1.0 0.0378736466
S  S56  1  0.58051000  0.35680000  0.59970000  1.0 0.0378736466
S  S57  1  0.64320000  0.22371000  0.59970000  1.0 0.0378736466
S  S58  1  0.22371000  0.58051000  0.40030000  1.0 0.0378736466
S  S59  1  0.41949000  0.64320000  0.40030000  1.0 0.0378736466
S  S60  1  0.35680000  0.77629000  0.40030000  1.0 0.0378736466
O  O1  1  0.09499000  0.63969000  0.65970000  1.0 -0.5105633443
O  O2  1  0.36031000  0.45530000  0.65970000  1.0 -0.5105633443
O  O3  1  0.54470000  0.90501000  0.65970000  1.0 -0.5105633443
O  O4  1  0.90501000  0.36031000  0.34030000  1.0 -0.5105633443
O  O5  1  0.63969000  0.54470000  0.34030000  1.0 -0.5105633443
O  O6  1  0.45530000  0.09499000  0.34030000  1.0 -0.5105633443
O  O7  1  0.05099000  0.71489000  0.72760000  1.0 -0.0666897523
O  O8  1  0.28511000  0.33610000  0.72760000  1.0 -0.0666897523
O  O9  1  0.66390000  0.94901000  0.72760000  1.0 -0.0666897523
O  O10  1  0.94901000  0.28511000  0.27240000  1.0 -0.0666897523
O  O11  1  0.71489000  0.66390000  0.27240000  1.0 -0.0666897523
O  O12  1  0.33610000  0.05099000  0.27240000  1.0 -0.0666897523
O  O13  1  0.13779000  0.62169000  0.83650000  1.0 -0.632124951
O  O14  1  0.37831000  0.51610000  0.83650000  1.0 -0.632124951
O  O15  1  0.48390000  0.86221000  0.83650000  1.0 -0.632124951
O  O16  1  0.86221000  0.37831000  0.16350000  1.0 -0.632124951
O  O17  1  0.62169000  0.48390000  0.16350000  1.0 -0.632124951
O  O18  1  0.51610000  0.13779000  0.16350000  1.0 -0.632124951
O  O19  1  0.20719000  0.63269000  0.95670000  1.0 -0.6772617207
O  O20  1  0.36731000  0.57450000  0.95670000  1.0 -0.6772617207
O  O21  1  0.42550000  0.79281000  0.95670000  1.0 -0.6772617207
O  O22  1  0.79281000  0.36731000  0.04330000  1.0 -0.6772617207
O  O23  1  0.63269000  0.42550000  0.04330000  1.0 -0.6772617207
O  O24  1  0.57450000  0.20719000  0.04330000  1.0 -0.6772617207
O  O25  1  0.75269000  0.49669000  0.40320000  1.0 -0.6196129228
O  O26  1  0.50331000  0.25600000  0.40320000  1.0 -0.6196129228
O  O27  1  0.74400000  0.24731000  0.40320000  1.0 -0.6196129228
O  O28  1  0.24731000  0.50331000  0.59680000  1.0 -0.6196129228
O  O29  1  0.49669000  0.74400000  0.59680000  1.0 -0.6196129228
O  O30  1  0.25600000  0.75269000  0.59680000  1.0 -0.6196129228
O  O31  1  0.83839000  0.45789000  0.37050000  1.0 -0.632124951
O  O32  1  0.54211000  0.38050000  0.37050000  1.0 -0.632124951
O  O33  1  0.61950000  0.16161000  0.37050000  1.0 -0.632124951
O  O34  1  0.16161000  0.54211000  0.62950000  1.0 -0.632124951
O  O35  1  0.45789000  0.61950000  0.62950000  1.0 -0.632124951
O  O36  1  0.38050000  0.83839000  0.62950000  1.0 -0.632124951
O  O37  1  0.41729000  0.67419000  0.79950000  1.0 -1.1876344785
O  O38  1  0.32581000  0.74310000  0.79950000  1.0 -1.1876344785
O  O39  1  0.25690000  0.58271000  0.79950000  1.0 -1.1876344785
O  O40  1  0.58271000  0.32581000  0.20050000  1.0 -1.1876344785
O  O41  1  0.67419000  0.25690000  0.20050000  1.0 -1.1876344785
O  O42  1  0.74310000  0.41729000  0.20050000  1.0 -1.1876344785
O  O43  1  0.33333333  0.66666667  0.64980000  1.0 -1.0936114495
O  O44  1  0.66666667  0.33333333  0.35020000  1.0 -1.0936114495
O  O45  1  0.33333333  0.66666667  0.07220000  1.0 -0.6117222911
O  O46  1  0.66666667  0.33333333  0.92780000  1.0 -0.6117222911
O  O47  1  0.20299000  0.77529000  0.76430000  1.0 -0.7462942904
O  O48  1  0.22471000  0.42770000  0.76430000  1.0 -0.7462942904
O  O49  1  0.57230000  0.79701000  0.76430000  1.0 -0.7462942904
O  O50  1  0.79701000  0.22471000  0.23570000  1.0 -0.7462942904
O  O51  1  0.77529000  0.57230000  0.23570000  1.0 -0.7462942904
O  O52  1  0.42770000  0.20299000  0.23570000  1.0 -0.7462942904
O  O53  1  0.94159000  0.74969000  0.75020000  1.0 -0.4735071367
O  O54  1  0.25031000  0.19190000  0.75020000  1.0 -0.4735071367
O  O55  1  0.80810000  0.05841000  0.75020000  1.0 -0.4735071367
O  O56  1  0.05841000  0.25031000  0.24980000  1.0 -0.4735071367
O  O57  1  0.74969000  0.80810000  0.24980000  1.0 -0.4735071367
O  O58  1  0.19190000  0.94159000  0.24980000  1.0 -0.4735071367
O  O59  1  0.03299000  0.69799000  0.74300000  1.0 -0.0666897523
O  O60  1  0.30201000  0.33500000  0.74300000  1.0 -0.0666897523
O  O61  1  0.66500000  0.96701000  0.74300000  1.0 -0.0666897523
O  O62  1  0.96701000  0.30201000  0.25700000  1.0 -0.0666897523
O  O63  1  0.69799000  0.66500000  0.25700000  1.0 -0.0666897523
O  O64  1  0.33500000  0.03299000  0.25700000  1.0 -0.0666897523
