# DDEC6 charges by PACMAN v1.1 (https://github.com/mtap-research/PACMAN-charge/)
data_IJEXUS_ASR_pacman
_symmetry_space_group_name_H-M   'P 1'
_cell_length_a   36.60890000
_cell_length_b   36.60890000
_cell_length_c   15.39880000
_cell_angle_alpha   90.00000000
_cell_angle_beta   90.00000000
_cell_angle_gamma   90.00000000
_symmetry_Int_Tables_number   1
_chemical_formula_structural   Na2Mn4Cu6H78C78(N4O15)3
_chemical_formula_sum   'Na8 Mn16 Cu24 H312 C312 N48 O180'
_cell_volume   20637.64975796
_cell_formula_units_Z   4
loop_
 _symmetry_equiv_pos_site_id
 _symmetry_equiv_pos_as_xyz
  1  'x, y, z'
loop_
 _atom_site_type_symbol
 _atom_site_label
 _atom_site_symmetry_multiplicity
 _atom_site_fract_x
 _atom_site_fract_y
 _atom_site_fract_z
 _atom_site_occupancy
 _atom_site_charge
Na  Na1  1  0.26920000  0.26920000  0.43150000  1.0 0.6611785217
Na  Na2  1  0.73080000  0.73080000  0.43150000  1.0 0.6611785217
Na  Na3  1  0.26920000  0.73080000  0.43150000  1.0 0.6611785217
Na  Na4  1  0.73080000  0.26920000  0.43150000  1.0 0.6611785217
Na  Na5  1  0.26920000  0.73080000  0.56850000  1.0 0.6611785217
Na  Na6  1  0.73080000  0.26920000  0.56850000  1.0 0.6611785217
Na  Na7  1  0.26920000  0.26920000  0.56850000  1.0 0.6611785217
Na  Na8  1  0.73080000  0.73080000  0.56850000  1.0 0.6611785217
Mn  Mn1  1  0.14686000  0.35204000  0.24885000  1.0 1.0088444351
Mn  Mn2  1  0.85314000  0.64796000  0.24885000  1.0 1.0088444351
Mn  Mn3  1  0.35204000  0.85314000  0.24885000  1.0 1.0088444351
Mn  Mn4  1  0.64796000  0.14686000  0.24885000  1.0 1.0088444351
Mn  Mn5  1  0.14686000  0.64796000  0.75115000  1.0 1.0088444351
Mn  Mn6  1  0.85314000  0.35204000  0.75115000  1.0 1.0088444351
Mn  Mn7  1  0.35204000  0.14686000  0.75115000  1.0 1.0088444351
Mn  Mn8  1  0.64796000  0.85314000  0.75115000  1.0 1.0088444351
Mn  Mn9  1  0.85314000  0.64796000  0.75115000  1.0 1.0088444351
Mn  Mn10  1  0.14686000  0.35204000  0.75115000  1.0 1.0088444351
Mn  Mn11  1  0.64796000  0.14686000  0.75115000  1.0 1.0088444351
Mn  Mn12  1  0.35204000  0.85314000  0.75115000  1.0 1.0088444351
Mn  Mn13  1  0.85314000  0.35204000  0.24885000  1.0 1.0088444351
Mn  Mn14  1  0.14686000  0.64796000  0.24885000  1.0 1.0088444351
Mn  Mn15  1  0.64796000  0.85314000  0.24885000  1.0 1.0088444351
Mn  Mn16  1  0.35204000  0.14686000  0.24885000  1.0 1.0088444351
Cu  Cu1  1  0.24093000  0.24093000  0.23031000  1.0 0.523607485
Cu  Cu2  1  0.75907000  0.75907000  0.23031000  1.0 0.523607485
Cu  Cu3  1  0.24093000  0.75907000  0.23031000  1.0 0.523607485
Cu  Cu4  1  0.75907000  0.24093000  0.23031000  1.0 0.523607485
Cu  Cu5  1  0.24093000  0.75907000  0.76969000  1.0 0.523607485
Cu  Cu6  1  0.75907000  0.24093000  0.76969000  1.0 0.523607485
Cu  Cu7  1  0.24093000  0.24093000  0.76969000  1.0 0.523607485
Cu  Cu8  1  0.75907000  0.75907000  0.76969000  1.0 0.523607485
Cu  Cu9  1  0.00000000  0.33201000  0.27477000  1.0 0.5977361425
Cu  Cu10  1  0.00000000  0.66799000  0.27477000  1.0 0.5977361425
Cu  Cu11  1  0.33201000  0.00000000  0.27477000  1.0 0.5977361425
Cu  Cu12  1  0.66799000  0.00000000  0.27477000  1.0 0.5977361425
Cu  Cu13  1  0.00000000  0.66799000  0.72523000  1.0 0.5977361425
Cu  Cu14  1  0.00000000  0.33201000  0.72523000  1.0 0.5977361425
Cu  Cu15  1  0.33201000  0.00000000  0.72523000  1.0 0.5977361425
Cu  Cu16  1  0.66799000  0.00000000  0.72523000  1.0 0.5977361425
Cu  Cu17  1  0.15086000  0.50000000  0.26973000  1.0 0.6845352753
Cu  Cu18  1  0.84914000  0.50000000  0.26973000  1.0 0.6854406818
Cu  Cu19  1  0.50000000  0.84914000  0.26973000  1.0 0.6854406818
Cu  Cu20  1  0.50000000  0.15086000  0.26973000  1.0 0.6845352753
Cu  Cu21  1  0.15086000  0.50000000  0.73027000  1.0 0.6845352753
Cu  Cu22  1  0.84914000  0.50000000  0.73027000  1.0 0.6845352753
Cu  Cu23  1  0.50000000  0.15086000  0.73027000  1.0 0.6845352753
Cu  Cu24  1  0.50000000  0.84914000  0.73027000  1.0 0.6854406818
H  H1  1  0.12330000  0.19650000  0.00000000  1.0 0.1383702982
H  H2  1  0.87670000  0.80350000  0.00000000  1.0 0.1383702982
H  H3  1  0.19650000  0.87670000  0.00000000  1.0 0.1383702982
H  H4  1  0.80350000  0.12330000  0.00000000  1.0 0.1383702982
H  H5  1  0.12330000  0.80350000  0.00000000  1.0 0.1383702982
H  H6  1  0.87670000  0.19650000  0.00000000  1.0 0.1383702982
H  H7  1  0.19650000  0.12330000  0.00000000  1.0 0.1383702982
H  H8  1  0.80350000  0.87670000  0.00000000  1.0 0.1383702982
H  H9  1  0.14030000  0.23220000  0.20700000  1.0 0.1383702982
H  H10  1  0.85970000  0.76780000  0.20700000  1.0 0.1383702982
H  H11  1  0.23220000  0.85970000  0.20700000  1.0 0.1383702982
H  H12  1  0.76780000  0.14030000  0.20700000  1.0 0.1383702982
H  H13  1  0.14030000  0.76780000  0.79300000  1.0 0.1383702982
H  H14  1  0.85970000  0.23220000  0.79300000  1.0 0.1383702982
H  H15  1  0.23220000  0.14030000  0.79300000  1.0 0.1383702982
H  H16  1  0.76780000  0.85970000  0.79300000  1.0 0.1383702982
H  H17  1  0.85970000  0.76780000  0.79300000  1.0 0.1383702982
H  H18  1  0.14030000  0.23220000  0.79300000  1.0 0.1383702982
H  H19  1  0.76780000  0.14030000  0.79300000  1.0 0.1383702982
H  H20  1  0.23220000  0.85970000  0.79300000  1.0 0.1383702982
H  H21  1  0.85970000  0.23220000  0.20700000  1.0 0.1383702982
H  H22  1  0.14030000  0.76780000  0.20700000  1.0 0.1383702982
H  H23  1  0.76780000  0.85970000  0.20700000  1.0 0.1383702982
H  H24  1  0.23220000  0.14030000  0.20700000  1.0 0.1383702982
H  H25  1  0.11270000  0.20650000  0.15420000  1.0 0.1206133188
H  H26  1  0.88730000  0.79350000  0.15420000  1.0 0.1206133188
H  H27  1  0.20650000  0.88730000  0.15420000  1.0 0.1206133188
H  H28  1  0.79350000  0.11270000  0.15420000  1.0 0.1206133188
H  H29  1  0.11270000  0.79350000  0.84580000  1.0 0.1206133188
H  H30  1  0.88730000  0.20650000  0.84580000  1.0 0.1206133188
H  H31  1  0.20650000  0.11270000  0.84580000  1.0 0.1206133188
H  H32  1  0.79350000  0.88730000  0.84580000  1.0 0.1206133188
H  H33  1  0.88730000  0.79350000  0.84580000  1.0 0.1206133188
H  H34  1  0.11270000  0.20650000  0.84580000  1.0 0.1206133188
H  H35  1  0.79350000  0.11270000  0.84580000  1.0 0.1206133188
H  H36  1  0.20650000  0.88730000  0.84580000  1.0 0.1206133188
H  H37  1  0.88730000  0.20650000  0.15420000  1.0 0.1206133188
H  H38  1  0.11270000  0.79350000  0.15420000  1.0 0.1206133188
H  H39  1  0.79350000  0.88730000  0.15420000  1.0 0.1206133188
H  H40  1  0.20650000  0.11270000  0.15420000  1.0 0.1206133188
H  H41  1  0.15170000  0.19110000  0.18410000  1.0 0.1206133188
H  H42  1  0.84830000  0.80890000  0.18410000  1.0 0.1206133188
H  H43  1  0.19110000  0.84830000  0.18410000  1.0 0.1206133188
H  H44  1  0.80890000  0.15170000  0.18410000  1.0 0.1206133188
H  H45  1  0.15170000  0.80890000  0.81590000  1.0 0.1206133188
H  H46  1  0.84830000  0.19110000  0.81590000  1.0 0.1206133188
H  H47  1  0.19110000  0.15170000  0.81590000  1.0 0.1206133188
H  H48  1  0.80890000  0.84830000  0.81590000  1.0 0.1206133188
H  H49  1  0.84830000  0.80890000  0.81590000  1.0 0.1206133188
H  H50  1  0.15170000  0.19110000  0.81590000  1.0 0.1206133188
H  H51  1  0.80890000  0.15170000  0.81590000  1.0 0.1206133188
H  H52  1  0.19110000  0.84830000  0.81590000  1.0 0.1206133188
H  H53  1  0.84830000  0.19110000  0.18410000  1.0 0.1206133188
H  H54  1  0.15170000  0.80890000  0.18410000  1.0 0.1206133188
H  H55  1  0.80890000  0.84830000  0.18410000  1.0 0.1206133188
H  H56  1  0.19110000  0.15170000  0.18410000  1.0 0.1206133188
H  H57  1  0.03490000  0.45060000  0.50000000  1.0 0.1286234706
H  H58  1  0.96510000  0.54940000  0.50000000  1.0 0.1286234706
H  H59  1  0.45060000  0.96510000  0.50000000  1.0 0.1286234706
H  H60  1  0.54940000  0.03490000  0.50000000  1.0 0.1286234706
H  H61  1  0.03490000  0.54940000  0.50000000  1.0 0.1286234706
H  H62  1  0.96510000  0.45060000  0.50000000  1.0 0.1286234706
H  H63  1  0.45060000  0.03490000  0.50000000  1.0 0.1286234706
H  H64  1  0.54940000  0.96510000  0.50000000  1.0 0.1286234706
H  H65  1  0.06330000  0.42660000  0.30610000  1.0 0.1521293967
H  H66  1  0.93670000  0.57340000  0.30610000  1.0 0.1521293967
H  H67  1  0.42660000  0.93670000  0.30610000  1.0 0.1521293967
H  H68  1  0.57340000  0.06330000  0.30610000  1.0 0.1521293967
H  H69  1  0.06330000  0.57340000  0.69390000  1.0 0.1521293967
H  H70  1  0.93670000  0.42660000  0.69390000  1.0 0.1521293967
H  H71  1  0.42660000  0.06330000  0.69390000  1.0 0.1521293967
H  H72  1  0.57340000  0.93670000  0.69390000  1.0 0.1521293967
H  H73  1  0.93670000  0.57340000  0.69390000  1.0 0.1521293967
H  H74  1  0.06330000  0.42660000  0.69390000  1.0 0.1521293967
H  H75  1  0.57340000  0.06330000  0.69390000  1.0 0.1521293967
H  H76  1  0.42660000  0.93670000  0.69390000  1.0 0.1521293967
H  H77  1  0.93670000  0.42660000  0.30610000  1.0 0.1521293967
H  H78  1  0.06330000  0.57340000  0.30610000  1.0 0.1521293967
H  H79  1  0.57340000  0.93670000  0.30610000  1.0 0.1521293967
H  H80  1  0.42660000  0.06330000  0.30610000  1.0 0.1521293967
H  H81  1  0.03120000  0.45150000  0.34410000  1.0 0.1206133188
H  H82  1  0.96880000  0.54850000  0.34410000  1.0 0.1206133188
H  H83  1  0.45150000  0.96880000  0.34410000  1.0 0.1206133188
H  H84  1  0.54850000  0.03120000  0.34410000  1.0 0.1206133188
H  H85  1  0.03120000  0.54850000  0.65590000  1.0 0.1206133188
H  H86  1  0.96880000  0.45150000  0.65590000  1.0 0.1206133188
H  H87  1  0.45150000  0.03120000  0.65590000  1.0 0.1206133188
H  H88  1  0.54850000  0.96880000  0.65590000  1.0 0.1206133188
H  H89  1  0.96880000  0.54850000  0.65590000  1.0 0.1206133188
H  H90  1  0.03120000  0.45150000  0.65590000  1.0 0.1206133188
H  H91  1  0.54850000  0.03120000  0.65590000  1.0 0.1206133188
H  H92  1  0.45150000  0.96880000  0.65590000  1.0 0.1206133188
H  H93  1  0.96880000  0.45150000  0.34410000  1.0 0.1206133188
H  H94  1  0.03120000  0.54850000  0.34410000  1.0 0.1206133188
H  H95  1  0.54850000  0.96880000  0.34410000  1.0 0.1206133188
H  H96  1  0.45150000  0.03120000  0.34410000  1.0 0.1206133188
H  H97  1  0.06530000  0.47010000  0.29670000  1.0 0.1286234706
H  H98  1  0.93470000  0.52990000  0.29670000  1.0 0.1286234706
H  H99  1  0.47010000  0.93470000  0.29670000  1.0 0.1286234706
H  H100  1  0.52990000  0.06530000  0.29670000  1.0 0.1286234706
H  H101  1  0.06530000  0.52990000  0.70330000  1.0 0.1286234706
H  H102  1  0.93470000  0.47010000  0.70330000  1.0 0.1286234706
H  H103  1  0.47010000  0.06530000  0.70330000  1.0 0.1286234706
H  H104  1  0.52990000  0.93470000  0.70330000  1.0 0.1286234706
H  H105  1  0.93470000  0.52990000  0.70330000  1.0 0.1286234706
H  H106  1  0.06530000  0.47010000  0.70330000  1.0 0.1286234706
H  H107  1  0.52990000  0.06530000  0.70330000  1.0 0.1286234706
H  H108  1  0.47010000  0.93470000  0.70330000  1.0 0.1286234706
H  H109  1  0.93470000  0.47010000  0.29670000  1.0 0.1286234706
H  H110  1  0.06530000  0.52990000  0.29670000  1.0 0.1286234706
H  H111  1  0.52990000  0.93470000  0.29670000  1.0 0.1286234706
H  H112  1  0.47010000  0.06530000  0.29670000  1.0 0.1286234706
H  H113  1  0.04900000  0.21390000  0.50000000  1.0 0.1286234706
H  H114  1  0.95100000  0.78610000  0.50000000  1.0 0.1286234706
H  H115  1  0.21390000  0.95100000  0.50000000  1.0 0.1286234706
H  H116  1  0.78610000  0.04900000  0.50000000  1.0 0.1286234706
H  H117  1  0.04900000  0.78610000  0.50000000  1.0 0.1286234706
H  H118  1  0.95100000  0.21390000  0.50000000  1.0 0.1286234706
H  H119  1  0.21390000  0.04900000  0.50000000  1.0 0.1286234706
H  H120  1  0.78610000  0.95100000  0.50000000  1.0 0.1286234706
H  H121  1  0.07290000  0.24260000  0.30470000  1.0 0.1521293967
H  H122  1  0.92710000  0.75740000  0.30470000  1.0 0.1521293967
H  H123  1  0.24260000  0.92710000  0.30470000  1.0 0.1521293967
H  H124  1  0.75740000  0.07290000  0.30470000  1.0 0.1521293967
H  H125  1  0.07290000  0.75740000  0.69530000  1.0 0.1521293967
H  H126  1  0.92710000  0.24260000  0.69530000  1.0 0.1521293967
H  H127  1  0.24260000  0.07290000  0.69530000  1.0 0.1521293967
H  H128  1  0.75740000  0.92710000  0.69530000  1.0 0.1521293967
H  H129  1  0.92710000  0.75740000  0.69530000  1.0 0.1521293967
H  H130  1  0.07290000  0.24260000  0.69530000  1.0 0.1521293967
H  H131  1  0.75740000  0.07290000  0.69530000  1.0 0.1521293967
H  H132  1  0.24260000  0.92710000  0.69530000  1.0 0.1521293967
H  H133  1  0.92710000  0.24260000  0.30470000  1.0 0.1521293967
H  H134  1  0.07290000  0.75740000  0.30470000  1.0 0.1521293967
H  H135  1  0.75740000  0.92710000  0.30470000  1.0 0.1521293967
H  H136  1  0.24260000  0.07290000  0.30470000  1.0 0.1521293967
H  H137  1  0.04800000  0.21090000  0.34470000  1.0 0.1206133188
H  H138  1  0.95200000  0.78910000  0.34470000  1.0 0.1206133188
H  H139  1  0.21090000  0.95200000  0.34470000  1.0 0.1206133188
H  H140  1  0.78910000  0.04800000  0.34470000  1.0 0.1206133188
H  H141  1  0.04800000  0.78910000  0.65530000  1.0 0.1206133188
H  H142  1  0.95200000  0.21090000  0.65530000  1.0 0.1206133188
H  H143  1  0.21090000  0.04800000  0.65530000  1.0 0.1206133188
H  H144  1  0.78910000  0.95200000  0.65530000  1.0 0.1206133188
H  H145  1  0.95200000  0.78910000  0.65530000  1.0 0.1206133188
H  H146  1  0.04800000  0.21090000  0.65530000  1.0 0.1206133188
H  H147  1  0.78910000  0.04800000  0.65530000  1.0 0.1206133188
H  H148  1  0.21090000  0.95200000  0.65530000  1.0 0.1206133188
H  H149  1  0.95200000  0.21090000  0.34470000  1.0 0.1206133188
H  H150  1  0.04800000  0.78910000  0.34470000  1.0 0.1206133188
H  H151  1  0.78910000  0.95200000  0.34470000  1.0 0.1206133188
H  H152  1  0.21090000  0.04800000  0.34470000  1.0 0.1206133188
H  H153  1  0.02940000  0.24480000  0.29620000  1.0 0.1286234706
H  H154  1  0.97060000  0.75520000  0.29620000  1.0 0.1286234706
H  H155  1  0.24480000  0.97060000  0.29620000  1.0 0.1286234706
H  H156  1  0.75520000  0.02940000  0.29620000  1.0 0.1286234706
H  H157  1  0.02940000  0.75520000  0.70380000  1.0 0.1286234706
H  H158  1  0.97060000  0.24480000  0.70380000  1.0 0.1286234706
H  H159  1  0.24480000  0.02940000  0.70380000  1.0 0.1286234706
H  H160  1  0.75520000  0.97060000  0.70380000  1.0 0.1286234706
H  H161  1  0.97060000  0.75520000  0.70380000  1.0 0.1286234706
H  H162  1  0.02940000  0.24480000  0.70380000  1.0 0.1286234706
H  H163  1  0.75520000  0.02940000  0.70380000  1.0 0.1286234706
H  H164  1  0.24480000  0.97060000  0.70380000  1.0 0.1286234706
H  H165  1  0.97060000  0.24480000  0.29620000  1.0 0.1286234706
H  H166  1  0.02940000  0.75520000  0.29620000  1.0 0.1286234706
H  H167  1  0.75520000  0.97060000  0.29620000  1.0 0.1286234706
H  H168  1  0.24480000  0.02940000  0.29620000  1.0 0.1286234706
H  H169  1  0.23130000  0.30130000  0.94010000  1.0 0.0356041639
H  H170  1  0.76870000  0.69870000  0.94010000  1.0 0.0356041639
H  H171  1  0.30130000  0.76870000  0.94010000  1.0 0.0356041639
H  H172  1  0.69870000  0.23130000  0.94010000  1.0 0.0356041639
H  H173  1  0.23130000  0.69870000  0.05990000  1.0 0.0356041639
H  H174  1  0.76870000  0.30130000  0.05990000  1.0 0.0356041639
H  H175  1  0.30130000  0.23130000  0.05990000  1.0 0.0356041639
H  H176  1  0.69870000  0.76870000  0.05990000  1.0 0.0356041639
H  H177  1  0.76870000  0.69870000  0.05990000  1.0 0.0356041639
H  H178  1  0.23130000  0.30130000  0.05990000  1.0 0.0356041639
H  H179  1  0.69870000  0.23130000  0.05990000  1.0 0.0356041639
H  H180  1  0.30130000  0.76870000  0.05990000  1.0 0.0356041639
H  H181  1  0.76870000  0.30130000  0.94010000  1.0 0.0356041639
H  H182  1  0.23130000  0.69870000  0.94010000  1.0 0.0356041639
H  H183  1  0.69870000  0.76870000  0.94010000  1.0 0.0356041639
H  H184  1  0.30130000  0.23130000  0.94010000  1.0 0.0356041639
H  H185  1  0.21640000  0.31490000  0.03230000  1.0 0.0593632598
H  H186  1  0.78360000  0.68510000  0.03230000  1.0 0.0593632598
H  H187  1  0.31490000  0.78360000  0.03230000  1.0 0.0593632598
H  H188  1  0.68510000  0.21640000  0.03230000  1.0 0.0593632598
H  H189  1  0.21640000  0.68510000  0.96770000  1.0 0.0593632598
H  H190  1  0.78360000  0.31490000  0.96770000  1.0 0.0593632598
H  H191  1  0.31490000  0.21640000  0.96770000  1.0 0.0593632598
H  H192  1  0.68510000  0.78360000  0.96770000  1.0 0.0593632598
H  H193  1  0.78360000  0.68510000  0.96770000  1.0 0.0593632598
H  H194  1  0.21640000  0.31490000  0.96770000  1.0 0.0593632598
H  H195  1  0.68510000  0.21640000  0.96770000  1.0 0.0593632598
H  H196  1  0.31490000  0.78360000  0.96770000  1.0 0.0593632598
H  H197  1  0.78360000  0.31490000  0.03230000  1.0 0.0593632598
H  H198  1  0.21640000  0.68510000  0.03230000  1.0 0.0593632598
H  H199  1  0.68510000  0.78360000  0.03230000  1.0 0.0593632598
H  H200  1  0.31490000  0.21640000  0.03230000  1.0 0.0593632598
H  H201  1  0.24860000  0.28540000  0.02760000  1.0 0.0526790562
H  H202  1  0.75140000  0.71460000  0.02760000  1.0 0.0526790562
H  H203  1  0.28540000  0.75140000  0.02760000  1.0 0.0526790562
H  H204  1  0.71460000  0.24860000  0.02760000  1.0 0.0526790562
H  H205  1  0.24860000  0.71460000  0.97240000  1.0 0.0526790562
H  H206  1  0.75140000  0.28540000  0.97240000  1.0 0.0526790562
H  H207  1  0.28540000  0.24860000  0.97240000  1.0 0.0526790562
H  H208  1  0.71460000  0.75140000  0.97240000  1.0 0.0526790562
H  H209  1  0.75140000  0.71460000  0.97240000  1.0 0.0526790562
H  H210  1  0.24860000  0.28540000  0.97240000  1.0 0.0526790562
H  H211  1  0.71460000  0.24860000  0.97240000  1.0 0.0526790562
H  H212  1  0.28540000  0.75140000  0.97240000  1.0 0.0526790562
H  H213  1  0.75140000  0.28540000  0.02760000  1.0 0.0526790562
H  H214  1  0.24860000  0.71460000  0.02760000  1.0 0.0526790562
H  H215  1  0.71460000  0.75140000  0.02760000  1.0 0.0526790562
H  H216  1  0.28540000  0.24860000  0.02760000  1.0 0.0526790562
H  H217  1  0.18550000  0.45370000  0.56000000  1.0 0.0294263455
H  H218  1  0.81450000  0.54630000  0.56000000  1.0 0.0294263455
H  H219  1  0.45370000  0.81450000  0.56000000  1.0 0.0294263455
H  H220  1  0.54630000  0.18550000  0.56000000  1.0 0.0294263455
H  H221  1  0.18550000  0.54630000  0.44000000  1.0 0.0294263455
H  H222  1  0.81450000  0.45370000  0.44000000  1.0 0.0294263455
H  H223  1  0.45370000  0.18550000  0.44000000  1.0 0.0294263455
H  H224  1  0.54630000  0.81450000  0.44000000  1.0 0.0294263455
H  H225  1  0.81450000  0.54630000  0.44000000  1.0 0.0294263455
H  H226  1  0.18550000  0.45370000  0.44000000  1.0 0.0294263455
H  H227  1  0.54630000  0.18550000  0.44000000  1.0 0.0294263455
H  H228  1  0.45370000  0.81450000  0.44000000  1.0 0.0294263455
H  H229  1  0.81450000  0.45370000  0.56000000  1.0 0.0294263455
H  H230  1  0.18550000  0.54630000  0.56000000  1.0 0.0294263455
H  H231  1  0.54630000  0.81450000  0.56000000  1.0 0.0294263455
H  H232  1  0.45370000  0.18550000  0.56000000  1.0 0.0294263455
H  H233  1  0.18530000  0.43220000  0.46950000  1.0 0.0688617313
H  H234  1  0.81470000  0.56780000  0.46950000  1.0 0.0688617313
H  H235  1  0.43220000  0.81470000  0.46950000  1.0 0.0688617313
H  H236  1  0.56780000  0.18530000  0.46950000  1.0 0.0688617313
H  H237  1  0.18530000  0.56780000  0.53050000  1.0 0.0688617313
H  H238  1  0.81470000  0.43220000  0.53050000  1.0 0.0688617313
H  H239  1  0.43220000  0.18530000  0.53050000  1.0 0.0688617313
H  H240  1  0.56780000  0.81470000  0.53050000  1.0 0.0688617313
H  H241  1  0.81470000  0.56780000  0.53050000  1.0 0.0688617313
H  H242  1  0.18530000  0.43220000  0.53050000  1.0 0.0688617313
H  H243  1  0.56780000  0.18530000  0.53050000  1.0 0.0688617313
H  H244  1  0.43220000  0.81470000  0.53050000  1.0 0.0688617313
H  H245  1  0.81470000  0.43220000  0.46950000  1.0 0.0688617313
H  H246  1  0.18530000  0.56780000  0.46950000  1.0 0.0688617313
H  H247  1  0.56780000  0.81470000  0.46950000  1.0 0.0688617313
H  H248  1  0.43220000  0.18530000  0.46950000  1.0 0.0688617313
H  H249  1  0.18570000  0.47590000  0.47050000  1.0 0.0526790562
H  H250  1  0.81430000  0.52410000  0.47050000  1.0 0.0526790562
H  H251  1  0.47590000  0.81430000  0.47050000  1.0 0.0526790562
H  H252  1  0.52410000  0.18570000  0.47050000  1.0 0.0526790562
H  H253  1  0.18570000  0.52410000  0.52950000  1.0 0.0526790562
H  H254  1  0.81430000  0.47590000  0.52950000  1.0 0.0526790562
H  H255  1  0.47590000  0.18570000  0.52950000  1.0 0.0526790562
H  H256  1  0.52410000  0.81430000  0.52950000  1.0 0.0526790562
H  H257  1  0.81430000  0.52410000  0.52950000  1.0 0.0526790562
H  H258  1  0.18570000  0.47590000  0.52950000  1.0 0.0526790562
H  H259  1  0.52410000  0.18570000  0.52950000  1.0 0.0526790562
H  H260  1  0.47590000  0.81430000  0.52950000  1.0 0.0526790562
H  H261  1  0.81430000  0.47590000  0.47050000  1.0 0.0526790562
H  H262  1  0.18570000  0.52410000  0.47050000  1.0 0.0526790562
H  H263  1  0.52410000  0.81430000  0.47050000  1.0 0.0526790562
H  H264  1  0.47590000  0.18570000  0.47050000  1.0 0.0526790562
H  H265  1  0.04750000  0.36640000  0.56000000  1.0 0.0805657108
H  H266  1  0.95250000  0.63360000  0.56000000  1.0 0.0805657108
H  H267  1  0.36640000  0.95250000  0.56000000  1.0 0.0805657108
H  H268  1  0.63360000  0.04750000  0.56000000  1.0 0.0805657108
H  H269  1  0.04750000  0.63360000  0.44000000  1.0 0.0805657108
H  H270  1  0.95250000  0.36640000  0.44000000  1.0 0.0805657108
H  H271  1  0.36640000  0.04750000  0.44000000  1.0 0.0805657108
H  H272  1  0.63360000  0.95250000  0.44000000  1.0 0.0805657108
H  H273  1  0.95250000  0.63360000  0.44000000  1.0 0.0805657108
H  H274  1  0.04750000  0.36640000  0.44000000  1.0 0.0805657108
H  H275  1  0.63360000  0.04750000  0.44000000  1.0 0.0805657108
H  H276  1  0.36640000  0.95250000  0.44000000  1.0 0.0805657108
H  H277  1  0.95250000  0.36640000  0.56000000  1.0 0.0805657108
H  H278  1  0.04750000  0.63360000  0.56000000  1.0 0.0805657108
H  H279  1  0.63360000  0.95250000  0.56000000  1.0 0.0805657108
H  H280  1  0.36640000  0.04750000  0.56000000  1.0 0.0805657108
H  H281  1  0.07040000  0.36540000  0.47140000  1.0 0.0995084483
H  H282  1  0.92960000  0.63460000  0.47140000  1.0 0.0995084483
H  H283  1  0.36540000  0.92960000  0.47140000  1.0 0.0995084483
H  H284  1  0.63460000  0.07040000  0.47140000  1.0 0.0995084483
H  H285  1  0.07040000  0.63460000  0.52860000  1.0 0.0995084483
H  H286  1  0.92960000  0.36540000  0.52860000  1.0 0.0995084483
H  H287  1  0.36540000  0.07040000  0.52860000  1.0 0.0995084483
H  H288  1  0.63460000  0.92960000  0.52860000  1.0 0.0995084483
H  H289  1  0.92960000  0.63460000  0.52860000  1.0 0.0995084483
H  H290  1  0.07040000  0.36540000  0.52860000  1.0 0.0995084483
H  H291  1  0.63460000  0.07040000  0.52860000  1.0 0.0995084483
H  H292  1  0.36540000  0.92960000  0.52860000  1.0 0.0995084483
H  H293  1  0.92960000  0.36540000  0.47140000  1.0 0.0995084483
H  H294  1  0.07040000  0.63460000  0.47140000  1.0 0.0995084483
H  H295  1  0.63460000  0.92960000  0.47140000  1.0 0.0995084483
H  H296  1  0.36540000  0.07040000  0.47140000  1.0 0.0995084483
H  H297  1  0.02670000  0.36740000  0.46860000  1.0 0.0805657108
H  H298  1  0.97330000  0.63260000  0.46860000  1.0 0.0805657108
H  H299  1  0.36740000  0.97330000  0.46860000  1.0 0.0805657108
H  H300  1  0.63260000  0.02670000  0.46860000  1.0 0.0805657108
H  H301  1  0.02670000  0.63260000  0.53140000  1.0 0.0805657108
H  H302  1  0.97330000  0.36740000  0.53140000  1.0 0.0805657108
H  H303  1  0.36740000  0.02670000  0.53140000  1.0 0.0805657108
H  H304  1  0.63260000  0.97330000  0.53140000  1.0 0.0805657108
H  H305  1  0.97330000  0.63260000  0.53140000  1.0 0.0805657108
H  H306  1  0.02670000  0.36740000  0.53140000  1.0 0.0805657108
H  H307  1  0.63260000  0.02670000  0.53140000  1.0 0.0805657108
H  H308  1  0.36740000  0.97330000  0.53140000  1.0 0.0805657108
H  H309  1  0.97330000  0.36740000  0.46860000  1.0 0.0805657108
H  H310  1  0.02670000  0.63260000  0.46860000  1.0 0.0805657108
H  H311  1  0.63260000  0.97330000  0.46860000  1.0 0.0805657108
H  H312  1  0.36740000  0.02670000  0.46860000  1.0 0.0805657108
C  C1  1  0.18770000  0.29130000  0.19290000  1.0 0.330076836
C  C2  1  0.81230000  0.70870000  0.19290000  1.0 0.330076836
C  C3  1  0.29130000  0.81230000  0.19290000  1.0 0.330076836
C  C4  1  0.70870000  0.18770000  0.19290000  1.0 0.330076836
C  C5  1  0.18770000  0.70870000  0.80710000  1.0 0.330076836
C  C6  1  0.81230000  0.29130000  0.80710000  1.0 0.330076836
C  C7  1  0.29130000  0.18770000  0.80710000  1.0 0.330076836
C  C8  1  0.70870000  0.81230000  0.80710000  1.0 0.330076836
C  C9  1  0.81230000  0.70870000  0.80710000  1.0 0.330076836
C  C10  1  0.18770000  0.29130000  0.80710000  1.0 0.330076836
C  C11  1  0.70870000  0.18770000  0.80710000  1.0 0.330076836
C  C12  1  0.29130000  0.81230000  0.80710000  1.0 0.330076836
C  C13  1  0.81230000  0.29130000  0.19290000  1.0 0.330076836
C  C14  1  0.18770000  0.70870000  0.19290000  1.0 0.330076836
C  C15  1  0.70870000  0.81230000  0.19290000  1.0 0.330076836
C  C16  1  0.29130000  0.18770000  0.19290000  1.0 0.330076836
C  C17  1  0.20520000  0.30240000  0.27770000  1.0 0.4606936899
C  C18  1  0.79480000  0.69760000  0.27770000  1.0 0.4606936899
C  C19  1  0.30240000  0.79480000  0.27770000  1.0 0.4606936899
C  C20  1  0.69760000  0.20520000  0.27770000  1.0 0.4606936899
C  C21  1  0.20520000  0.69760000  0.72230000  1.0 0.4606936899
C  C22  1  0.79480000  0.30240000  0.72230000  1.0 0.4606936899
C  C23  1  0.30240000  0.20520000  0.72230000  1.0 0.4606936899
C  C24  1  0.69760000  0.79480000  0.72230000  1.0 0.4606936899
C  C25  1  0.79480000  0.69760000  0.72230000  1.0 0.4606936899
C  C26  1  0.20520000  0.30240000  0.72230000  1.0 0.4606936899
C  C27  1  0.69760000  0.20520000  0.72230000  1.0 0.4606936899
C  C28  1  0.30240000  0.79480000  0.72230000  1.0 0.4606936899
C  C29  1  0.79480000  0.30240000  0.27770000  1.0 0.4606936899
C  C30  1  0.20520000  0.69760000  0.27770000  1.0 0.4606936899
C  C31  1  0.69760000  0.79480000  0.27770000  1.0 0.4606936899
C  C32  1  0.30240000  0.20520000  0.27770000  1.0 0.4606936899
C  C33  1  0.18480000  0.24930000  0.07700000  1.0 0.0805657108
C  C34  1  0.81520000  0.75070000  0.07700000  1.0 0.0805657108
C  C35  1  0.24930000  0.81520000  0.07700000  1.0 0.0805657108
C  C36  1  0.75070000  0.18480000  0.07700000  1.0 0.0805657108
C  C37  1  0.18480000  0.75070000  0.92300000  1.0 0.0805657108
C  C38  1  0.81520000  0.24930000  0.92300000  1.0 0.0805657108
C  C39  1  0.24930000  0.18480000  0.92300000  1.0 0.0805657108
C  C40  1  0.75070000  0.81520000  0.92300000  1.0 0.0805657108
C  C41  1  0.81520000  0.75070000  0.92300000  1.0 0.0805657108
C  C42  1  0.18480000  0.24930000  0.92300000  1.0 0.0805657108
C  C43  1  0.75070000  0.18480000  0.92300000  1.0 0.0805657108
C  C44  1  0.24930000  0.81520000  0.92300000  1.0 0.0805657108
C  C45  1  0.81520000  0.24930000  0.07700000  1.0 0.0805657108
C  C46  1  0.18480000  0.75070000  0.07700000  1.0 0.0805657108
C  C47  1  0.75070000  0.81520000  0.07700000  1.0 0.0805657108
C  C48  1  0.24930000  0.18480000  0.07700000  1.0 0.0805657108
C  C49  1  0.15520000  0.22570000  0.07840000  1.0 0.0995084483
C  C50  1  0.84480000  0.77430000  0.07840000  1.0 0.0995084483
C  C51  1  0.22570000  0.84480000  0.07840000  1.0 0.0995084483
C  C52  1  0.77430000  0.15520000  0.07840000  1.0 0.0995084483
C  C53  1  0.15520000  0.77430000  0.92160000  1.0 0.0995084483
C  C54  1  0.84480000  0.22570000  0.92160000  1.0 0.0995084483
C  C55  1  0.22570000  0.15520000  0.92160000  1.0 0.0995084483
C  C56  1  0.77430000  0.84480000  0.92160000  1.0 0.0995084483
C  C57  1  0.84480000  0.77430000  0.92160000  1.0 0.0995084483
C  C58  1  0.15520000  0.22570000  0.92160000  1.0 0.0995084483
C  C59  1  0.77430000  0.15520000  0.92160000  1.0 0.0995084483
C  C60  1  0.22570000  0.84480000  0.92160000  1.0 0.0995084483
C  C61  1  0.84480000  0.22570000  0.07840000  1.0 0.0995084483
C  C62  1  0.15520000  0.77430000  0.07840000  1.0 0.0995084483
C  C63  1  0.77430000  0.84480000  0.07840000  1.0 0.0995084483
C  C64  1  0.22570000  0.15520000  0.07840000  1.0 0.0995084483
C  C65  1  0.14240000  0.21400000  0.00000000  1.0 -0.2366076187
C  C66  1  0.85760000  0.78600000  0.00000000  1.0 -0.2366076187
C  C67  1  0.21400000  0.85760000  0.00000000  1.0 -0.2366076187
C  C68  1  0.78600000  0.14240000  0.00000000  1.0 -0.2366076187
C  C69  1  0.14240000  0.78600000  0.00000000  1.0 -0.2366076187
C  C70  1  0.85760000  0.21400000  0.00000000  1.0 -0.2366076187
C  C71  1  0.21400000  0.14240000  0.00000000  1.0 -0.2366076187
C  C72  1  0.78600000  0.85760000  0.00000000  1.0 -0.2366076187
C  C73  1  0.19750000  0.26260000  0.00000000  1.0 -0.0186042898
C  C74  1  0.80250000  0.73740000  0.00000000  1.0 -0.0186042898
C  C75  1  0.26260000  0.80250000  0.00000000  1.0 -0.0186042898
C  C76  1  0.73740000  0.19750000  0.00000000  1.0 -0.0186042898
C  C77  1  0.19750000  0.73740000  0.00000000  1.0 -0.0186042898
C  C78  1  0.80250000  0.26260000  0.00000000  1.0 -0.0186042898
C  C79  1  0.26260000  0.19750000  0.00000000  1.0 -0.0186042898
C  C80  1  0.73740000  0.80250000  0.00000000  1.0 -0.0186042898
C  C81  1  0.22610000  0.29390000  0.00000000  1.0 -0.22825424
C  C82  1  0.77390000  0.70610000  0.00000000  1.0 -0.22825424
C  C83  1  0.29390000  0.77390000  0.00000000  1.0 -0.22825424
C  C84  1  0.70610000  0.22610000  0.00000000  1.0 -0.22825424
C  C85  1  0.22610000  0.70610000  0.00000000  1.0 -0.22825424
C  C86  1  0.77390000  0.29390000  0.00000000  1.0 -0.22825424
C  C87  1  0.29390000  0.22610000  0.00000000  1.0 -0.22825424
C  C88  1  0.70610000  0.77390000  0.00000000  1.0 -0.22825424
C  C89  1  0.13850000  0.21270000  0.16350000  1.0 -0.4189909418
C  C90  1  0.86150000  0.78730000  0.16350000  1.0 -0.4189909418
C  C91  1  0.21270000  0.86150000  0.16350000  1.0 -0.4189909418
C  C92  1  0.78730000  0.13850000  0.16350000  1.0 -0.4189909418
C  C93  1  0.13850000  0.78730000  0.83650000  1.0 -0.4189909418
C  C94  1  0.86150000  0.21270000  0.83650000  1.0 -0.4189909418
C  C95  1  0.21270000  0.13850000  0.83650000  1.0 -0.4189909418
C  C96  1  0.78730000  0.86150000  0.83650000  1.0 -0.4189909418
C  C97  1  0.86150000  0.78730000  0.83650000  1.0 -0.4189909418
C  C98  1  0.13850000  0.21270000  0.83650000  1.0 -0.4189909418
C  C99  1  0.78730000  0.13850000  0.83650000  1.0 -0.4189909418
C  C100  1  0.21270000  0.86150000  0.83650000  1.0 -0.4189909418
C  C101  1  0.86150000  0.21270000  0.16350000  1.0 -0.4189909418
C  C102  1  0.13850000  0.78730000  0.16350000  1.0 -0.4189909418
C  C103  1  0.78730000  0.86150000  0.16350000  1.0 -0.4189909418
C  C104  1  0.21270000  0.13850000  0.16350000  1.0 -0.4189909418
C  C105  1  0.14520000  0.42580000  0.30430000  1.0 0.3470866944
C  C106  1  0.85480000  0.57420000  0.30430000  1.0 0.3470866944
C  C107  1  0.42580000  0.85480000  0.30430000  1.0 0.3470866944
C  C108  1  0.57420000  0.14520000  0.30430000  1.0 0.3470866944
C  C109  1  0.14520000  0.57420000  0.69570000  1.0 0.3470866944
C  C110  1  0.85480000  0.42580000  0.69570000  1.0 0.3470866944
C  C111  1  0.42580000  0.14520000  0.69570000  1.0 0.3470866944
C  C112  1  0.57420000  0.85480000  0.69570000  1.0 0.3470866944
C  C113  1  0.85480000  0.57420000  0.69570000  1.0 0.3470866944
C  C114  1  0.14520000  0.42580000  0.69570000  1.0 0.3470866944
C  C115  1  0.57420000  0.14520000  0.69570000  1.0 0.3470866944
C  C116  1  0.42580000  0.85480000  0.69570000  1.0 0.3470866944
C  C117  1  0.85480000  0.42580000  0.30430000  1.0 0.3470866944
C  C118  1  0.14520000  0.57420000  0.30430000  1.0 0.3470866944
C  C119  1  0.57420000  0.85480000  0.30430000  1.0 0.3470866944
C  C120  1  0.42580000  0.14520000  0.30430000  1.0 0.3470866944
C  C121  1  0.16260000  0.42890000  0.21550000  1.0 0.4480977431
C  C122  1  0.83740000  0.57110000  0.21550000  1.0 0.4480977431
C  C123  1  0.42890000  0.83740000  0.21550000  1.0 0.4480977431
C  C124  1  0.57110000  0.16260000  0.21550000  1.0 0.4480977431
C  C125  1  0.16260000  0.57110000  0.78450000  1.0 0.4480977431
C  C126  1  0.83740000  0.42890000  0.78450000  1.0 0.4480977431
C  C127  1  0.42890000  0.16260000  0.78450000  1.0 0.4480977431
C  C128  1  0.57110000  0.83740000  0.78450000  1.0 0.4480977431
C  C129  1  0.83740000  0.57110000  0.78450000  1.0 0.4480977431
C  C130  1  0.16260000  0.42890000  0.78450000  1.0 0.4480977431
C  C131  1  0.57110000  0.16260000  0.78450000  1.0 0.4480977431
C  C132  1  0.42890000  0.83740000  0.78450000  1.0 0.4480977431
C  C133  1  0.83740000  0.42890000  0.21550000  1.0 0.4480977431
C  C134  1  0.16260000  0.57110000  0.21550000  1.0 0.4480977431
C  C135  1  0.57110000  0.83740000  0.21550000  1.0 0.4480977431
C  C136  1  0.42890000  0.16260000  0.21550000  1.0 0.4480977431
C  C137  1  0.11470000  0.45490000  0.42160000  1.0 0.0914853457
C  C138  1  0.88530000  0.54510000  0.42160000  1.0 0.0914853457
C  C139  1  0.45490000  0.88530000  0.42160000  1.0 0.0914853457
C  C140  1  0.54510000  0.11470000  0.42160000  1.0 0.0914853457
C  C141  1  0.11470000  0.54510000  0.57840000  1.0 0.0914853457
C  C142  1  0.88530000  0.45490000  0.57840000  1.0 0.0914853457
C  C143  1  0.45490000  0.11470000  0.57840000  1.0 0.0914853457
C  C144  1  0.54510000  0.88530000  0.57840000  1.0 0.0914853457
C  C145  1  0.88530000  0.54510000  0.57840000  1.0 0.0914853457
C  C146  1  0.11470000  0.45490000  0.57840000  1.0 0.0914853457
C  C147  1  0.54510000  0.11470000  0.57840000  1.0 0.0914853457
C  C148  1  0.45490000  0.88530000  0.57840000  1.0 0.0914853457
C  C149  1  0.88530000  0.45490000  0.42160000  1.0 0.0914853457
C  C150  1  0.11470000  0.54510000  0.42160000  1.0 0.0914853457
C  C151  1  0.54510000  0.88530000  0.42160000  1.0 0.0914853457
C  C152  1  0.45490000  0.11470000  0.42160000  1.0 0.0914853457
C  C153  1  0.07760000  0.45240000  0.42120000  1.0 0.0688617313
C  C154  1  0.92240000  0.54760000  0.42120000  1.0 0.0688617313
C  C155  1  0.45240000  0.92240000  0.42120000  1.0 0.0688617313
C  C156  1  0.54760000  0.07760000  0.42120000  1.0 0.0688617313
C  C157  1  0.07760000  0.54760000  0.57880000  1.0 0.0688617313
C  C158  1  0.92240000  0.45240000  0.57880000  1.0 0.0688617313
C  C159  1  0.45240000  0.07760000  0.57880000  1.0 0.0688617313
C  C160  1  0.54760000  0.92240000  0.57880000  1.0 0.0688617313
C  C161  1  0.92240000  0.54760000  0.57880000  1.0 0.0688617313
C  C162  1  0.07760000  0.45240000  0.57880000  1.0 0.0688617313
C  C163  1  0.54760000  0.07760000  0.57880000  1.0 0.0688617313
C  C164  1  0.45240000  0.92240000  0.57880000  1.0 0.0688617313
C  C165  1  0.92240000  0.45240000  0.42120000  1.0 0.0688617313
C  C166  1  0.07760000  0.54760000  0.42120000  1.0 0.0688617313
C  C167  1  0.54760000  0.92240000  0.42120000  1.0 0.0688617313
C  C168  1  0.45240000  0.07760000  0.42120000  1.0 0.0688617313
C  C169  1  0.06090000  0.45170000  0.50000000  1.0 -0.22825424
C  C170  1  0.93910000  0.54830000  0.50000000  1.0 -0.22825424
C  C171  1  0.45170000  0.93910000  0.50000000  1.0 -0.22825424
C  C172  1  0.54830000  0.06090000  0.50000000  1.0 -0.22825424
C  C173  1  0.06090000  0.54830000  0.50000000  1.0 -0.22825424
C  C174  1  0.93910000  0.45170000  0.50000000  1.0 -0.22825424
C  C175  1  0.45170000  0.06090000  0.50000000  1.0 -0.22825424
C  C176  1  0.54830000  0.93910000  0.50000000  1.0 -0.22825424
C  C177  1  0.13420000  0.45440000  0.50000000  1.0 0.0294263455
C  C178  1  0.86580000  0.54560000  0.50000000  1.0 0.0294263455
C  C179  1  0.45440000  0.86580000  0.50000000  1.0 0.0294263455
C  C180  1  0.54560000  0.13420000  0.50000000  1.0 0.0294263455
C  C181  1  0.13420000  0.54560000  0.50000000  1.0 0.0294263455
C  C182  1  0.86580000  0.45440000  0.50000000  1.0 0.0294263455
C  C183  1  0.45440000  0.13420000  0.50000000  1.0 0.0294263455
C  C184  1  0.54560000  0.86580000  0.50000000  1.0 0.0294263455
C  C185  1  0.17660000  0.45400000  0.50000000  1.0 -0.2607748183
C  C186  1  0.82340000  0.54600000  0.50000000  1.0 -0.2607748183
C  C187  1  0.45400000  0.82340000  0.50000000  1.0 -0.2607748183
C  C188  1  0.54600000  0.17660000  0.50000000  1.0 -0.2607748183
C  C189  1  0.17660000  0.54600000  0.50000000  1.0 -0.2607748183
C  C190  1  0.82340000  0.45400000  0.50000000  1.0 -0.2607748183
C  C191  1  0.45400000  0.17660000  0.50000000  1.0 -0.2607748183
C  C192  1  0.54600000  0.82340000  0.50000000  1.0 -0.2607748183
C  C193  1  0.05760000  0.44990000  0.33420000  1.0 -0.4189909418
C  C194  1  0.94240000  0.55010000  0.33420000  1.0 -0.4189909418
C  C195  1  0.44990000  0.94240000  0.33420000  1.0 -0.4189909418
C  C196  1  0.55010000  0.05760000  0.33420000  1.0 -0.4189909418
C  C197  1  0.05760000  0.55010000  0.66580000  1.0 -0.4189909418
C  C198  1  0.94240000  0.44990000  0.66580000  1.0 -0.4189909418
C  C199  1  0.44990000  0.05760000  0.66580000  1.0 -0.4189909418
C  C200  1  0.55010000  0.94240000  0.66580000  1.0 -0.4189909418
C  C201  1  0.94240000  0.55010000  0.66580000  1.0 -0.4189909418
C  C202  1  0.05760000  0.44990000  0.66580000  1.0 -0.4189909418
C  C203  1  0.55010000  0.05760000  0.66580000  1.0 -0.4189909418
C  C204  1  0.44990000  0.94240000  0.66580000  1.0 -0.4189909418
C  C205  1  0.94240000  0.44990000  0.33420000  1.0 -0.4189909418
C  C206  1  0.05760000  0.55010000  0.33420000  1.0 -0.4189909418
C  C207  1  0.55010000  0.94240000  0.33420000  1.0 -0.4189909418
C  C208  1  0.44990000  0.05760000  0.33420000  1.0 -0.4189909418
C  C209  1  0.06750000  0.35280000  0.22280000  1.0 0.4606936899
C  C210  1  0.93250000  0.64720000  0.22280000  1.0 0.4606936899
C  C211  1  0.35280000  0.93250000  0.22280000  1.0 0.4606936899
C  C212  1  0.64720000  0.06750000  0.22280000  1.0 0.4606936899
C  C213  1  0.06750000  0.64720000  0.77720000  1.0 0.4606936899
C  C214  1  0.93250000  0.35280000  0.77720000  1.0 0.4606936899
C  C215  1  0.35280000  0.06750000  0.77720000  1.0 0.4606936899
C  C216  1  0.64720000  0.93250000  0.77720000  1.0 0.4606936899
C  C217  1  0.93250000  0.64720000  0.77720000  1.0 0.4606936899
C  C218  1  0.06750000  0.35280000  0.77720000  1.0 0.4606936899
C  C219  1  0.64720000  0.06750000  0.77720000  1.0 0.4606936899
C  C220  1  0.35280000  0.93250000  0.77720000  1.0 0.4606936899
C  C221  1  0.93250000  0.35280000  0.22280000  1.0 0.4606936899
C  C222  1  0.06750000  0.64720000  0.22280000  1.0 0.4606936899
C  C223  1  0.64720000  0.93250000  0.22280000  1.0 0.4606936899
C  C224  1  0.35280000  0.06750000  0.22280000  1.0 0.4606936899
C  C225  1  0.07420000  0.32570000  0.30390000  1.0 0.3449059352
C  C226  1  0.92580000  0.67430000  0.30390000  1.0 0.3449059352
C  C227  1  0.32570000  0.92580000  0.30390000  1.0 0.3470866944
C  C228  1  0.67430000  0.07420000  0.30390000  1.0 0.3449059352
C  C229  1  0.07420000  0.67430000  0.69610000  1.0 0.3470866944
C  C230  1  0.92580000  0.32570000  0.69610000  1.0 0.3449059352
C  C231  1  0.32570000  0.07420000  0.69610000  1.0 0.3449059352
C  C232  1  0.67430000  0.92580000  0.69610000  1.0 0.3470866944
C  C233  1  0.92580000  0.67430000  0.69610000  1.0 0.3449059352
C  C234  1  0.07420000  0.32570000  0.69610000  1.0 0.3449059352
C  C235  1  0.67430000  0.07420000  0.69610000  1.0 0.3449059352
C  C236  1  0.32570000  0.92580000  0.69610000  1.0 0.3470866944
C  C237  1  0.92580000  0.32570000  0.30390000  1.0 0.3449059352
C  C238  1  0.07420000  0.67430000  0.30390000  1.0 0.3470866944
C  C239  1  0.67430000  0.92580000  0.30390000  1.0 0.3470866944
C  C240  1  0.32570000  0.07420000  0.30390000  1.0 0.3449059352
C  C241  1  0.04630000  0.29600000  0.42210000  1.0 0.0914853457
C  C242  1  0.95370000  0.70400000  0.42210000  1.0 0.0914853457
C  C243  1  0.29600000  0.95370000  0.42210000  1.0 0.0914853457
C  C244  1  0.70400000  0.04630000  0.42210000  1.0 0.0914853457
C  C245  1  0.04630000  0.70400000  0.57790000  1.0 0.0914853457
C  C246  1  0.95370000  0.29600000  0.57790000  1.0 0.0914853457
C  C247  1  0.29600000  0.04630000  0.57790000  1.0 0.0914853457
C  C248  1  0.70400000  0.95370000  0.57790000  1.0 0.0914853457
C  C249  1  0.95370000  0.70400000  0.57790000  1.0 0.0914853457
C  C250  1  0.04630000  0.29600000  0.57790000  1.0 0.0914853457
C  C251  1  0.70400000  0.04630000  0.57790000  1.0 0.0914853457
C  C252  1  0.29600000  0.95370000  0.57790000  1.0 0.0914853457
C  C253  1  0.95370000  0.29600000  0.42210000  1.0 0.0914853457
C  C254  1  0.04630000  0.70400000  0.42210000  1.0 0.0914853457
C  C255  1  0.70400000  0.95370000  0.42210000  1.0 0.0914853457
C  C256  1  0.29600000  0.04630000  0.42210000  1.0 0.0914853457
C  C257  1  0.04770000  0.25810000  0.42050000  1.0 0.0995084483
C  C258  1  0.95230000  0.74190000  0.42050000  1.0 0.0995084483
C  C259  1  0.25810000  0.95230000  0.42050000  1.0 0.0995084483
C  C260  1  0.74190000  0.04770000  0.42050000  1.0 0.0995084483
C  C261  1  0.04770000  0.74190000  0.57950000  1.0 0.0995084483
C  C262  1  0.95230000  0.25810000  0.57950000  1.0 0.0995084483
C  C263  1  0.25810000  0.04770000  0.57950000  1.0 0.0995084483
C  C264  1  0.74190000  0.95230000  0.57950000  1.0 0.0995084483
C  C265  1  0.95230000  0.74190000  0.57950000  1.0 0.0995084483
C  C266  1  0.04770000  0.25810000  0.57950000  1.0 0.0995084483
C  C267  1  0.74190000  0.04770000  0.57950000  1.0 0.0995084483
C  C268  1  0.25810000  0.95230000  0.57950000  1.0 0.0995084483
C  C269  1  0.95230000  0.25810000  0.42050000  1.0 0.0995084483
C  C270  1  0.04770000  0.74190000  0.42050000  1.0 0.0995084483
C  C271  1  0.74190000  0.95230000  0.42050000  1.0 0.0995084483
C  C272  1  0.25810000  0.04770000  0.42050000  1.0 0.0995084483
C  C273  1  0.04830000  0.23990000  0.50000000  1.0 -0.2607748183
C  C274  1  0.95170000  0.76010000  0.50000000  1.0 -0.2607748183
C  C275  1  0.23990000  0.95170000  0.50000000  1.0 -0.2607748183
C  C276  1  0.76010000  0.04830000  0.50000000  1.0 -0.2607748183
C  C277  1  0.04830000  0.76010000  0.50000000  1.0 -0.2607748183
C  C278  1  0.95170000  0.23990000  0.50000000  1.0 -0.2607748183
C  C279  1  0.23990000  0.04830000  0.50000000  1.0 -0.2607748183
C  C280  1  0.76010000  0.95170000  0.50000000  1.0 -0.2607748183
C  C281  1  0.04580000  0.31560000  0.50000000  1.0 -0.0186042898
C  C282  1  0.95420000  0.68440000  0.50000000  1.0 -0.0186042898
C  C283  1  0.31560000  0.95420000  0.50000000  1.0 -0.0186042898
C  C284  1  0.68440000  0.04580000  0.50000000  1.0 -0.0186042898
C  C285  1  0.04580000  0.68440000  0.50000000  1.0 -0.0186042898
C  C286  1  0.95420000  0.31560000  0.50000000  1.0 -0.0186042898
C  C287  1  0.31560000  0.04580000  0.50000000  1.0 -0.0186042898
C  C288  1  0.68440000  0.95420000  0.50000000  1.0 -0.0186042898
C  C289  1  0.04780000  0.35750000  0.50000000  1.0 -0.3347520009
C  C290  1  0.95220000  0.64250000  0.50000000  1.0 -0.3355577961
C  C291  1  0.35750000  0.95220000  0.50000000  1.0 -0.3355577961
C  C292  1  0.64250000  0.04780000  0.50000000  1.0 -0.3347520009
C  C293  1  0.04780000  0.64250000  0.50000000  1.0 -0.3355577961
C  C294  1  0.95220000  0.35750000  0.50000000  1.0 -0.3355577961
C  C295  1  0.35750000  0.04780000  0.50000000  1.0 -0.3347520009
C  C296  1  0.64250000  0.95220000  0.50000000  1.0 -0.3355577961
C  C297  1  0.04970000  0.23720000  0.33360000  1.0 -0.4189909418
C  C298  1  0.95030000  0.76280000  0.33360000  1.0 -0.4189909418
C  C299  1  0.23720000  0.95030000  0.33360000  1.0 -0.4189909418
C  C300  1  0.76280000  0.04970000  0.33360000  1.0 -0.4189909418
C  C301  1  0.04970000  0.76280000  0.66640000  1.0 -0.4189909418
C  C302  1  0.95030000  0.23720000  0.66640000  1.0 -0.4189909418
C  C303  1  0.23720000  0.04970000  0.66640000  1.0 -0.4189909418
C  C304  1  0.76280000  0.95030000  0.66640000  1.0 -0.4189909418
C  C305  1  0.95030000  0.76280000  0.66640000  1.0 -0.4189909418
C  C306  1  0.04970000  0.23720000  0.66640000  1.0 -0.4189909418
C  C307  1  0.76280000  0.04970000  0.66640000  1.0 -0.4189909418
C  C308  1  0.23720000  0.95030000  0.66640000  1.0 -0.4189909418
C  C309  1  0.95030000  0.23720000  0.33360000  1.0 -0.4189909418
C  C310  1  0.04970000  0.76280000  0.33360000  1.0 -0.4189909418
C  C311  1  0.76280000  0.95030000  0.33360000  1.0 -0.4189909418
C  C312  1  0.23720000  0.04970000  0.33360000  1.0 -0.4189909418
N  N1  1  0.19985000  0.26164000  0.15960000  1.0 -0.3894071579
N  N2  1  0.80015000  0.73836000  0.15960000  1.0 -0.3894071579
N  N3  1  0.26164000  0.80015000  0.15960000  1.0 -0.3894071579
N  N4  1  0.73836000  0.19985000  0.15960000  1.0 -0.3894071579
N  N5  1  0.19985000  0.73836000  0.84040000  1.0 -0.3894071579
N  N6  1  0.80015000  0.26164000  0.84040000  1.0 -0.3894071579
N  N7  1  0.26164000  0.19985000  0.84040000  1.0 -0.3894071579
N  N8  1  0.73836000  0.80015000  0.84040000  1.0 -0.3894071579
N  N9  1  0.80015000  0.73836000  0.84040000  1.0 -0.3894071579
N  N10  1  0.19985000  0.26164000  0.84040000  1.0 -0.3894071579
N  N11  1  0.73836000  0.19985000  0.84040000  1.0 -0.3894071579
N  N12  1  0.26164000  0.80015000  0.84040000  1.0 -0.3894071579
N  N13  1  0.80015000  0.26164000  0.15960000  1.0 -0.3894071579
N  N14  1  0.19985000  0.73836000  0.15960000  1.0 -0.3894071579
N  N15  1  0.73836000  0.80015000  0.15960000  1.0 -0.3894071579
N  N16  1  0.26164000  0.19985000  0.15960000  1.0 -0.3894071579
N  N17  1  0.13590000  0.45640000  0.33950000  1.0 -0.4115218223
N  N18  1  0.86410000  0.54360000  0.33950000  1.0 -0.4115218223
N  N19  1  0.45640000  0.86410000  0.33950000  1.0 -0.4115218223
N  N20  1  0.54360000  0.13590000  0.33950000  1.0 -0.4115218223
N  N21  1  0.13590000  0.54360000  0.66050000  1.0 -0.4115218223
N  N22  1  0.86410000  0.45640000  0.66050000  1.0 -0.4115218223
N  N23  1  0.45640000  0.13590000  0.66050000  1.0 -0.4115218223
N  N24  1  0.54360000  0.86410000  0.66050000  1.0 -0.4115218223
N  N25  1  0.86410000  0.54360000  0.66050000  1.0 -0.4115218223
N  N26  1  0.13590000  0.45640000  0.66050000  1.0 -0.4115218223
N  N27  1  0.54360000  0.13590000  0.66050000  1.0 -0.4115218223
N  N28  1  0.45640000  0.86410000  0.66050000  1.0 -0.4115218223
N  N29  1  0.86410000  0.45640000  0.33950000  1.0 -0.4115218223
N  N30  1  0.13590000  0.54360000  0.33950000  1.0 -0.4115218223
N  N31  1  0.54360000  0.86410000  0.33950000  1.0 -0.4115218223
N  N32  1  0.45640000  0.13590000  0.33950000  1.0 -0.4115218223
N  N33  1  0.04420000  0.31636000  0.34250000  1.0 -0.4395209368
N  N34  1  0.95580000  0.68364000  0.34250000  1.0 -0.4395209368
N  N35  1  0.31636000  0.95580000  0.34250000  1.0 -0.4395209368
N  N36  1  0.68364000  0.04420000  0.34250000  1.0 -0.4395209368
N  N37  1  0.04420000  0.68364000  0.65750000  1.0 -0.4395209368
N  N38  1  0.95580000  0.31636000  0.65750000  1.0 -0.4395209368
N  N39  1  0.31636000  0.04420000  0.65750000  1.0 -0.4395209368
N  N40  1  0.68364000  0.95580000  0.65750000  1.0 -0.4395209368
N  N41  1  0.95580000  0.68364000  0.65750000  1.0 -0.4395209368
N  N42  1  0.04420000  0.31636000  0.65750000  1.0 -0.4395209368
N  N43  1  0.68364000  0.04420000  0.65750000  1.0 -0.4395209368
N  N44  1  0.31636000  0.95580000  0.65750000  1.0 -0.4395209368
N  N45  1  0.95580000  0.31636000  0.34250000  1.0 -0.4395209368
N  N46  1  0.04420000  0.68364000  0.34250000  1.0 -0.4395209368
N  N47  1  0.68364000  0.95580000  0.34250000  1.0 -0.4395209368
N  N48  1  0.31636000  0.04420000  0.34250000  1.0 -0.4395209368
O  O1  1  0.31390000  0.31390000  0.50000000  1.0 -0.1497767693
O  O2  1  0.68610000  0.68610000  0.50000000  1.0 -0.1449697838
O  O3  1  0.31390000  0.68610000  0.50000000  1.0 -0.1497767693
O  O4  1  0.68610000  0.31390000  0.50000000  1.0 -0.1497767693
O  O5  1  0.30380000  0.32480000  0.36190000  1.0 0.1383702982
O  O6  1  0.69620000  0.67520000  0.36190000  1.0 0.1383702982
O  O7  1  0.32480000  0.69620000  0.36190000  1.0 0.1383702982
O  O8  1  0.67520000  0.30380000  0.36190000  1.0 0.1383702982
O  O9  1  0.30380000  0.67520000  0.63810000  1.0 0.1383702982
O  O10  1  0.69620000  0.32480000  0.63810000  1.0 0.1383702982
O  O11  1  0.32480000  0.30380000  0.63810000  1.0 0.1383702982
O  O12  1  0.67520000  0.69620000  0.63810000  1.0 0.1383702982
O  O13  1  0.69620000  0.67520000  0.63810000  1.0 0.1383702982
O  O14  1  0.30380000  0.32480000  0.63810000  1.0 0.1383702982
O  O15  1  0.67520000  0.30380000  0.63810000  1.0 0.1383702982
O  O16  1  0.32480000  0.69620000  0.63810000  1.0 0.1383702982
O  O17  1  0.69620000  0.32480000  0.36190000  1.0 0.1383702982
O  O18  1  0.30380000  0.67520000  0.36190000  1.0 0.1383702982
O  O19  1  0.67520000  0.69620000  0.36190000  1.0 0.1383702982
O  O20  1  0.32480000  0.30380000  0.36190000  1.0 0.1383702982
O  O21  1  0.21430000  0.29870000  0.50000000  1.0 -0.0267629236
O  O22  1  0.78570000  0.70130000  0.50000000  1.0 -0.0267629236
O  O23  1  0.29870000  0.78570000  0.50000000  1.0 -0.0186042898
O  O24  1  0.70130000  0.21430000  0.50000000  1.0 -0.0267629236
O  O25  1  0.21430000  0.70130000  0.50000000  1.0 -0.0186042898
O  O26  1  0.78570000  0.29870000  0.50000000  1.0 -0.0267629236
O  O27  1  0.29870000  0.21430000  0.50000000  1.0 -0.0267629236
O  O28  1  0.70130000  0.78570000  0.50000000  1.0 -0.0267629236
O  O29  1  0.21290000  0.24510000  0.50000000  1.0 0.0995084483
O  O30  1  0.78710000  0.75490000  0.50000000  1.0 0.0995084483
O  O31  1  0.24510000  0.78710000  0.50000000  1.0 0.0995084483
O  O32  1  0.75490000  0.21290000  0.50000000  1.0 0.0995084483
O  O33  1  0.21290000  0.75490000  0.50000000  1.0 0.0995084483
O  O34  1  0.78710000  0.24510000  0.50000000  1.0 0.0995084483
O  O35  1  0.24510000  0.21290000  0.50000000  1.0 0.0995084483
O  O36  1  0.75490000  0.78710000  0.50000000  1.0 0.0995084483
O  O37  1  0.16210000  0.31188000  0.16240000  1.0 -0.4395209368
O  O38  1  0.83790000  0.68812000  0.16240000  1.0 -0.4395209368
O  O39  1  0.31188000  0.83790000  0.16240000  1.0 -0.4395209368
O  O40  1  0.68812000  0.16210000  0.16240000  1.0 -0.4395209368
O  O41  1  0.16210000  0.68812000  0.83760000  1.0 -0.4395209368
O  O42  1  0.83790000  0.31188000  0.83760000  1.0 -0.4395209368
O  O43  1  0.31188000  0.16210000  0.83760000  1.0 -0.4395209368
O  O44  1  0.68812000  0.83790000  0.83760000  1.0 -0.4395209368
O  O45  1  0.83790000  0.68812000  0.83760000  1.0 -0.4395209368
O  O46  1  0.16210000  0.31188000  0.83760000  1.0 -0.4395209368
O  O47  1  0.68812000  0.16210000  0.83760000  1.0 -0.4395209368
O  O48  1  0.31188000  0.83790000  0.83760000  1.0 -0.4395209368
O  O49  1  0.83790000  0.31188000  0.16240000  1.0 -0.4395209368
O  O50  1  0.16210000  0.68812000  0.16240000  1.0 -0.4395209368
O  O51  1  0.68812000  0.83790000  0.16240000  1.0 -0.4395209368
O  O52  1  0.31188000  0.16210000  0.16240000  1.0 -0.4395209368
O  O53  1  0.19500000  0.33235000  0.31200000  1.0 -0.4280301607
O  O54  1  0.80500000  0.66765000  0.31200000  1.0 -0.4280301607
O  O55  1  0.33235000  0.80500000  0.31200000  1.0 -0.4280301607
O  O56  1  0.66765000  0.19500000  0.31200000  1.0 -0.4280301607
O  O57  1  0.19500000  0.66765000  0.68800000  1.0 -0.4280301607
O  O58  1  0.80500000  0.33235000  0.68800000  1.0 -0.4280301607
O  O59  1  0.33235000  0.19500000  0.68800000  1.0 -0.4280301607
O  O60  1  0.66765000  0.80500000  0.68800000  1.0 -0.4280301607
O  O61  1  0.80500000  0.66765000  0.68800000  1.0 -0.4280301607
O  O62  1  0.19500000  0.33235000  0.68800000  1.0 -0.4280301607
O  O63  1  0.66765000  0.19500000  0.68800000  1.0 -0.4280301607
O  O64  1  0.33235000  0.80500000  0.68800000  1.0 -0.4280301607
O  O65  1  0.80500000  0.33235000  0.31200000  1.0 -0.4280301607
O  O66  1  0.19500000  0.66765000  0.31200000  1.0 -0.4280301607
O  O67  1  0.66765000  0.80500000  0.31200000  1.0 -0.4280301607
O  O68  1  0.33235000  0.19500000  0.31200000  1.0 -0.4280301607
O  O69  1  0.23140000  0.28404000  0.30550000  1.0 -0.4455590323
O  O70  1  0.76860000  0.71596000  0.30550000  1.0 -0.4455590323
O  O71  1  0.28404000  0.76860000  0.30550000  1.0 -0.4455590323
O  O72  1  0.71596000  0.23140000  0.30550000  1.0 -0.4455590323
O  O73  1  0.23140000  0.71596000  0.69450000  1.0 -0.4455590323
O  O74  1  0.76860000  0.28404000  0.69450000  1.0 -0.4455590323
O  O75  1  0.28404000  0.23140000  0.69450000  1.0 -0.4455590323
O  O76  1  0.71596000  0.76860000  0.69450000  1.0 -0.4455590323
O  O77  1  0.76860000  0.71596000  0.69450000  1.0 -0.4455590323
O  O78  1  0.23140000  0.28404000  0.69450000  1.0 -0.4455590323
O  O79  1  0.71596000  0.23140000  0.69450000  1.0 -0.4455590323
O  O80  1  0.28404000  0.76860000  0.69450000  1.0 -0.4455590323
O  O81  1  0.76860000  0.28404000  0.30550000  1.0 -0.4455590323
O  O82  1  0.23140000  0.71596000  0.30550000  1.0 -0.4455590323
O  O83  1  0.71596000  0.76860000  0.30550000  1.0 -0.4455590323
O  O84  1  0.28404000  0.23140000  0.30550000  1.0 -0.4455590323
O  O85  1  0.13940000  0.39453000  0.33550000  1.0 -0.4455590323
O  O86  1  0.86060000  0.60547000  0.33550000  1.0 -0.4455590323
O  O87  1  0.39453000  0.86060000  0.33550000  1.0 -0.4455590323
O  O88  1  0.60547000  0.13940000  0.33550000  1.0 -0.4455590323
O  O89  1  0.13940000  0.60547000  0.66450000  1.0 -0.4455590323
O  O90  1  0.86060000  0.39453000  0.66450000  1.0 -0.4455590323
O  O91  1  0.39453000  0.13940000  0.66450000  1.0 -0.4455590323
O  O92  1  0.60547000  0.86060000  0.66450000  1.0 -0.4455590323
O  O93  1  0.86060000  0.60547000  0.66450000  1.0 -0.4455590323
O  O94  1  0.13940000  0.39453000  0.66450000  1.0 -0.4455590323
O  O95  1  0.60547000  0.13940000  0.66450000  1.0 -0.4455590323
O  O96  1  0.39453000  0.86060000  0.66450000  1.0 -0.4455590323
O  O97  1  0.86060000  0.39453000  0.33550000  1.0 -0.4455590323
O  O98  1  0.13940000  0.60547000  0.33550000  1.0 -0.4455590323
O  O99  1  0.60547000  0.86060000  0.33550000  1.0 -0.4455590323
O  O100  1  0.39453000  0.13940000  0.33550000  1.0 -0.4455590323
O  O101  1  0.17190000  0.39976000  0.17990000  1.0 -0.4280301607
O  O102  1  0.82810000  0.60024000  0.17990000  1.0 -0.4280301607
O  O103  1  0.39976000  0.82810000  0.17990000  1.0 -0.4280301607
O  O104  1  0.60024000  0.17190000  0.17990000  1.0 -0.4280301607
O  O105  1  0.17190000  0.60024000  0.82010000  1.0 -0.4280301607
O  O106  1  0.82810000  0.39976000  0.82010000  1.0 -0.4280301607
O  O107  1  0.39976000  0.17190000  0.82010000  1.0 -0.4280301607
O  O108  1  0.60024000  0.82810000  0.82010000  1.0 -0.4280301607
O  O109  1  0.82810000  0.60024000  0.82010000  1.0 -0.4280301607
O  O110  1  0.17190000  0.39976000  0.82010000  1.0 -0.4280301607
O  O111  1  0.60024000  0.17190000  0.82010000  1.0 -0.4280301607
O  O112  1  0.39976000  0.82810000  0.82010000  1.0 -0.4280301607
O  O113  1  0.82810000  0.39976000  0.17990000  1.0 -0.4280301607
O  O114  1  0.17190000  0.60024000  0.17990000  1.0 -0.4280301607
O  O115  1  0.60024000  0.82810000  0.17990000  1.0 -0.4280301607
O  O116  1  0.39976000  0.17190000  0.17990000  1.0 -0.4280301607
O  O117  1  0.17140000  0.46203000  0.19140000  1.0 -0.4395209368
O  O118  1  0.82860000  0.53797000  0.19140000  1.0 -0.4395209368
O  O119  1  0.46203000  0.82860000  0.19140000  1.0 -0.4395209368
O  O120  1  0.53797000  0.17140000  0.19140000  1.0 -0.4395209368
O  O121  1  0.17140000  0.53797000  0.80860000  1.0 -0.4395209368
O  O122  1  0.82860000  0.46203000  0.80860000  1.0 -0.4395209368
O  O123  1  0.46203000  0.17140000  0.80860000  1.0 -0.4395209368
O  O124  1  0.53797000  0.82860000  0.80860000  1.0 -0.4395209368
O  O125  1  0.82860000  0.53797000  0.80860000  1.0 -0.4395209368
O  O126  1  0.17140000  0.46203000  0.80860000  1.0 -0.4395209368
O  O127  1  0.53797000  0.17140000  0.80860000  1.0 -0.4395209368
O  O128  1  0.46203000  0.82860000  0.80860000  1.0 -0.4395209368
O  O129  1  0.82860000  0.46203000  0.19140000  1.0 -0.4395209368
O  O130  1  0.17140000  0.53797000  0.19140000  1.0 -0.4395209368
O  O131  1  0.53797000  0.82860000  0.19140000  1.0 -0.4395209368
O  O132  1  0.46203000  0.17140000  0.19140000  1.0 -0.4395209368
O  O133  1  0.09710000  0.36296000  0.18550000  1.0 -0.4727854394
O  O134  1  0.90290000  0.63704000  0.18550000  1.0 -0.4727854394
O  O135  1  0.36296000  0.90290000  0.18550000  1.0 -0.4727854394
O  O136  1  0.63704000  0.09710000  0.18550000  1.0 -0.4727854394
O  O137  1  0.09710000  0.63704000  0.81450000  1.0 -0.4727854394
O  O138  1  0.90290000  0.36296000  0.81450000  1.0 -0.4727854394
O  O139  1  0.36296000  0.09710000  0.81450000  1.0 -0.4727854394
O  O140  1  0.63704000  0.90290000  0.81450000  1.0 -0.4727854394
O  O141  1  0.90290000  0.63704000  0.81450000  1.0 -0.4727854394
O  O142  1  0.09710000  0.36296000  0.81450000  1.0 -0.4727854394
O  O143  1  0.63704000  0.09710000  0.81450000  1.0 -0.4727854394
O  O144  1  0.36296000  0.90290000  0.81450000  1.0 -0.4727854394
O  O145  1  0.90290000  0.36296000  0.18550000  1.0 -0.4727854394
O  O146  1  0.09710000  0.63704000  0.18550000  1.0 -0.4727854394
O  O147  1  0.63704000  0.90290000  0.18550000  1.0 -0.4727854394
O  O148  1  0.36296000  0.09710000  0.18550000  1.0 -0.4727854394
O  O149  1  0.10720000  0.31789000  0.32440000  1.0 -0.4280301607
O  O150  1  0.89280000  0.68211000  0.32440000  1.0 -0.4280301607
O  O151  1  0.31789000  0.89280000  0.32440000  1.0 -0.4280301607
O  O152  1  0.68211000  0.10720000  0.32440000  1.0 -0.4280301607
O  O153  1  0.10720000  0.68211000  0.67560000  1.0 -0.4280301607
O  O154  1  0.89280000  0.31789000  0.67560000  1.0 -0.4280301607
O  O155  1  0.31789000  0.10720000  0.67560000  1.0 -0.4280301607
O  O156  1  0.68211000  0.89280000  0.67560000  1.0 -0.4280301607
O  O157  1  0.89280000  0.68211000  0.67560000  1.0 -0.4280301607
O  O158  1  0.10720000  0.31789000  0.67560000  1.0 -0.4280301607
O  O159  1  0.68211000  0.10720000  0.67560000  1.0 -0.4280301607
O  O160  1  0.31789000  0.89280000  0.67560000  1.0 -0.4280301607
O  O161  1  0.89280000  0.31789000  0.32440000  1.0 -0.4280301607
O  O162  1  0.10720000  0.68211000  0.32440000  1.0 -0.4280301607
O  O163  1  0.68211000  0.89280000  0.32440000  1.0 -0.4280301607
O  O164  1  0.31789000  0.10720000  0.32440000  1.0 -0.4280301607
O  O165  1  0.03470000  0.35810000  0.20170000  1.0 -0.4395209368
O  O166  1  0.96530000  0.64190000  0.20170000  1.0 -0.4395209368
O  O167  1  0.35810000  0.96530000  0.20170000  1.0 -0.4395209368
O  O168  1  0.64190000  0.03470000  0.20170000  1.0 -0.4395209368
O  O169  1  0.03470000  0.64190000  0.79830000  1.0 -0.4395209368
O  O170  1  0.96530000  0.35810000  0.79830000  1.0 -0.4395209368
O  O171  1  0.35810000  0.03470000  0.79830000  1.0 -0.4395209368
O  O172  1  0.64190000  0.96530000  0.79830000  1.0 -0.4455590323
O  O173  1  0.96530000  0.64190000  0.79830000  1.0 -0.4455590323
O  O174  1  0.03470000  0.35810000  0.79830000  1.0 -0.4395209368
O  O175  1  0.64190000  0.03470000  0.79830000  1.0 -0.4395209368
O  O176  1  0.35810000  0.96530000  0.79830000  1.0 -0.4455590323
O  O177  1  0.96530000  0.35810000  0.20170000  1.0 -0.4395209368
O  O178  1  0.03470000  0.64190000  0.20170000  1.0 -0.4395209368
O  O179  1  0.64190000  0.96530000  0.20170000  1.0 -0.4455590323
O  O180  1  0.35810000  0.03470000  0.20170000  1.0 -0.4395209368
