# DDEC6 charges by PACMAN v1.1 (https://github.com/mtap-research/PACMAN-charge/)
data_IKETUN_ASR_pacman
_symmetry_space_group_name_H-M   'P 1'
_cell_length_a   18.63440000
_cell_length_b   18.63440000
_cell_length_c   18.63440000
_cell_angle_alpha   60.00000000
_cell_angle_beta   60.00000000
_cell_angle_gamma   60.00000000
_symmetry_Int_Tables_number   1
_chemical_formula_structural   Cu(C3O2)2
_chemical_formula_sum   'Cu12 C72 O48'
_cell_volume   4575.42291798
_cell_formula_units_Z   12
loop_
 _symmetry_equiv_pos_site_id
 _symmetry_equiv_pos_as_xyz
  1  'x, y, z'
loop_
 _atom_site_type_symbol
 _atom_site_label
 _atom_site_symmetry_multiplicity
 _atom_site_fract_x
 _atom_site_fract_y
 _atom_site_fract_z
 _atom_site_occupancy
 _atom_site_charge
Cu  Cu1  1  0.93001000  0.50000000  0.06999000  1.0 0.8923632251
Cu  Cu2  1  0.06999000  0.93001000  0.50000000  1.0 0.8923632251
Cu  Cu3  1  0.50000000  0.06999000  0.93001000  1.0 0.8994272795
Cu  Cu4  1  0.93001000  0.06999000  0.50000000  1.0 0.8994272795
Cu  Cu5  1  0.50000000  0.93001000  0.06999000  1.0 0.8994272795
Cu  Cu6  1  0.06999000  0.50000000  0.93001000  1.0 0.8994272795
Cu  Cu7  1  0.50000000  0.93001000  0.50000000  1.0 0.8923632251
Cu  Cu8  1  0.50000000  0.50000000  0.06999000  1.0 0.8923632251
Cu  Cu9  1  0.50000000  0.50000000  0.93001000  1.0 0.8994272795
Cu  Cu10  1  0.50000000  0.06999000  0.50000000  1.0 0.8994272795
Cu  Cu11  1  0.06999000  0.50000000  0.50000000  1.0 0.8923632251
Cu  Cu12  1  0.93001000  0.50000000  0.50000000  1.0 0.8923632251
C  C1  1  0.06770000  0.33770000  0.06770000  1.0 0.6325956779
C  C2  1  0.06770000  0.06770000  0.33770000  1.0 0.6325956779
C  C3  1  0.33770000  0.06770000  0.06770000  1.0 0.6325956779
C  C4  1  0.47310000  0.93230000  0.66230000  1.0 0.6325956779
C  C5  1  0.47310000  0.66230000  0.93230000  1.0 0.6325956779
C  C6  1  0.47310000  0.93230000  0.93230000  1.0 0.6325956779
C  C7  1  0.93230000  0.47310000  0.93230000  1.0 0.6325956779
C  C8  1  0.66230000  0.47310000  0.93230000  1.0 0.6325956779
C  C9  1  0.93230000  0.47310000  0.66230000  1.0 0.6325956779
C  C10  1  0.66230000  0.93230000  0.47310000  1.0 0.6325956779
C  C11  1  0.93230000  0.93230000  0.47310000  1.0 0.6325956779
C  C12  1  0.93230000  0.66230000  0.47310000  1.0 0.6325956779
C  C13  1  0.93230000  0.66230000  0.93230000  1.0 0.6325956779
C  C14  1  0.93230000  0.93230000  0.66230000  1.0 0.6325956779
C  C15  1  0.66230000  0.93230000  0.93230000  1.0 0.6325956779
C  C16  1  0.52690000  0.06770000  0.33770000  1.0 0.6325956779
C  C17  1  0.52690000  0.33770000  0.06770000  1.0 0.6325956779
C  C18  1  0.52690000  0.06770000  0.06770000  1.0 0.6325956779
C  C19  1  0.06770000  0.52690000  0.06770000  1.0 0.6325956779
C  C20  1  0.33770000  0.52690000  0.06770000  1.0 0.6325956779
C  C21  1  0.06770000  0.52690000  0.33770000  1.0 0.6325956779
C  C22  1  0.33770000  0.06770000  0.52690000  1.0 0.6325956779
C  C23  1  0.06770000  0.06770000  0.52690000  1.0 0.6325956779
C  C24  1  0.06770000  0.33770000  0.52690000  1.0 0.6325956779
C  C25  1  0.11190000  0.23990000  0.11190000  1.0 -0.0859014708
C  C26  1  0.11190000  0.11190000  0.23990000  1.0 -0.0859014708
C  C27  1  0.23990000  0.11190000  0.11190000  1.0 -0.0841024521
C  C28  1  0.46370000  0.88810000  0.76010000  1.0 -0.0859014708
C  C29  1  0.46370000  0.76010000  0.88810000  1.0 -0.0859014708
C  C30  1  0.46370000  0.88810000  0.88810000  1.0 -0.0859014708
C  C31  1  0.88810000  0.46370000  0.88810000  1.0 -0.0859014708
C  C32  1  0.76010000  0.46370000  0.88810000  1.0 -0.0859014708
C  C33  1  0.88810000  0.46370000  0.76010000  1.0 -0.0859014708
C  C34  1  0.76010000  0.88810000  0.46370000  1.0 -0.0859014708
C  C35  1  0.88810000  0.88810000  0.46370000  1.0 -0.0859014708
C  C36  1  0.88810000  0.76010000  0.46370000  1.0 -0.0859014708
C  C37  1  0.88810000  0.76010000  0.88810000  1.0 -0.0859014708
C  C38  1  0.88810000  0.88810000  0.76010000  1.0 -0.0859014708
C  C39  1  0.76010000  0.88810000  0.88810000  1.0 -0.0859014708
C  C40  1  0.53630000  0.11190000  0.23990000  1.0 -0.0841024521
C  C41  1  0.53630000  0.23990000  0.11190000  1.0 -0.0841024521
C  C42  1  0.53630000  0.11190000  0.11190000  1.0 -0.0841024521
C  C43  1  0.11190000  0.53630000  0.11190000  1.0 -0.0859014708
C  C44  1  0.23990000  0.53630000  0.11190000  1.0 -0.0859014708
C  C45  1  0.11190000  0.53630000  0.23990000  1.0 -0.0859014708
C  C46  1  0.23990000  0.11190000  0.53630000  1.0 -0.0859014708
C  C47  1  0.11190000  0.11190000  0.53630000  1.0 -0.0859014708
C  C48  1  0.11190000  0.23990000  0.53630000  1.0 -0.0859014708
C  C49  1  0.06700000  0.19880000  0.19880000  1.0 0.0893944726
C  C50  1  0.19880000  0.06700000  0.19880000  1.0 0.0893944726
C  C51  1  0.19880000  0.19880000  0.06700000  1.0 0.0893944726
C  C52  1  0.46460000  0.80120000  0.80120000  1.0 0.0893944726
C  C53  1  0.46460000  0.80120000  0.93300000  1.0 0.0893944726
C  C54  1  0.46460000  0.93300000  0.80120000  1.0 0.0893944726
C  C55  1  0.80120000  0.46460000  0.93300000  1.0 0.0893944726
C  C56  1  0.80120000  0.46460000  0.80120000  1.0 0.0893944726
C  C57  1  0.93300000  0.46460000  0.80120000  1.0 0.0893944726
C  C58  1  0.80120000  0.93300000  0.46460000  1.0 0.0893944726
C  C59  1  0.93300000  0.80120000  0.46460000  1.0 0.0893944726
C  C60  1  0.80120000  0.80120000  0.46460000  1.0 0.0893944726
C  C61  1  0.93300000  0.80120000  0.80120000  1.0 0.0893944726
C  C62  1  0.80120000  0.93300000  0.80120000  1.0 0.0893944726
C  C63  1  0.80120000  0.80120000  0.93300000  1.0 0.0893944726
C  C64  1  0.53540000  0.19880000  0.19880000  1.0 0.0893944726
C  C65  1  0.53540000  0.19880000  0.06700000  1.0 0.0893944726
C  C66  1  0.53540000  0.06700000  0.19880000  1.0 0.0893944726
C  C67  1  0.19880000  0.53540000  0.06700000  1.0 0.0893944726
C  C68  1  0.19880000  0.53540000  0.19880000  1.0 0.0893944726
C  C69  1  0.06700000  0.53540000  0.19880000  1.0 0.0893944726
C  C70  1  0.19880000  0.06700000  0.53540000  1.0 0.0893944726
C  C71  1  0.06700000  0.19880000  0.53540000  1.0 0.0893944726
C  C72  1  0.19880000  0.19880000  0.53540000  1.0 0.0893944726
O  O1  1  0.99120000  0.37560000  0.11140000  1.0 -0.5420306969
O  O2  1  0.11140000  0.99120000  0.37560000  1.0 -0.5420306969
O  O3  1  0.37560000  0.11140000  0.99120000  1.0 -0.5420306969
O  O4  1  0.99120000  0.11140000  0.37560000  1.0 -0.5420306969
O  O5  1  0.37560000  0.99120000  0.11140000  1.0 -0.5420306969
O  O6  1  0.11140000  0.37560000  0.99120000  1.0 -0.5420306969
O  O7  1  0.47820000  0.88860000  0.62440000  1.0 -0.5420306969
O  O8  1  0.47820000  0.62440000  0.00880000  1.0 -0.5420306969
O  O9  1  0.47820000  0.00880000  0.88860000  1.0 -0.5420306969
O  O10  1  0.47820000  0.62440000  0.88860000  1.0 -0.5420306969
O  O11  1  0.47820000  0.88860000  0.00880000  1.0 -0.5420306969
O  O12  1  0.47820000  0.00880000  0.62440000  1.0 -0.5453276786
O  O13  1  0.88860000  0.47820000  0.00880000  1.0 -0.5420306969
O  O14  1  0.62440000  0.47820000  0.88860000  1.0 -0.5420306969
O  O15  1  0.00880000  0.47820000  0.62440000  1.0 -0.5420306969
O  O16  1  0.62440000  0.47820000  0.00880000  1.0 -0.5420306969
O  O17  1  0.88860000  0.47820000  0.62440000  1.0 -0.5420306969
O  O18  1  0.00880000  0.47820000  0.88860000  1.0 -0.5420306969
O  O19  1  0.62440000  0.00880000  0.47820000  1.0 -0.5420306969
O  O20  1  0.00880000  0.88860000  0.47820000  1.0 -0.5420306969
O  O21  1  0.88860000  0.62440000  0.47820000  1.0 -0.5420306969
O  O22  1  0.88860000  0.00880000  0.47820000  1.0 -0.5420306969
O  O23  1  0.00880000  0.62440000  0.47820000  1.0 -0.5420306969
O  O24  1  0.62440000  0.88860000  0.47820000  1.0 -0.5420306969
O  O25  1  0.00880000  0.62440000  0.88860000  1.0 -0.5420306969
O  O26  1  0.88860000  0.00880000  0.62440000  1.0 -0.5420306969
O  O27  1  0.62440000  0.88860000  0.00880000  1.0 -0.5420306969
O  O28  1  0.00880000  0.88860000  0.62440000  1.0 -0.5420306969
O  O29  1  0.62440000  0.00880000  0.88860000  1.0 -0.5420306969
O  O30  1  0.88860000  0.62440000  0.00880000  1.0 -0.5420306969
O  O31  1  0.52180000  0.11140000  0.37560000  1.0 -0.5420306969
O  O32  1  0.52180000  0.37560000  0.99120000  1.0 -0.5420306969
O  O33  1  0.52180000  0.99120000  0.11140000  1.0 -0.5420306969
O  O34  1  0.52180000  0.37560000  0.11140000  1.0 -0.5420306969
O  O35  1  0.52180000  0.11140000  0.99120000  1.0 -0.5420306969
O  O36  1  0.52180000  0.99120000  0.37560000  1.0 -0.5420306969
O  O37  1  0.11140000  0.52180000  0.99120000  1.0 -0.5420306969
O  O38  1  0.37560000  0.52180000  0.11140000  1.0 -0.5453276786
O  O39  1  0.99120000  0.52180000  0.37560000  1.0 -0.5420306969
O  O40  1  0.37560000  0.52180000  0.99120000  1.0 -0.5420306969
O  O41  1  0.11140000  0.52180000  0.37560000  1.0 -0.5420306969
O  O42  1  0.99120000  0.52180000  0.11140000  1.0 -0.5420306969
O  O43  1  0.37560000  0.99120000  0.52180000  1.0 -0.5420306969
O  O44  1  0.99120000  0.11140000  0.52180000  1.0 -0.5420306969
O  O45  1  0.11140000  0.37560000  0.52180000  1.0 -0.5420306969
O  O46  1  0.11140000  0.99120000  0.52180000  1.0 -0.5420306969
O  O47  1  0.99120000  0.37560000  0.52180000  1.0 -0.5420306969
O  O48  1  0.37560000  0.11140000  0.52180000  1.0 -0.5420306969
