# DDEC6 charges by PACMAN v1.1 (https://github.com/mtap-research/PACMAN-charge/)
data_IKETOH_FSR_pacman
_symmetry_space_group_name_H-M   'P 1'
_cell_length_a   26.33800000
_cell_length_b   26.33800000
_cell_length_c   26.33800000
_cell_angle_alpha   90.00000000
_cell_angle_beta   90.00000000
_cell_angle_gamma   90.00000000
_symmetry_Int_Tables_number   1
_chemical_formula_structural   Cu12PW12(C9O13)8
_chemical_formula_sum   'Cu48 P4 W48 C288 O416'
_cell_volume   18270.41364647
_cell_formula_units_Z   4
loop_
 _symmetry_equiv_pos_site_id
 _symmetry_equiv_pos_as_xyz
  1  'x, y, z'
loop_
 _atom_site_type_symbol
 _atom_site_label
 _atom_site_symmetry_multiplicity
 _atom_site_fract_x
 _atom_site_fract_y
 _atom_site_fract_z
 _atom_site_occupancy
 _atom_site_charge
Cu  Cu1  1  0.71489000  0.00000000  0.21490000  1.0 0.9155983008
Cu  Cu2  1  0.78510000  0.71489000  0.00000000  1.0 0.9155983008
Cu  Cu3  1  0.00000000  0.78510000  0.28511000  1.0 0.9155983008
Cu  Cu4  1  0.71489000  0.78510000  0.00000000  1.0 0.9155983008
Cu  Cu5  1  0.00000000  0.71489000  0.21490000  1.0 0.9155983008
Cu  Cu6  1  0.78510000  0.00000000  0.28511000  1.0 0.9155983008
Cu  Cu7  1  0.28511000  0.00000000  0.21490000  1.0 0.9155983008
Cu  Cu8  1  0.21490000  0.71489000  0.00000000  1.0 0.9155983008
Cu  Cu9  1  0.28511000  0.78510000  0.00000000  1.0 0.9155983008
Cu  Cu10  1  0.21490000  0.00000000  0.28511000  1.0 0.9155983008
Cu  Cu11  1  0.78510000  0.28511000  0.00000000  1.0 0.9155983008
Cu  Cu12  1  0.00000000  0.21490000  0.28511000  1.0 0.9155983008
Cu  Cu13  1  0.71489000  0.21490000  0.00000000  1.0 0.9155983008
Cu  Cu14  1  0.00000000  0.28511000  0.21490000  1.0 0.9155983008
Cu  Cu15  1  0.71489000  0.00000000  0.78510000  1.0 0.9155983008
Cu  Cu16  1  0.00000000  0.78510000  0.71489000  1.0 0.9155983008
Cu  Cu17  1  0.00000000  0.71489000  0.78510000  1.0 0.9155983008
Cu  Cu18  1  0.78510000  0.00000000  0.71489000  1.0 0.9155983008
Cu  Cu19  1  0.71489000  0.50000000  0.71490000  1.0 0.9155983008
Cu  Cu20  1  0.78510000  0.21489000  0.50000000  1.0 0.9155983008
Cu  Cu21  1  0.00000000  0.28510000  0.78511000  1.0 0.9155983008
Cu  Cu22  1  0.71489000  0.28510000  0.50000000  1.0 0.9155983008
Cu  Cu23  1  0.00000000  0.21489000  0.71490000  1.0 0.9155983008
Cu  Cu24  1  0.78510000  0.50000000  0.78511000  1.0 0.9155983008
Cu  Cu25  1  0.28511000  0.50000000  0.71490000  1.0 0.9155983008
Cu  Cu26  1  0.21490000  0.21489000  0.50000000  1.0 0.9155983008
Cu  Cu27  1  0.28511000  0.28510000  0.50000000  1.0 0.9155983008
Cu  Cu28  1  0.21490000  0.50000000  0.78511000  1.0 0.9155983008
Cu  Cu29  1  0.78510000  0.78511000  0.50000000  1.0 0.9155983008
Cu  Cu30  1  0.71489000  0.71490000  0.50000000  1.0 0.9155983008
Cu  Cu31  1  0.71489000  0.50000000  0.28510000  1.0 0.9155983008
Cu  Cu32  1  0.78510000  0.50000000  0.21489000  1.0 0.9155983008
Cu  Cu33  1  0.21489000  0.00000000  0.71490000  1.0 0.9155983008
Cu  Cu34  1  0.28510000  0.71489000  0.50000000  1.0 0.9155983008
Cu  Cu35  1  0.50000000  0.78510000  0.78511000  1.0 0.9155983008
Cu  Cu36  1  0.21489000  0.78510000  0.50000000  1.0 0.9155983008
Cu  Cu37  1  0.50000000  0.71489000  0.71490000  1.0 0.9155983008
Cu  Cu38  1  0.28510000  0.00000000  0.78511000  1.0 0.9155983008
Cu  Cu39  1  0.50000000  0.21490000  0.78511000  1.0 0.9155983008
Cu  Cu40  1  0.50000000  0.28511000  0.71490000  1.0 0.9155983008
Cu  Cu41  1  0.50000000  0.78510000  0.21489000  1.0 0.9155983008
Cu  Cu42  1  0.50000000  0.71489000  0.28510000  1.0 0.9155983008
Cu  Cu43  1  0.21489000  0.50000000  0.21490000  1.0 0.9155983008
Cu  Cu44  1  0.28510000  0.21489000  0.00000000  1.0 0.9155983008
Cu  Cu45  1  0.50000000  0.28510000  0.28511000  1.0 0.9155983008
Cu  Cu46  1  0.21489000  0.28510000  0.00000000  1.0 0.9155983008
Cu  Cu47  1  0.50000000  0.21489000  0.21490000  1.0 0.9155983008
Cu  Cu48  1  0.28510000  0.50000000  0.28511000  1.0 0.9155983008
P  P1  1  0.00000000  0.00000000  0.00000000  1.0 0.8704428501
P  P2  1  0.00000000  0.50000000  0.50000000  1.0 0.8704428501
P  P3  1  0.50000000  0.00000000  0.50000000  1.0 0.8704428501
P  P4  1  0.50000000  0.50000000  0.00000000  1.0 0.8704428501
W  W1  1  0.90447000  0.00000000  0.09550000  1.0 2.3210512476
W  W2  1  0.90450000  0.90447000  0.00000000  1.0 2.3210512476
W  W3  1  0.00000000  0.90450000  0.09553000  1.0 2.3210512476
W  W4  1  0.09553000  0.00000000  0.09550000  1.0 2.3210512476
W  W5  1  0.09550000  0.90447000  0.00000000  1.0 2.3210512476
W  W6  1  0.90450000  0.09553000  0.00000000  1.0 2.3210512476
W  W7  1  0.00000000  0.09550000  0.09553000  1.0 2.3210512476
W  W8  1  0.90447000  0.00000000  0.90450000  1.0 2.3210512476
W  W9  1  0.00000000  0.90450000  0.90447000  1.0 2.3210512476
W  W10  1  0.90447000  0.50000000  0.59550000  1.0 2.3210512476
W  W11  1  0.90450000  0.40447000  0.50000000  1.0 2.3210512476
W  W12  1  0.00000000  0.40450000  0.59553000  1.0 2.3210512476
W  W13  1  0.09553000  0.50000000  0.59550000  1.0 2.3210512476
W  W14  1  0.09550000  0.40447000  0.50000000  1.0 2.3210512476
W  W15  1  0.90450000  0.59553000  0.50000000  1.0 2.3210512476
W  W16  1  0.00000000  0.59550000  0.59553000  1.0 2.3210512476
W  W17  1  0.90447000  0.50000000  0.40450000  1.0 2.3210512476
W  W18  1  0.00000000  0.40450000  0.40447000  1.0 2.3210512476
W  W19  1  0.40447000  0.00000000  0.59550000  1.0 2.3210512476
W  W20  1  0.40450000  0.90447000  0.50000000  1.0 2.3210512476
W  W21  1  0.50000000  0.90450000  0.59553000  1.0 2.3210512476
W  W22  1  0.59553000  0.00000000  0.59550000  1.0 2.3210512476
W  W23  1  0.59550000  0.90447000  0.50000000  1.0 2.3210512476
W  W24  1  0.40450000  0.09553000  0.50000000  1.0 2.3210512476
W  W25  1  0.50000000  0.09550000  0.59553000  1.0 2.3210512476
W  W26  1  0.40447000  0.00000000  0.40450000  1.0 2.3210512476
W  W27  1  0.50000000  0.90450000  0.40447000  1.0 2.3210512476
W  W28  1  0.40447000  0.50000000  0.09550000  1.0 2.3210512476
W  W29  1  0.40450000  0.40447000  0.00000000  1.0 2.3210512476
W  W30  1  0.50000000  0.40450000  0.09553000  1.0 2.3210512476
W  W31  1  0.59553000  0.50000000  0.09550000  1.0 2.3210512476
W  W32  1  0.59550000  0.40447000  0.00000000  1.0 2.3210512476
W  W33  1  0.40450000  0.59553000  0.00000000  1.0 2.3210512476
W  W34  1  0.50000000  0.59550000  0.09553000  1.0 2.3210512476
W  W35  1  0.40447000  0.50000000  0.90450000  1.0 2.3210512476
W  W36  1  0.50000000  0.40450000  0.90447000  1.0 2.3210512476
W  W37  1  0.09553000  0.00000000  0.90450000  1.0 2.3210512476
W  W38  1  0.09550000  0.09553000  0.00000000  1.0 2.3210512476
W  W39  1  0.00000000  0.09550000  0.90447000  1.0 2.3210512476
W  W40  1  0.09553000  0.50000000  0.40450000  1.0 2.3210512476
W  W41  1  0.09550000  0.59553000  0.50000000  1.0 2.3210512476
W  W42  1  0.00000000  0.59550000  0.40447000  1.0 2.3210512476
W  W43  1  0.59553000  0.00000000  0.40450000  1.0 2.3210512476
W  W44  1  0.59550000  0.09553000  0.50000000  1.0 2.3210512476
W  W45  1  0.50000000  0.09550000  0.40447000  1.0 2.3210512476
W  W46  1  0.59553000  0.50000000  0.90450000  1.0 2.3210512476
W  W47  1  0.59550000  0.59553000  0.00000000  1.0 2.3210512476
W  W48  1  0.50000000  0.59550000  0.90447000  1.0 2.3210512476
C  C1  1  0.79690000  0.93110000  0.20310000  1.0 0.6271564024
C  C2  1  0.79690000  0.79690000  0.06890000  1.0 0.6271564024
C  C3  1  0.93110000  0.79690000  0.20310000  1.0 0.6271564024
C  C4  1  0.20310000  0.93110000  0.20310000  1.0 0.6271564024
C  C5  1  0.20310000  0.79690000  0.06890000  1.0 0.6271564024
C  C6  1  0.06890000  0.79690000  0.20310000  1.0 0.6271564024
C  C7  1  0.79690000  0.06890000  0.20310000  1.0 0.6271564024
C  C8  1  0.79690000  0.20310000  0.06890000  1.0 0.6271564024
C  C9  1  0.93110000  0.20310000  0.20310000  1.0 0.6271564024
C  C10  1  0.79690000  0.93110000  0.79690000  1.0 0.6271564024
C  C11  1  0.79690000  0.79690000  0.93110000  1.0 0.6271564024
C  C12  1  0.93110000  0.79690000  0.79690000  1.0 0.6271564024
C  C13  1  0.79690000  0.43110000  0.70310000  1.0 0.6271564024
C  C14  1  0.79690000  0.29690000  0.56890000  1.0 0.6271564024
C  C15  1  0.93110000  0.29690000  0.70310000  1.0 0.6271564024
C  C16  1  0.20310000  0.43110000  0.70310000  1.0 0.6271564024
C  C17  1  0.20310000  0.29690000  0.56890000  1.0 0.6271564024
C  C18  1  0.06890000  0.29690000  0.70310000  1.0 0.6271564024
C  C19  1  0.79690000  0.56890000  0.70310000  1.0 0.6271564024
C  C20  1  0.79690000  0.70310000  0.56890000  1.0 0.6271564024
C  C21  1  0.93110000  0.70310000  0.70310000  1.0 0.6271564024
C  C22  1  0.79690000  0.43110000  0.29690000  1.0 0.6271564024
C  C23  1  0.79690000  0.29690000  0.43110000  1.0 0.6271564024
C  C24  1  0.93110000  0.29690000  0.29690000  1.0 0.6271564024
C  C25  1  0.29690000  0.93110000  0.70310000  1.0 0.6271564024
C  C26  1  0.29690000  0.79690000  0.56890000  1.0 0.6271564024
C  C27  1  0.43110000  0.79690000  0.70310000  1.0 0.6271564024
C  C28  1  0.70310000  0.93110000  0.70310000  1.0 0.6271564024
C  C29  1  0.70310000  0.79690000  0.56890000  1.0 0.6271564024
C  C30  1  0.56890000  0.79690000  0.70310000  1.0 0.6271564024
C  C31  1  0.29690000  0.06890000  0.70310000  1.0 0.6271564024
C  C32  1  0.29690000  0.20310000  0.56890000  1.0 0.6271564024
C  C33  1  0.43110000  0.20310000  0.70310000  1.0 0.6271564024
C  C34  1  0.29690000  0.93110000  0.29690000  1.0 0.6271564024
C  C35  1  0.29690000  0.79690000  0.43110000  1.0 0.6271564024
C  C36  1  0.43110000  0.79690000  0.29690000  1.0 0.6271564024
C  C37  1  0.29690000  0.43110000  0.20310000  1.0 0.6271564024
C  C38  1  0.29690000  0.29690000  0.06890000  1.0 0.6271564024
C  C39  1  0.43110000  0.29690000  0.20310000  1.0 0.6271564024
C  C40  1  0.70310000  0.43110000  0.20310000  1.0 0.6271564024
C  C41  1  0.70310000  0.29690000  0.06890000  1.0 0.6271564024
C  C42  1  0.56890000  0.29690000  0.20310000  1.0 0.6271564024
C  C43  1  0.29690000  0.56890000  0.20310000  1.0 0.6271564024
C  C44  1  0.29690000  0.70310000  0.06890000  1.0 0.6271564024
C  C45  1  0.43110000  0.70310000  0.20310000  1.0 0.6271564024
C  C46  1  0.29690000  0.43110000  0.79690000  1.0 0.6271564024
C  C47  1  0.29690000  0.29690000  0.93110000  1.0 0.6271564024
C  C48  1  0.43110000  0.29690000  0.79690000  1.0 0.6271564024
C  C49  1  0.20310000  0.06890000  0.79690000  1.0 0.6271564024
C  C50  1  0.20310000  0.20310000  0.93110000  1.0 0.6271564024
C  C51  1  0.06890000  0.20310000  0.79690000  1.0 0.6271564024
C  C52  1  0.79690000  0.06890000  0.79690000  1.0 0.6271564024
C  C53  1  0.79690000  0.20310000  0.93110000  1.0 0.6271564024
C  C54  1  0.93110000  0.20310000  0.79690000  1.0 0.6271564024
C  C55  1  0.20310000  0.93110000  0.79690000  1.0 0.6271564024
C  C56  1  0.20310000  0.79690000  0.93110000  1.0 0.6271564024
C  C57  1  0.06890000  0.79690000  0.79690000  1.0 0.6271564024
C  C58  1  0.20310000  0.06890000  0.20310000  1.0 0.6271564024
C  C59  1  0.20310000  0.20310000  0.06890000  1.0 0.6271564024
C  C60  1  0.06890000  0.20310000  0.20310000  1.0 0.6271564024
C  C61  1  0.20310000  0.56890000  0.29690000  1.0 0.6271564024
C  C62  1  0.20310000  0.70310000  0.43110000  1.0 0.6271564024
C  C63  1  0.06890000  0.70310000  0.29690000  1.0 0.6271564024
C  C64  1  0.79690000  0.56890000  0.29690000  1.0 0.6271564024
C  C65  1  0.79690000  0.70310000  0.43110000  1.0 0.6271564024
C  C66  1  0.93110000  0.70310000  0.29690000  1.0 0.6271564024
C  C67  1  0.20310000  0.43110000  0.29690000  1.0 0.6271564024
C  C68  1  0.20310000  0.29690000  0.43110000  1.0 0.6271564024
C  C69  1  0.06890000  0.29690000  0.29690000  1.0 0.6271564024
C  C70  1  0.20310000  0.56890000  0.70310000  1.0 0.6271564024
C  C71  1  0.20310000  0.70310000  0.56890000  1.0 0.6271564024
C  C72  1  0.06890000  0.70310000  0.70310000  1.0 0.6271564024
C  C73  1  0.70310000  0.06890000  0.29690000  1.0 0.6271564024
C  C74  1  0.70310000  0.20310000  0.43110000  1.0 0.6271564024
C  C75  1  0.56890000  0.20310000  0.29690000  1.0 0.6271564024
C  C76  1  0.29690000  0.06890000  0.29690000  1.0 0.6271564024
C  C77  1  0.29690000  0.20310000  0.43110000  1.0 0.6271564024
C  C78  1  0.43110000  0.20310000  0.29690000  1.0 0.6271564024
C  C79  1  0.70310000  0.93110000  0.29690000  1.0 0.6271564024
C  C80  1  0.70310000  0.79690000  0.43110000  1.0 0.6271564024
C  C81  1  0.56890000  0.79690000  0.29690000  1.0 0.6271564024
C  C82  1  0.70310000  0.06890000  0.70310000  1.0 0.6271564024
C  C83  1  0.70310000  0.20310000  0.56890000  1.0 0.6271564024
C  C84  1  0.56890000  0.20310000  0.70310000  1.0 0.6271564024
C  C85  1  0.70310000  0.56890000  0.79690000  1.0 0.6271564024
C  C86  1  0.70310000  0.70310000  0.93110000  1.0 0.6271564024
C  C87  1  0.56890000  0.70310000  0.79690000  1.0 0.6271564024
C  C88  1  0.29690000  0.56890000  0.79690000  1.0 0.6271564024
C  C89  1  0.29690000  0.70310000  0.93110000  1.0 0.6271564024
C  C90  1  0.43110000  0.70310000  0.79690000  1.0 0.6271564024
C  C91  1  0.70310000  0.43110000  0.79690000  1.0 0.6271564024
C  C92  1  0.70310000  0.29690000  0.93110000  1.0 0.6271564024
C  C93  1  0.56890000  0.29690000  0.79690000  1.0 0.6271564024
C  C94  1  0.70310000  0.56890000  0.20310000  1.0 0.6271564024
C  C95  1  0.70310000  0.70310000  0.06890000  1.0 0.6271564024
C  C96  1  0.56890000  0.70310000  0.20310000  1.0 0.6271564024
C  C97  1  0.82270000  0.88760000  0.17730000  1.0 -0.1142594938
C  C98  1  0.82270000  0.82270000  0.11240000  1.0 -0.1142594938
C  C99  1  0.88760000  0.82270000  0.17730000  1.0 -0.1142594938
C  C100  1  0.17730000  0.88760000  0.17730000  1.0 -0.1159926567
C  C101  1  0.17730000  0.82270000  0.11240000  1.0 -0.1142594938
C  C102  1  0.11240000  0.82270000  0.17730000  1.0 -0.1142594938
C  C103  1  0.82270000  0.11240000  0.17730000  1.0 -0.1142594938
C  C104  1  0.82270000  0.17730000  0.11240000  1.0 -0.1142594938
C  C105  1  0.88760000  0.17730000  0.17730000  1.0 -0.1159926567
C  C106  1  0.82270000  0.88760000  0.82270000  1.0 -0.1142594938
C  C107  1  0.82270000  0.82270000  0.88760000  1.0 -0.1142594938
C  C108  1  0.88760000  0.82270000  0.82270000  1.0 -0.1142594938
C  C109  1  0.82270000  0.38760000  0.67730000  1.0 -0.1142594938
C  C110  1  0.82270000  0.32270000  0.61240000  1.0 -0.1142594938
C  C111  1  0.88760000  0.32270000  0.67730000  1.0 -0.1142594938
C  C112  1  0.17730000  0.38760000  0.67730000  1.0 -0.1142594938
C  C113  1  0.17730000  0.32270000  0.61240000  1.0 -0.1159926567
C  C114  1  0.11240000  0.32270000  0.67730000  1.0 -0.1142594938
C  C115  1  0.82270000  0.61240000  0.67730000  1.0 -0.1142594938
C  C116  1  0.82270000  0.67730000  0.61240000  1.0 -0.1142594938
C  C117  1  0.88760000  0.67730000  0.67730000  1.0 -0.1142594938
C  C118  1  0.82270000  0.38760000  0.32270000  1.0 -0.1142594938
C  C119  1  0.82270000  0.32270000  0.38760000  1.0 -0.1142594938
C  C120  1  0.88760000  0.32270000  0.32270000  1.0 -0.1142594938
C  C121  1  0.32270000  0.88760000  0.67730000  1.0 -0.1142594938
C  C122  1  0.32270000  0.82270000  0.61240000  1.0 -0.1142594938
C  C123  1  0.38760000  0.82270000  0.67730000  1.0 -0.1142594938
C  C124  1  0.67730000  0.88760000  0.67730000  1.0 -0.1142594938
C  C125  1  0.67730000  0.82270000  0.61240000  1.0 -0.1142594938
C  C126  1  0.61240000  0.82270000  0.67730000  1.0 -0.1142594938
C  C127  1  0.32270000  0.11240000  0.67730000  1.0 -0.1142594938
C  C128  1  0.32270000  0.17730000  0.61240000  1.0 -0.1159926567
C  C129  1  0.38760000  0.17730000  0.67730000  1.0 -0.1142594938
C  C130  1  0.32270000  0.88760000  0.32270000  1.0 -0.1159926567
C  C131  1  0.32270000  0.82270000  0.38760000  1.0 -0.1142594938
C  C132  1  0.38760000  0.82270000  0.32270000  1.0 -0.1142594938
C  C133  1  0.32270000  0.38760000  0.17730000  1.0 -0.1159926567
C  C134  1  0.32270000  0.32270000  0.11240000  1.0 -0.1159926567
C  C135  1  0.38760000  0.32270000  0.17730000  1.0 -0.1159926567
C  C136  1  0.67730000  0.38760000  0.17730000  1.0 -0.1142594938
C  C137  1  0.67730000  0.32270000  0.11240000  1.0 -0.1142594938
C  C138  1  0.61240000  0.32270000  0.17730000  1.0 -0.1142594938
C  C139  1  0.32270000  0.61240000  0.17730000  1.0 -0.1142594938
C  C140  1  0.32270000  0.67730000  0.11240000  1.0 -0.1142594938
C  C141  1  0.38760000  0.67730000  0.17730000  1.0 -0.1142594938
C  C142  1  0.32270000  0.38760000  0.82270000  1.0 -0.1142594938
C  C143  1  0.32270000  0.32270000  0.88760000  1.0 -0.1159926567
C  C144  1  0.38760000  0.32270000  0.82270000  1.0 -0.1142594938
C  C145  1  0.17730000  0.11240000  0.82270000  1.0 -0.1159926567
C  C146  1  0.17730000  0.17730000  0.88760000  1.0 -0.1159926567
C  C147  1  0.11240000  0.17730000  0.82270000  1.0 -0.1159926567
C  C148  1  0.82270000  0.11240000  0.82270000  1.0 -0.1142594938
C  C149  1  0.82270000  0.17730000  0.88760000  1.0 -0.1142594938
C  C150  1  0.88760000  0.17730000  0.82270000  1.0 -0.1142594938
C  C151  1  0.17730000  0.88760000  0.82270000  1.0 -0.1159926567
C  C152  1  0.17730000  0.82270000  0.88760000  1.0 -0.1159926567
C  C153  1  0.11240000  0.82270000  0.82270000  1.0 -0.1142594938
C  C154  1  0.17730000  0.11240000  0.17730000  1.0 -0.1159926567
C  C155  1  0.17730000  0.17730000  0.11240000  1.0 -0.1159926567
C  C156  1  0.11240000  0.17730000  0.17730000  1.0 -0.1159926567
C  C157  1  0.17730000  0.61240000  0.32270000  1.0 -0.1159926567
C  C158  1  0.17730000  0.67730000  0.38760000  1.0 -0.1142594938
C  C159  1  0.11240000  0.67730000  0.32270000  1.0 -0.1142594938
C  C160  1  0.82270000  0.61240000  0.32270000  1.0 -0.1142594938
C  C161  1  0.82270000  0.67730000  0.38760000  1.0 -0.1142594938
C  C162  1  0.88760000  0.67730000  0.32270000  1.0 -0.1142594938
C  C163  1  0.17730000  0.38760000  0.32270000  1.0 -0.1159926567
C  C164  1  0.17730000  0.32270000  0.38760000  1.0 -0.1159926567
C  C165  1  0.11240000  0.32270000  0.32270000  1.0 -0.1159926567
C  C166  1  0.17730000  0.61240000  0.67730000  1.0 -0.1142594938
C  C167  1  0.17730000  0.67730000  0.61240000  1.0 -0.1142594938
C  C168  1  0.11240000  0.67730000  0.67730000  1.0 -0.1142594938
C  C169  1  0.67730000  0.11240000  0.32270000  1.0 -0.1142594938
C  C170  1  0.67730000  0.17730000  0.38760000  1.0 -0.1142594938
C  C171  1  0.61240000  0.17730000  0.32270000  1.0 -0.1142594938
C  C172  1  0.32270000  0.11240000  0.32270000  1.0 -0.1159926567
C  C173  1  0.32270000  0.17730000  0.38760000  1.0 -0.1159926567
C  C174  1  0.38760000  0.17730000  0.32270000  1.0 -0.1159926567
C  C175  1  0.67730000  0.88760000  0.32270000  1.0 -0.1142594938
C  C176  1  0.67730000  0.82270000  0.38760000  1.0 -0.1142594938
C  C177  1  0.61240000  0.82270000  0.32270000  1.0 -0.1142594938
C  C178  1  0.67730000  0.11240000  0.67730000  1.0 -0.1142594938
C  C179  1  0.67730000  0.17730000  0.61240000  1.0 -0.1142594938
C  C180  1  0.61240000  0.17730000  0.67730000  1.0 -0.1142594938
C  C181  1  0.67730000  0.61240000  0.82270000  1.0 -0.1142594938
C  C182  1  0.67730000  0.67730000  0.88760000  1.0 -0.1142594938
C  C183  1  0.61240000  0.67730000  0.82270000  1.0 -0.1142594938
C  C184  1  0.32270000  0.61240000  0.82270000  1.0 -0.1142594938
C  C185  1  0.32270000  0.67730000  0.88760000  1.0 -0.1142594938
C  C186  1  0.38760000  0.67730000  0.82270000  1.0 -0.1142594938
C  C187  1  0.67730000  0.38760000  0.82270000  1.0 -0.1142594938
C  C188  1  0.67730000  0.32270000  0.88760000  1.0 -0.1142594938
C  C189  1  0.61240000  0.32270000  0.82270000  1.0 -0.1142594938
C  C190  1  0.67730000  0.61240000  0.17730000  1.0 -0.1142594938
C  C191  1  0.67730000  0.67730000  0.11240000  1.0 -0.1142594938
C  C192  1  0.61240000  0.67730000  0.17730000  1.0 -0.1142594938
C  C193  1  0.80050000  0.86660000  0.13340000  1.0 0.1302592503
C  C194  1  0.86660000  0.80050000  0.13340000  1.0 0.1302592503
C  C195  1  0.86660000  0.86660000  0.19950000  1.0 0.1302592503
C  C196  1  0.19950000  0.86660000  0.13340000  1.0 0.1302592503
C  C197  1  0.13340000  0.80050000  0.13340000  1.0 0.1302592503
C  C198  1  0.13340000  0.86660000  0.19950000  1.0 0.1302592503
C  C199  1  0.80050000  0.13340000  0.13340000  1.0 0.1302592503
C  C200  1  0.86660000  0.19950000  0.13340000  1.0 0.1302592503
C  C201  1  0.86660000  0.13340000  0.19950000  1.0 0.1302592503
C  C202  1  0.80050000  0.86660000  0.86660000  1.0 0.1302592503
C  C203  1  0.86660000  0.80050000  0.86660000  1.0 0.1302592503
C  C204  1  0.86660000  0.86660000  0.80050000  1.0 0.1302592503
C  C205  1  0.80050000  0.36660000  0.63340000  1.0 0.1302592503
C  C206  1  0.86660000  0.30050000  0.63340000  1.0 0.1302592503
C  C207  1  0.86660000  0.36660000  0.69950000  1.0 0.1302592503
C  C208  1  0.19950000  0.36660000  0.63340000  1.0 0.1302592503
C  C209  1  0.13340000  0.30050000  0.63340000  1.0 0.1302592503
C  C210  1  0.13340000  0.36660000  0.69950000  1.0 0.1302592503
C  C211  1  0.80050000  0.63340000  0.63340000  1.0 0.1302592503
C  C212  1  0.86660000  0.69950000  0.63340000  1.0 0.1302592503
C  C213  1  0.86660000  0.63340000  0.69950000  1.0 0.1302592503
C  C214  1  0.80050000  0.36660000  0.36660000  1.0 0.1302592503
C  C215  1  0.86660000  0.30050000  0.36660000  1.0 0.1302592503
C  C216  1  0.86660000  0.36660000  0.30050000  1.0 0.1302592503
C  C217  1  0.30050000  0.86660000  0.63340000  1.0 0.1302592503
C  C218  1  0.36660000  0.80050000  0.63340000  1.0 0.1302592503
C  C219  1  0.36660000  0.86660000  0.69950000  1.0 0.1302592503
C  C220  1  0.69950000  0.86660000  0.63340000  1.0 0.1302592503
C  C221  1  0.63340000  0.80050000  0.63340000  1.0 0.1302592503
C  C222  1  0.63340000  0.86660000  0.69950000  1.0 0.1302592503
C  C223  1  0.30050000  0.13340000  0.63340000  1.0 0.1302592503
C  C224  1  0.36660000  0.19950000  0.63340000  1.0 0.1302592503
C  C225  1  0.36660000  0.13340000  0.69950000  1.0 0.1302592503
C  C226  1  0.30050000  0.86660000  0.36660000  1.0 0.1302592503
C  C227  1  0.36660000  0.80050000  0.36660000  1.0 0.1302592503
C  C228  1  0.36660000  0.86660000  0.30050000  1.0 0.1302592503
C  C229  1  0.30050000  0.36660000  0.13340000  1.0 0.1302592503
C  C230  1  0.36660000  0.30050000  0.13340000  1.0 0.1302592503
C  C231  1  0.36660000  0.36660000  0.19950000  1.0 0.1302592503
C  C232  1  0.69950000  0.36660000  0.13340000  1.0 0.1302592503
C  C233  1  0.63340000  0.30050000  0.13340000  1.0 0.1302592503
C  C234  1  0.63340000  0.36660000  0.19950000  1.0 0.1302592503
C  C235  1  0.30050000  0.63340000  0.13340000  1.0 0.1302592503
C  C236  1  0.36660000  0.69950000  0.13340000  1.0 0.1302592503
C  C237  1  0.36660000  0.63340000  0.19950000  1.0 0.1302592503
C  C238  1  0.30050000  0.36660000  0.86660000  1.0 0.1302592503
C  C239  1  0.36660000  0.30050000  0.86660000  1.0 0.1302592503
C  C240  1  0.36660000  0.36660000  0.80050000  1.0 0.1302592503
C  C241  1  0.19950000  0.13340000  0.86660000  1.0 0.1302592503
C  C242  1  0.13340000  0.19950000  0.86660000  1.0 0.1302592503
C  C243  1  0.13340000  0.13340000  0.80050000  1.0 0.1302592503
C  C244  1  0.80050000  0.13340000  0.86660000  1.0 0.1302592503
C  C245  1  0.86660000  0.19950000  0.86660000  1.0 0.1302592503
C  C246  1  0.86660000  0.13340000  0.80050000  1.0 0.1302592503
C  C247  1  0.19950000  0.86660000  0.86660000  1.0 0.1302592503
C  C248  1  0.13340000  0.80050000  0.86660000  1.0 0.1302592503
C  C249  1  0.13340000  0.86660000  0.80050000  1.0 0.1302592503
C  C250  1  0.19950000  0.13340000  0.13340000  1.0 0.1302592503
C  C251  1  0.13340000  0.19950000  0.13340000  1.0 0.1302592503
C  C252  1  0.13340000  0.13340000  0.19950000  1.0 0.1302592503
C  C253  1  0.19950000  0.63340000  0.36660000  1.0 0.1302592503
C  C254  1  0.13340000  0.69950000  0.36660000  1.0 0.1302592503
C  C255  1  0.13340000  0.63340000  0.30050000  1.0 0.1302592503
C  C256  1  0.80050000  0.63340000  0.36660000  1.0 0.1302592503
C  C257  1  0.86660000  0.69950000  0.36660000  1.0 0.1302592503
C  C258  1  0.86660000  0.63340000  0.30050000  1.0 0.1302592503
C  C259  1  0.19950000  0.36660000  0.36660000  1.0 0.1302592503
C  C260  1  0.13340000  0.30050000  0.36660000  1.0 0.1302592503
C  C261  1  0.13340000  0.36660000  0.30050000  1.0 0.1302592503
C  C262  1  0.19950000  0.63340000  0.63340000  1.0 0.1302592503
C  C263  1  0.13340000  0.69950000  0.63340000  1.0 0.1302592503
C  C264  1  0.13340000  0.63340000  0.69950000  1.0 0.1302592503
C  C265  1  0.69950000  0.13340000  0.36660000  1.0 0.1302592503
C  C266  1  0.63340000  0.19950000  0.36660000  1.0 0.1302592503
C  C267  1  0.63340000  0.13340000  0.30050000  1.0 0.1302592503
C  C268  1  0.30050000  0.13340000  0.36660000  1.0 0.1302592503
C  C269  1  0.36660000  0.19950000  0.36660000  1.0 0.1302592503
C  C270  1  0.36660000  0.13340000  0.30050000  1.0 0.1302592503
C  C271  1  0.69950000  0.86660000  0.36660000  1.0 0.1302592503
C  C272  1  0.63340000  0.80050000  0.36660000  1.0 0.1302592503
C  C273  1  0.63340000  0.86660000  0.30050000  1.0 0.1302592503
C  C274  1  0.69950000  0.13340000  0.63340000  1.0 0.1302592503
C  C275  1  0.63340000  0.19950000  0.63340000  1.0 0.1302592503
C  C276  1  0.63340000  0.13340000  0.69950000  1.0 0.1302592503
C  C277  1  0.69950000  0.63340000  0.86660000  1.0 0.1302592503
C  C278  1  0.63340000  0.69950000  0.86660000  1.0 0.1302592503
C  C279  1  0.63340000  0.63340000  0.80050000  1.0 0.1302592503
C  C280  1  0.30050000  0.63340000  0.86660000  1.0 0.1302592503
C  C281  1  0.36660000  0.69950000  0.86660000  1.0 0.1302592503
C  C282  1  0.36660000  0.63340000  0.80050000  1.0 0.1302592503
C  C283  1  0.69950000  0.36660000  0.86660000  1.0 0.1302592503
C  C284  1  0.63340000  0.30050000  0.86660000  1.0 0.1302592503
C  C285  1  0.63340000  0.36660000  0.80050000  1.0 0.1302592503
C  C286  1  0.69950000  0.63340000  0.13340000  1.0 0.1302592503
C  C287  1  0.63340000  0.69950000  0.13340000  1.0 0.1302592503
C  C288  1  0.63340000  0.63340000  0.19950000  1.0 0.1302592503
O  O1  1  0.75660000  0.94760000  0.18300000  1.0 -0.5327413553
O  O2  1  0.81700000  0.75660000  0.05240000  1.0 -0.5327413553
O  O3  1  0.94760000  0.81700000  0.24340000  1.0 -0.5327413553
O  O4  1  0.75660000  0.81700000  0.05240000  1.0 -0.5327413553
O  O5  1  0.94760000  0.75660000  0.18300000  1.0 -0.5327413553
O  O6  1  0.81700000  0.94760000  0.24340000  1.0 -0.5327413553
O  O7  1  0.24340000  0.94760000  0.18300000  1.0 -0.5327413553
O  O8  1  0.18300000  0.75660000  0.05240000  1.0 -0.5327413553
O  O9  1  0.05240000  0.81700000  0.24340000  1.0 -0.5327413553
O  O10  1  0.24340000  0.81700000  0.05240000  1.0 -0.5327413553
O  O11  1  0.05240000  0.75660000  0.18300000  1.0 -0.5327413553
O  O12  1  0.18300000  0.94760000  0.24340000  1.0 -0.5327413553
O  O13  1  0.75660000  0.05240000  0.18300000  1.0 -0.5327413553
O  O14  1  0.81700000  0.24340000  0.05240000  1.0 -0.5327413553
O  O15  1  0.94760000  0.18300000  0.24340000  1.0 -0.5327413553
O  O16  1  0.75660000  0.18300000  0.05240000  1.0 -0.5327413553
O  O17  1  0.94760000  0.24340000  0.18300000  1.0 -0.5327413553
O  O18  1  0.81700000  0.05240000  0.24340000  1.0 -0.5327413553
O  O19  1  0.75660000  0.94760000  0.81700000  1.0 -0.5327413553
O  O20  1  0.81700000  0.75660000  0.94760000  1.0 -0.5327413553
O  O21  1  0.94760000  0.81700000  0.75660000  1.0 -0.5327413553
O  O22  1  0.75660000  0.81700000  0.94760000  1.0 -0.5327413553
O  O23  1  0.94760000  0.75660000  0.81700000  1.0 -0.5327413553
O  O24  1  0.81700000  0.94760000  0.75660000  1.0 -0.5327413553
O  O25  1  0.75660000  0.44760000  0.68300000  1.0 -0.5327413553
O  O26  1  0.81700000  0.25660000  0.55240000  1.0 -0.5327413553
O  O27  1  0.94760000  0.31700000  0.74340000  1.0 -0.5327413553
O  O28  1  0.75660000  0.31700000  0.55240000  1.0 -0.5327413553
O  O29  1  0.94760000  0.25660000  0.68300000  1.0 -0.5327413553
O  O30  1  0.81700000  0.44760000  0.74340000  1.0 -0.5327413553
O  O31  1  0.24340000  0.44760000  0.68300000  1.0 -0.5327413553
O  O32  1  0.18300000  0.25660000  0.55240000  1.0 -0.5327413553
O  O33  1  0.05240000  0.31700000  0.74340000  1.0 -0.5327413553
O  O34  1  0.24340000  0.31700000  0.55240000  1.0 -0.5327413553
O  O35  1  0.05240000  0.25660000  0.68300000  1.0 -0.5327413553
O  O36  1  0.18300000  0.44760000  0.74340000  1.0 -0.5327413553
O  O37  1  0.75660000  0.55240000  0.68300000  1.0 -0.5327413553
O  O38  1  0.81700000  0.74340000  0.55240000  1.0 -0.5327413553
O  O39  1  0.94760000  0.68300000  0.74340000  1.0 -0.5327413553
O  O40  1  0.75660000  0.68300000  0.55240000  1.0 -0.5327413553
O  O41  1  0.94760000  0.74340000  0.68300000  1.0 -0.5327413553
O  O42  1  0.81700000  0.55240000  0.74340000  1.0 -0.5327413553
O  O43  1  0.75660000  0.44760000  0.31700000  1.0 -0.5327413553
O  O44  1  0.81700000  0.25660000  0.44760000  1.0 -0.5327413553
O  O45  1  0.94760000  0.31700000  0.25660000  1.0 -0.5327413553
O  O46  1  0.75660000  0.31700000  0.44760000  1.0 -0.5327413553
O  O47  1  0.94760000  0.25660000  0.31700000  1.0 -0.5327413553
O  O48  1  0.81700000  0.44760000  0.25660000  1.0 -0.5327413553
O  O49  1  0.25660000  0.94760000  0.68300000  1.0 -0.5327413553
O  O50  1  0.31700000  0.75660000  0.55240000  1.0 -0.5327413553
O  O51  1  0.44760000  0.81700000  0.74340000  1.0 -0.5327413553
O  O52  1  0.25660000  0.81700000  0.55240000  1.0 -0.5327413553
O  O53  1  0.44760000  0.75660000  0.68300000  1.0 -0.5327413553
O  O54  1  0.31700000  0.94760000  0.74340000  1.0 -0.5327413553
O  O55  1  0.74340000  0.94760000  0.68300000  1.0 -0.5327413553
O  O56  1  0.68300000  0.75660000  0.55240000  1.0 -0.5327413553
O  O57  1  0.55240000  0.81700000  0.74340000  1.0 -0.5327413553
O  O58  1  0.74340000  0.81700000  0.55240000  1.0 -0.5327413553
O  O59  1  0.55240000  0.75660000  0.68300000  1.0 -0.5327413553
O  O60  1  0.68300000  0.94760000  0.74340000  1.0 -0.5327413553
O  O61  1  0.25660000  0.05240000  0.68300000  1.0 -0.5327413553
O  O62  1  0.31700000  0.24340000  0.55240000  1.0 -0.5327413553
O  O63  1  0.44760000  0.18300000  0.74340000  1.0 -0.5327413553
O  O64  1  0.25660000  0.18300000  0.55240000  1.0 -0.5327413553
O  O65  1  0.44760000  0.24340000  0.68300000  1.0 -0.5327413553
O  O66  1  0.31700000  0.05240000  0.74340000  1.0 -0.5327413553
O  O67  1  0.25660000  0.94760000  0.31700000  1.0 -0.5327413553
O  O68  1  0.31700000  0.75660000  0.44760000  1.0 -0.5327413553
O  O69  1  0.44760000  0.81700000  0.25660000  1.0 -0.5327413553
O  O70  1  0.25660000  0.81700000  0.44760000  1.0 -0.5327413553
O  O71  1  0.44760000  0.75660000  0.31700000  1.0 -0.5327413553
O  O72  1  0.31700000  0.94760000  0.25660000  1.0 -0.5327413553
O  O73  1  0.25660000  0.44760000  0.18300000  1.0 -0.5327413553
O  O74  1  0.31700000  0.25660000  0.05240000  1.0 -0.5327413553
O  O75  1  0.44760000  0.31700000  0.24340000  1.0 -0.5327413553
O  O76  1  0.25660000  0.31700000  0.05240000  1.0 -0.5327413553
O  O77  1  0.44760000  0.25660000  0.18300000  1.0 -0.5327413553
O  O78  1  0.31700000  0.44760000  0.24340000  1.0 -0.5327413553
O  O79  1  0.74340000  0.44760000  0.18300000  1.0 -0.5327413553
O  O80  1  0.68300000  0.25660000  0.05240000  1.0 -0.5327413553
O  O81  1  0.55240000  0.31700000  0.24340000  1.0 -0.5327413553
O  O82  1  0.74340000  0.31700000  0.05240000  1.0 -0.5327413553
O  O83  1  0.55240000  0.25660000  0.18300000  1.0 -0.5327413553
O  O84  1  0.68300000  0.44760000  0.24340000  1.0 -0.5327413553
O  O85  1  0.25660000  0.55240000  0.18300000  1.0 -0.5327413553
O  O86  1  0.31700000  0.74340000  0.05240000  1.0 -0.5327413553
O  O87  1  0.44760000  0.68300000  0.24340000  1.0 -0.5327413553
O  O88  1  0.25660000  0.68300000  0.05240000  1.0 -0.5327413553
O  O89  1  0.44760000  0.74340000  0.18300000  1.0 -0.5327413553
O  O90  1  0.31700000  0.55240000  0.24340000  1.0 -0.5327413553
O  O91  1  0.25660000  0.44760000  0.81700000  1.0 -0.5327413553
O  O92  1  0.31700000  0.25660000  0.94760000  1.0 -0.5327413553
O  O93  1  0.44760000  0.31700000  0.75660000  1.0 -0.5327413553
O  O94  1  0.25660000  0.31700000  0.94760000  1.0 -0.5327413553
O  O95  1  0.44760000  0.25660000  0.81700000  1.0 -0.5327413553
O  O96  1  0.31700000  0.44760000  0.75660000  1.0 -0.5327413553
O  O97  1  0.24340000  0.05240000  0.81700000  1.0 -0.5327413553
O  O98  1  0.18300000  0.24340000  0.94760000  1.0 -0.5327413553
O  O99  1  0.05240000  0.18300000  0.75660000  1.0 -0.5327413553
O  O100  1  0.24340000  0.18300000  0.94760000  1.0 -0.5327413553
O  O101  1  0.05240000  0.24340000  0.81700000  1.0 -0.5327413553
O  O102  1  0.18300000  0.05240000  0.75660000  1.0 -0.5327413553
O  O103  1  0.75660000  0.05240000  0.81700000  1.0 -0.5327413553
O  O104  1  0.81700000  0.24340000  0.94760000  1.0 -0.5327413553
O  O105  1  0.94760000  0.18300000  0.75660000  1.0 -0.5327413553
O  O106  1  0.75660000  0.18300000  0.94760000  1.0 -0.5327413553
O  O107  1  0.94760000  0.24340000  0.81700000  1.0 -0.5327413553
O  O108  1  0.81700000  0.05240000  0.75660000  1.0 -0.5327413553
O  O109  1  0.24340000  0.94760000  0.81700000  1.0 -0.5327413553
O  O110  1  0.18300000  0.75660000  0.94760000  1.0 -0.5327413553
O  O111  1  0.05240000  0.81700000  0.75660000  1.0 -0.5327413553
O  O112  1  0.24340000  0.81700000  0.94760000  1.0 -0.5327413553
O  O113  1  0.05240000  0.75660000  0.81700000  1.0 -0.5327413553
O  O114  1  0.18300000  0.94760000  0.75660000  1.0 -0.5327413553
O  O115  1  0.24340000  0.05240000  0.18300000  1.0 -0.5327413553
O  O116  1  0.18300000  0.24340000  0.05240000  1.0 -0.5327413553
O  O117  1  0.05240000  0.18300000  0.24340000  1.0 -0.5327413553
O  O118  1  0.24340000  0.18300000  0.05240000  1.0 -0.5327413553
O  O119  1  0.05240000  0.24340000  0.18300000  1.0 -0.5327413553
O  O120  1  0.18300000  0.05240000  0.24340000  1.0 -0.5327413553
O  O121  1  0.24340000  0.55240000  0.31700000  1.0 -0.5327413553
O  O122  1  0.18300000  0.74340000  0.44760000  1.0 -0.5327413553
O  O123  1  0.05240000  0.68300000  0.25660000  1.0 -0.5327413553
O  O124  1  0.24340000  0.68300000  0.44760000  1.0 -0.5327413553
O  O125  1  0.05240000  0.74340000  0.31700000  1.0 -0.5327413553
O  O126  1  0.18300000  0.55240000  0.25660000  1.0 -0.5327413553
O  O127  1  0.75660000  0.55240000  0.31700000  1.0 -0.5327413553
O  O128  1  0.81700000  0.74340000  0.44760000  1.0 -0.5327413553
O  O129  1  0.94760000  0.68300000  0.25660000  1.0 -0.5327413553
O  O130  1  0.75660000  0.68300000  0.44760000  1.0 -0.5327413553
O  O131  1  0.94760000  0.74340000  0.31700000  1.0 -0.5327413553
O  O132  1  0.81700000  0.55240000  0.25660000  1.0 -0.5327413553
O  O133  1  0.24340000  0.44760000  0.31700000  1.0 -0.5327413553
O  O134  1  0.18300000  0.25660000  0.44760000  1.0 -0.5327413553
O  O135  1  0.05240000  0.31700000  0.25660000  1.0 -0.5327413553
O  O136  1  0.24340000  0.31700000  0.44760000  1.0 -0.5327413553
O  O137  1  0.05240000  0.25660000  0.31700000  1.0 -0.5327413553
O  O138  1  0.18300000  0.44760000  0.25660000  1.0 -0.5327413553
O  O139  1  0.24340000  0.55240000  0.68300000  1.0 -0.5327413553
O  O140  1  0.18300000  0.74340000  0.55240000  1.0 -0.5327413553
O  O141  1  0.05240000  0.68300000  0.74340000  1.0 -0.5327413553
O  O142  1  0.24340000  0.68300000  0.55240000  1.0 -0.5327413553
O  O143  1  0.05240000  0.74340000  0.68300000  1.0 -0.5327413553
O  O144  1  0.18300000  0.55240000  0.74340000  1.0 -0.5327413553
O  O145  1  0.74340000  0.05240000  0.31700000  1.0 -0.5327413553
O  O146  1  0.68300000  0.24340000  0.44760000  1.0 -0.5327413553
O  O147  1  0.55240000  0.18300000  0.25660000  1.0 -0.5327413553
O  O148  1  0.74340000  0.18300000  0.44760000  1.0 -0.5327413553
O  O149  1  0.55240000  0.24340000  0.31700000  1.0 -0.5327413553
O  O150  1  0.68300000  0.05240000  0.25660000  1.0 -0.5327413553
O  O151  1  0.25660000  0.05240000  0.31700000  1.0 -0.5327413553
O  O152  1  0.31700000  0.24340000  0.44760000  1.0 -0.5327413553
O  O153  1  0.44760000  0.18300000  0.25660000  1.0 -0.5327413553
O  O154  1  0.25660000  0.18300000  0.44760000  1.0 -0.5327413553
O  O155  1  0.44760000  0.24340000  0.31700000  1.0 -0.5327413553
O  O156  1  0.31700000  0.05240000  0.25660000  1.0 -0.5327413553
O  O157  1  0.74340000  0.94760000  0.31700000  1.0 -0.5327413553
O  O158  1  0.68300000  0.75660000  0.44760000  1.0 -0.5327413553
O  O159  1  0.55240000  0.81700000  0.25660000  1.0 -0.5327413553
O  O160  1  0.74340000  0.81700000  0.44760000  1.0 -0.5327413553
O  O161  1  0.55240000  0.75660000  0.31700000  1.0 -0.5327413553
O  O162  1  0.68300000  0.94760000  0.25660000  1.0 -0.5327413553
O  O163  1  0.74340000  0.05240000  0.68300000  1.0 -0.5327413553
O  O164  1  0.68300000  0.24340000  0.55240000  1.0 -0.5327413553
O  O165  1  0.55240000  0.18300000  0.74340000  1.0 -0.5327413553
O  O166  1  0.74340000  0.18300000  0.55240000  1.0 -0.5327413553
O  O167  1  0.55240000  0.24340000  0.68300000  1.0 -0.5327413553
O  O168  1  0.68300000  0.05240000  0.74340000  1.0 -0.5327413553
O  O169  1  0.74340000  0.55240000  0.81700000  1.0 -0.5327413553
O  O170  1  0.68300000  0.74340000  0.94760000  1.0 -0.5327413553
O  O171  1  0.55240000  0.68300000  0.75660000  1.0 -0.5327413553
O  O172  1  0.74340000  0.68300000  0.94760000  1.0 -0.5327413553
O  O173  1  0.55240000  0.74340000  0.81700000  1.0 -0.5327413553
O  O174  1  0.68300000  0.55240000  0.75660000  1.0 -0.5327413553
O  O175  1  0.25660000  0.55240000  0.81700000  1.0 -0.5327413553
O  O176  1  0.31700000  0.74340000  0.94760000  1.0 -0.5327413553
O  O177  1  0.44760000  0.68300000  0.75660000  1.0 -0.5327413553
O  O178  1  0.25660000  0.68300000  0.94760000  1.0 -0.5327413553
O  O179  1  0.44760000  0.74340000  0.81700000  1.0 -0.5327413553
O  O180  1  0.31700000  0.55240000  0.75660000  1.0 -0.5327413553
O  O181  1  0.74340000  0.44760000  0.81700000  1.0 -0.5327413553
O  O182  1  0.68300000  0.25660000  0.94760000  1.0 -0.5327413553
O  O183  1  0.55240000  0.31700000  0.75660000  1.0 -0.5327413553
O  O184  1  0.74340000  0.31700000  0.94760000  1.0 -0.5327413553
O  O185  1  0.55240000  0.25660000  0.81700000  1.0 -0.5327413553
O  O186  1  0.68300000  0.44760000  0.75660000  1.0 -0.5327413553
O  O187  1  0.74340000  0.55240000  0.18300000  1.0 -0.5327413553
O  O188  1  0.68300000  0.74340000  0.05240000  1.0 -0.5327413553
O  O189  1  0.55240000  0.68300000  0.24340000  1.0 -0.5327413553
O  O190  1  0.74340000  0.68300000  0.05240000  1.0 -0.5327413553
O  O191  1  0.55240000  0.74340000  0.18300000  1.0 -0.5327413553
O  O192  1  0.68300000  0.55240000  0.24340000  1.0 -0.5327413553
O  O193  1  0.65560000  0.00000000  0.15560000  1.0 0.0305943524
O  O194  1  0.84440000  0.65560000  0.00000000  1.0 0.0305943524
O  O195  1  0.00000000  0.84440000  0.34440000  1.0 0.0249854955
O  O196  1  0.65560000  0.84440000  0.00000000  1.0 0.0305943524
O  O197  1  0.00000000  0.65560000  0.15560000  1.0 0.0305943524
O  O198  1  0.84440000  0.00000000  0.34440000  1.0 0.0305943524
O  O199  1  0.34440000  0.00000000  0.15560000  1.0 0.0305943524
O  O200  1  0.15560000  0.65560000  0.00000000  1.0 0.0305943524
O  O201  1  0.34440000  0.84440000  0.00000000  1.0 0.0305943524
O  O202  1  0.15560000  0.00000000  0.34440000  1.0 0.0305943524
O  O203  1  0.84440000  0.34440000  0.00000000  1.0 0.0305943524
O  O204  1  0.00000000  0.15560000  0.34440000  1.0 0.0305943524
O  O205  1  0.65560000  0.15560000  0.00000000  1.0 0.0305943524
O  O206  1  0.00000000  0.34440000  0.15560000  1.0 0.0305943524
O  O207  1  0.65560000  0.00000000  0.84440000  1.0 0.0305943524
O  O208  1  0.00000000  0.84440000  0.65560000  1.0 0.0305943524
O  O209  1  0.00000000  0.65560000  0.84440000  1.0 0.0305943524
O  O210  1  0.84440000  0.00000000  0.65560000  1.0 0.0305943524
O  O211  1  0.65560000  0.50000000  0.65560000  1.0 0.0351135111
O  O212  1  0.84440000  0.15560000  0.50000000  1.0 0.0305943524
O  O213  1  0.00000000  0.34440000  0.84440000  1.0 0.0305943524
O  O214  1  0.65560000  0.34440000  0.50000000  1.0 0.0351135111
O  O215  1  0.00000000  0.15560000  0.65560000  1.0 0.0305943524
O  O216  1  0.84440000  0.50000000  0.84440000  1.0 0.0305943524
O  O217  1  0.34440000  0.50000000  0.65560000  1.0 0.0351135111
O  O218  1  0.15560000  0.15560000  0.50000000  1.0 0.0305943524
O  O219  1  0.34440000  0.34440000  0.50000000  1.0 0.0305943524
O  O220  1  0.15560000  0.50000000  0.84440000  1.0 0.0305943524
O  O221  1  0.84440000  0.84440000  0.50000000  1.0 0.0305943524
O  O222  1  0.65560000  0.65560000  0.50000000  1.0 0.0351135111
O  O223  1  0.65560000  0.50000000  0.34440000  1.0 0.0305943524
O  O224  1  0.84440000  0.50000000  0.15560000  1.0 0.0305943524
O  O225  1  0.15560000  0.00000000  0.65560000  1.0 0.0351135111
O  O226  1  0.34440000  0.65560000  0.50000000  1.0 0.0305943524
O  O227  1  0.50000000  0.84440000  0.84440000  1.0 0.0305943524
O  O228  1  0.15560000  0.84440000  0.50000000  1.0 0.0305943524
O  O229  1  0.50000000  0.65560000  0.65560000  1.0 0.0351135111
O  O230  1  0.34440000  0.00000000  0.84440000  1.0 0.0305943524
O  O231  1  0.50000000  0.15560000  0.84440000  1.0 0.0305943524
O  O232  1  0.50000000  0.34440000  0.65560000  1.0 0.0351135111
O  O233  1  0.50000000  0.84440000  0.15560000  1.0 0.0305943524
O  O234  1  0.50000000  0.65560000  0.34440000  1.0 0.0305943524
O  O235  1  0.15560000  0.50000000  0.15560000  1.0 0.0305943524
O  O236  1  0.34440000  0.15560000  0.00000000  1.0 0.0305943524
O  O237  1  0.50000000  0.34440000  0.34440000  1.0 0.0305943524
O  O238  1  0.15560000  0.34440000  0.00000000  1.0 0.0305943524
O  O239  1  0.50000000  0.15560000  0.15560000  1.0 0.0305943524
O  O240  1  0.34440000  0.50000000  0.34440000  1.0 0.0305943524
O  O241  1  0.86000000  0.00000000  0.14000000  1.0 -0.5887872736
O  O242  1  0.86000000  0.86000000  0.00000000  1.0 -0.5887872736
O  O243  1  0.00000000  0.86000000  0.14000000  1.0 -0.5887872736
O  O244  1  0.14000000  0.00000000  0.14000000  1.0 -0.5887872736
O  O245  1  0.14000000  0.86000000  0.00000000  1.0 -0.5887872736
O  O246  1  0.86000000  0.14000000  0.00000000  1.0 -0.5887872736
O  O247  1  0.00000000  0.14000000  0.14000000  1.0 -0.5887872736
O  O248  1  0.86000000  0.00000000  0.86000000  1.0 -0.5887872736
O  O249  1  0.00000000  0.86000000  0.86000000  1.0 -0.5887872736
O  O250  1  0.86000000  0.50000000  0.64000000  1.0 -0.5887872736
O  O251  1  0.86000000  0.36000000  0.50000000  1.0 -0.5887872736
O  O252  1  0.00000000  0.36000000  0.64000000  1.0 -0.5887872736
O  O253  1  0.14000000  0.50000000  0.64000000  1.0 -0.5887872736
O  O254  1  0.14000000  0.36000000  0.50000000  1.0 -0.5887872736
O  O255  1  0.86000000  0.64000000  0.50000000  1.0 -0.5887872736
O  O256  1  0.00000000  0.64000000  0.64000000  1.0 -0.5887872736
O  O257  1  0.86000000  0.50000000  0.36000000  1.0 -0.5887872736
O  O258  1  0.00000000  0.36000000  0.36000000  1.0 -0.5887872736
O  O259  1  0.36000000  0.00000000  0.64000000  1.0 -0.5887872736
O  O260  1  0.36000000  0.86000000  0.50000000  1.0 -0.5887872736
O  O261  1  0.50000000  0.86000000  0.64000000  1.0 -0.5887872736
O  O262  1  0.64000000  0.00000000  0.64000000  1.0 -0.5887872736
O  O263  1  0.64000000  0.86000000  0.50000000  1.0 -0.5887872736
O  O264  1  0.36000000  0.14000000  0.50000000  1.0 -0.5887872736
O  O265  1  0.50000000  0.14000000  0.64000000  1.0 -0.5887872736
O  O266  1  0.36000000  0.00000000  0.36000000  1.0 -0.5887872736
O  O267  1  0.50000000  0.86000000  0.36000000  1.0 -0.5887872736
O  O268  1  0.36000000  0.50000000  0.14000000  1.0 -0.5887872736
O  O269  1  0.36000000  0.36000000  0.00000000  1.0 -0.5887872736
O  O270  1  0.50000000  0.36000000  0.14000000  1.0 -0.5887872736
O  O271  1  0.64000000  0.50000000  0.14000000  1.0 -0.5887872736
O  O272  1  0.64000000  0.36000000  0.00000000  1.0 -0.5887872736
O  O273  1  0.36000000  0.64000000  0.00000000  1.0 -0.5887872736
O  O274  1  0.50000000  0.64000000  0.14000000  1.0 -0.5887872736
O  O275  1  0.36000000  0.50000000  0.86000000  1.0 -0.5887872736
O  O276  1  0.50000000  0.36000000  0.86000000  1.0 -0.5887872736
O  O277  1  0.14000000  0.00000000  0.86000000  1.0 -0.5887872736
O  O278  1  0.14000000  0.14000000  0.00000000  1.0 -0.5887872736
O  O279  1  0.00000000  0.14000000  0.86000000  1.0 -0.5887872736
O  O280  1  0.14000000  0.50000000  0.36000000  1.0 -0.5887872736
O  O281  1  0.14000000  0.64000000  0.50000000  1.0 -0.5887872736
O  O282  1  0.00000000  0.64000000  0.36000000  1.0 -0.5887872736
O  O283  1  0.64000000  0.00000000  0.36000000  1.0 -0.5887872736
O  O284  1  0.64000000  0.14000000  0.50000000  1.0 -0.5887872736
O  O285  1  0.50000000  0.14000000  0.36000000  1.0 -0.5887872736
O  O286  1  0.64000000  0.50000000  0.86000000  1.0 -0.5887872736
O  O287  1  0.64000000  0.64000000  0.00000000  1.0 -0.5887872736
O  O288  1  0.50000000  0.64000000  0.86000000  1.0 -0.5887872736
O  O289  1  0.88080000  0.95010000  0.04990000  1.0 -0.8379283894
O  O290  1  0.95010000  0.88080000  0.04990000  1.0 -0.8379283894
O  O291  1  0.95010000  0.95010000  0.11920000  1.0 -0.8379283894
O  O292  1  0.11920000  0.95010000  0.04990000  1.0 -0.8379283894
O  O293  1  0.04990000  0.88080000  0.04990000  1.0 -0.8379283894
O  O294  1  0.04990000  0.95010000  0.11920000  1.0 -0.8379283894
O  O295  1  0.88080000  0.04990000  0.04990000  1.0 -0.8379283894
O  O296  1  0.95010000  0.11920000  0.04990000  1.0 -0.8379283894
O  O297  1  0.95010000  0.04990000  0.11920000  1.0 -0.8379283894
O  O298  1  0.88080000  0.95010000  0.95010000  1.0 -0.8379283894
O  O299  1  0.95010000  0.88080000  0.95010000  1.0 -0.8379283894
O  O300  1  0.95010000  0.95010000  0.88080000  1.0 -0.8379283894
O  O301  1  0.88080000  0.45010000  0.54990000  1.0 -0.8379283894
O  O302  1  0.95010000  0.38080000  0.54990000  1.0 -0.8379283894
O  O303  1  0.95010000  0.45010000  0.61920000  1.0 -0.8379283894
O  O304  1  0.11920000  0.45010000  0.54990000  1.0 -0.8379283894
O  O305  1  0.04990000  0.38080000  0.54990000  1.0 -0.8379283894
O  O306  1  0.04990000  0.45010000  0.61920000  1.0 -0.8379283894
O  O307  1  0.88080000  0.54990000  0.54990000  1.0 -0.8379283894
O  O308  1  0.95010000  0.61920000  0.54990000  1.0 -0.8379283894
O  O309  1  0.95010000  0.54990000  0.61920000  1.0 -0.8379283894
O  O310  1  0.88080000  0.45010000  0.45010000  1.0 -0.8379283894
O  O311  1  0.95010000  0.38080000  0.45010000  1.0 -0.8379283894
O  O312  1  0.95010000  0.45010000  0.38080000  1.0 -0.8379283894
O  O313  1  0.38080000  0.95010000  0.54990000  1.0 -0.8379283894
O  O314  1  0.45010000  0.88080000  0.54990000  1.0 -0.8379283894
O  O315  1  0.45010000  0.95010000  0.61920000  1.0 -0.8379283894
O  O316  1  0.61920000  0.95010000  0.54990000  1.0 -0.8379283894
O  O317  1  0.54990000  0.88080000  0.54990000  1.0 -0.8379283894
O  O318  1  0.54990000  0.95010000  0.61920000  1.0 -0.8379283894
O  O319  1  0.38080000  0.04990000  0.54990000  1.0 -0.8379283894
O  O320  1  0.45010000  0.11920000  0.54990000  1.0 -0.8379283894
O  O321  1  0.45010000  0.04990000  0.61920000  1.0 -0.8379283894
O  O322  1  0.38080000  0.95010000  0.45010000  1.0 -0.8379283894
O  O323  1  0.45010000  0.88080000  0.45010000  1.0 -0.8379283894
O  O324  1  0.45010000  0.95010000  0.38080000  1.0 -0.8379283894
O  O325  1  0.38080000  0.45010000  0.04990000  1.0 -0.8379283894
O  O326  1  0.45010000  0.38080000  0.04990000  1.0 -0.8379283894
O  O327  1  0.45010000  0.45010000  0.11920000  1.0 -0.8379283894
O  O328  1  0.61920000  0.45010000  0.04990000  1.0 -0.8379283894
O  O329  1  0.54990000  0.38080000  0.04990000  1.0 -0.8379283894
O  O330  1  0.54990000  0.45010000  0.11920000  1.0 -0.8379283894
O  O331  1  0.38080000  0.54990000  0.04990000  1.0 -0.8379283894
O  O332  1  0.45010000  0.61920000  0.04990000  1.0 -0.8379283894
O  O333  1  0.45010000  0.54990000  0.11920000  1.0 -0.8379283894
O  O334  1  0.38080000  0.45010000  0.95010000  1.0 -0.8379283894
O  O335  1  0.45010000  0.38080000  0.95010000  1.0 -0.8379283894
O  O336  1  0.45010000  0.45010000  0.88080000  1.0 -0.8379283894
O  O337  1  0.11920000  0.04990000  0.95010000  1.0 -0.8379283894
O  O338  1  0.04990000  0.11920000  0.95010000  1.0 -0.8379283894
O  O339  1  0.04990000  0.04990000  0.88080000  1.0 -0.8379283894
O  O340  1  0.88080000  0.04990000  0.95010000  1.0 -0.8379283894
O  O341  1  0.95010000  0.11920000  0.95010000  1.0 -0.8379283894
O  O342  1  0.95010000  0.04990000  0.88080000  1.0 -0.8379283894
O  O343  1  0.11920000  0.95010000  0.95010000  1.0 -0.8379283894
O  O344  1  0.04990000  0.88080000  0.95010000  1.0 -0.8379283894
O  O345  1  0.04990000  0.95010000  0.88080000  1.0 -0.8379283894
O  O346  1  0.11920000  0.04990000  0.04990000  1.0 -0.8379283894
O  O347  1  0.04990000  0.11920000  0.04990000  1.0 -0.8379283894
O  O348  1  0.04990000  0.04990000  0.11920000  1.0 -0.8379283894
O  O349  1  0.11920000  0.54990000  0.45010000  1.0 -0.8379283894
O  O350  1  0.04990000  0.61920000  0.45010000  1.0 -0.8379283894
O  O351  1  0.04990000  0.54990000  0.38080000  1.0 -0.8379283894
O  O352  1  0.88080000  0.54990000  0.45010000  1.0 -0.8379283894
O  O353  1  0.95010000  0.61920000  0.45010000  1.0 -0.8379283894
O  O354  1  0.95010000  0.54990000  0.38080000  1.0 -0.8379283894
O  O355  1  0.11920000  0.45010000  0.45010000  1.0 -0.8379283894
O  O356  1  0.04990000  0.38080000  0.45010000  1.0 -0.8379283894
O  O357  1  0.04990000  0.45010000  0.38080000  1.0 -0.8379283894
O  O358  1  0.11920000  0.54990000  0.54990000  1.0 -0.8379283894
O  O359  1  0.04990000  0.61920000  0.54990000  1.0 -0.8379283894
O  O360  1  0.04990000  0.54990000  0.61920000  1.0 -0.8379283894
O  O361  1  0.61920000  0.04990000  0.45010000  1.0 -0.8379283894
O  O362  1  0.54990000  0.11920000  0.45010000  1.0 -0.8379283894
O  O363  1  0.54990000  0.04990000  0.38080000  1.0 -0.8379283894
O  O364  1  0.38080000  0.04990000  0.45010000  1.0 -0.8379283894
O  O365  1  0.45010000  0.11920000  0.45010000  1.0 -0.8379283894
O  O366  1  0.45010000  0.04990000  0.38080000  1.0 -0.8379283894
O  O367  1  0.61920000  0.95010000  0.45010000  1.0 -0.8379283894
O  O368  1  0.54990000  0.88080000  0.45010000  1.0 -0.8379283894
O  O369  1  0.54990000  0.95010000  0.38080000  1.0 -0.8379283894
O  O370  1  0.61920000  0.04990000  0.54990000  1.0 -0.8379283894
O  O371  1  0.54990000  0.11920000  0.54990000  1.0 -0.8379283894
O  O372  1  0.54990000  0.04990000  0.61920000  1.0 -0.8379283894
O  O373  1  0.61920000  0.54990000  0.95010000  1.0 -0.8379283894
O  O374  1  0.54990000  0.61920000  0.95010000  1.0 -0.8379283894
O  O375  1  0.54990000  0.54990000  0.88080000  1.0 -0.8379283894
O  O376  1  0.38080000  0.54990000  0.95010000  1.0 -0.8379283894
O  O377  1  0.45010000  0.61920000  0.95010000  1.0 -0.8379283894
O  O378  1  0.45010000  0.54990000  0.88080000  1.0 -0.8379283894
O  O379  1  0.61920000  0.45010000  0.95010000  1.0 -0.8379283894
O  O380  1  0.54990000  0.38080000  0.95010000  1.0 -0.8379283894
O  O381  1  0.54990000  0.45010000  0.88080000  1.0 -0.8379283894
O  O382  1  0.61920000  0.54990000  0.04990000  1.0 -0.8379283894
O  O383  1  0.54990000  0.61920000  0.04990000  1.0 -0.8379283894
O  O384  1  0.54990000  0.54990000  0.11920000  1.0 -0.8379283894
O  O385  1  0.96580000  0.96580000  0.03420000  1.0 -0.345791074
O  O386  1  0.03420000  0.96580000  0.03420000  1.0 -0.345791074
O  O387  1  0.96580000  0.03420000  0.03420000  1.0 -0.3447516707
O  O388  1  0.96580000  0.96580000  0.96580000  1.0 -0.3447516707
O  O389  1  0.96580000  0.46580000  0.53420000  1.0 -0.345791074
O  O390  1  0.03420000  0.46580000  0.53420000  1.0 -0.3447516707
O  O391  1  0.96580000  0.53420000  0.53420000  1.0 -0.345791074
O  O392  1  0.96580000  0.46580000  0.46580000  1.0 -0.345791074
O  O393  1  0.46580000  0.96580000  0.53420000  1.0 -0.345791074
O  O394  1  0.53420000  0.96580000  0.53420000  1.0 -0.345791074
O  O395  1  0.46580000  0.03420000  0.53420000  1.0 -0.3447516707
O  O396  1  0.46580000  0.96580000  0.46580000  1.0 -0.345791074
O  O397  1  0.46580000  0.46580000  0.03420000  1.0 -0.3447516707
O  O398  1  0.53420000  0.46580000  0.03420000  1.0 -0.3447516707
O  O399  1  0.46580000  0.53420000  0.03420000  1.0 -0.3447516707
O  O400  1  0.46580000  0.46580000  0.96580000  1.0 -0.345791074
O  O401  1  0.03420000  0.03420000  0.96580000  1.0 -0.3447516707
O  O402  1  0.96580000  0.03420000  0.96580000  1.0 -0.3447516707
O  O403  1  0.03420000  0.96580000  0.96580000  1.0 -0.3447516707
O  O404  1  0.03420000  0.03420000  0.03420000  1.0 -0.3447516707
O  O405  1  0.03420000  0.53420000  0.46580000  1.0 -0.3447516707
O  O406  1  0.96580000  0.53420000  0.46580000  1.0 -0.345791074
O  O407  1  0.03420000  0.46580000  0.46580000  1.0 -0.3447516707
O  O408  1  0.03420000  0.53420000  0.53420000  1.0 -0.3447516707
O  O409  1  0.53420000  0.03420000  0.46580000  1.0 -0.3447516707
O  O410  1  0.46580000  0.03420000  0.46580000  1.0 -0.3447516707
O  O411  1  0.53420000  0.96580000  0.46580000  1.0 -0.345791074
O  O412  1  0.53420000  0.03420000  0.53420000  1.0 -0.3447516707
O  O413  1  0.53420000  0.53420000  0.96580000  1.0 -0.345791074
O  O414  1  0.46580000  0.53420000  0.96580000  1.0 -0.345791074
O  O415  1  0.53420000  0.46580000  0.96580000  1.0 -0.345791074
O  O416  1  0.53420000  0.53420000  0.03420000  1.0 -0.345791074
