# DDEC6 charges by PACMAN v1.1 (https://github.com/mtap-research/PACMAN-charge/)
data_IKILIA_FSR_pacman
_symmetry_space_group_name_H-M   'P 1'
_cell_length_a   9.70920000
_cell_length_b   10.47910000
_cell_length_c   12.43860000
_cell_angle_alpha   104.23200000
_cell_angle_beta   91.96000000
_cell_angle_gamma   92.57200000
_symmetry_Int_Tables_number   1
_chemical_formula_structural   CoMo4H7C9N7O15
_chemical_formula_sum   'Co2 Mo8 H14 C18 N14 O30'
_cell_volume   1224.13335219
_cell_formula_units_Z   2
loop_
 _symmetry_equiv_pos_site_id
 _symmetry_equiv_pos_as_xyz
  1  'x, y, z'
loop_
 _atom_site_type_symbol
 _atom_site_label
 _atom_site_symmetry_multiplicity
 _atom_site_fract_x
 _atom_site_fract_y
 _atom_site_fract_z
 _atom_site_occupancy
 _atom_site_charge
Co  Co1  1  0.00000000  0.50000000  0.50000000  1.0 1.0532451089
Co  Co2  1  0.00000000  0.00000000  0.00000000  1.0 1.0601158555
Mo  Mo1  1  0.31849000  0.87873000  0.33139000  1.0 2.1722299274
Mo  Mo2  1  0.93528000  0.88397000  0.26326000  1.0 2.1512035545
Mo  Mo3  1  0.68375000  0.87809000  0.42595000  1.0 2.1938907322
Mo  Mo4  1  0.07684000  0.85359000  0.50468000  1.0 2.1795307811
Mo  Mo5  1  0.68151000  0.12127000  0.66861000  1.0 2.1722299274
Mo  Mo6  1  0.06472000  0.11603000  0.73674000  1.0 2.1512035545
Mo  Mo7  1  0.31625000  0.12191000  0.57405000  1.0 2.1938907322
Mo  Mo8  1  0.92316000  0.14641000  0.49532000  1.0 2.1795307811
H  H1  1  0.07990000  0.72440000  0.06270000  1.0 0.1306422468
H  H2  1  0.45960000  0.29830000  0.89780000  1.0 0.1378688555
H  H3  1  0.12050000  0.79820000  0.77560000  1.0 0.1378688555
H  H4  1  0.40500000  0.27230000  0.07150000  1.0 0.1539321657
H  H5  1  0.08150000  0.53750000  0.25180000  1.0 0.1378688555
H  H6  1  0.35220000  0.45680000  0.82570000  1.0 0.156078678
H  H7  1  0.21860000  0.27580000  0.39330000  1.0 0.1378688555
H  H8  1  0.92010000  0.27560000  0.93730000  1.0 0.1306422468
H  H9  1  0.54040000  0.70170000  0.10220000  1.0 0.1378688555
H  H10  1  0.87950000  0.20180000  0.22440000  1.0 0.1378688555
H  H11  1  0.59500000  0.72770000  0.92850000  1.0 0.1539321657
H  H12  1  0.91850000  0.46250000  0.74820000  1.0 0.1378688555
H  H13  1  0.64780000  0.54320000  0.17430000  1.0 0.156078678
H  H14  1  0.78140000  0.72420000  0.60670000  1.0 0.1378688555
C  C1  1  0.10420000  0.71970000  0.99020000  1.0 0.1378688555
C  C2  1  0.39510000  0.35060000  0.93850000  1.0 0.0088702589
C  C3  1  0.12760000  0.75780000  0.83410000  1.0 0.1763586517
C  C4  1  0.36250000  0.33400000  0.04100000  1.0 -0.1927305543
C  C5  1  0.12930000  0.46860000  0.26740000  1.0 0.156078678
C  C6  1  0.33260000  0.44470000  0.89520000  1.0 -0.1927305543
C  C7  1  0.26350000  0.41310000  0.09750000  1.0 0.3042558349
C  C8  1  0.20540000  0.32610000  0.34220000  1.0 0.1902180578
C  C9  1  0.23880000  0.51970000  0.96210000  1.0 0.3042558349
C  C10  1  0.89580000  0.28030000  0.00980000  1.0 0.1378688555
C  C11  1  0.60490000  0.64940000  0.06150000  1.0 0.0088702589
C  C12  1  0.87240000  0.24220000  0.16590000  1.0 0.1763586517
C  C13  1  0.63750000  0.66600000  0.95900000  1.0 -0.1927305543
C  C14  1  0.87070000  0.53140000  0.73260000  1.0 0.156078678
C  C15  1  0.66740000  0.55530000  0.10480000  1.0 -0.1927305543
C  C16  1  0.73650000  0.58690000  0.90250000  1.0 0.3042558349
C  C17  1  0.79460000  0.67390000  0.65780000  1.0 0.1902180578
C  C18  1  0.76120000  0.48030000  0.03790000  1.0 0.3051200028
N  N1  1  0.11620000  0.42450000  0.35790000  1.0 -0.2904899899
N  N2  1  0.21990000  0.40080000  0.20220000  1.0 0.0701120686
N  N3  1  0.17530000  0.62500000  0.92880000  1.0 0.0701120686
N  N4  1  0.27140000  0.30690000  0.25010000  1.0 -0.2033431117
N  N5  1  0.07300000  0.80650000  0.93250000  1.0 -0.2975119833
N  N6  1  0.19210000  0.64800000  0.82670000  1.0 -0.1927305543
N  N7  1  0.20250000  0.50590000  0.05990000  1.0 -0.3680418465
N  N8  1  0.88380000  0.57550000  0.64210000  1.0 -0.2904899899
N  N9  1  0.78010000  0.59920000  0.79780000  1.0 0.0701120686
N  N10  1  0.82470000  0.37500000  0.07120000  1.0 0.0701120686
N  N11  1  0.72860000  0.69310000  0.74990000  1.0 -0.2033431117
N  N12  1  0.92700000  0.19350000  0.06750000  1.0 -0.2975119833
N  N13  1  0.80790000  0.35200000  0.17330000  1.0 -0.1927305543
N  N14  1  0.79750000  0.49410000  0.94010000  1.0 -0.3680418465
O  O1  1  0.04860000  0.68570000  0.46340000  1.0 -0.6421005313
O  O2  1  0.96540000  0.10720000  0.35690000  1.0 -0.6809678409
O  O3  1  0.32530000  0.91480000  0.20590000  1.0 -0.5424243991
O  O4  1  0.32800000  0.71250000  0.30410000  1.0 -0.6076170389
O  O5  1  0.67780000  0.71190000  0.39010000  1.0 -0.5424243991
O  O6  1  0.93180000  0.71740000  0.21500000  1.0 -0.6076170389
O  O7  1  0.31990000  0.08610000  0.42650000  1.0 -0.7599343244
O  O8  1  0.26460000  0.88680000  0.51240000  1.0 -0.8886208418
O  O9  1  0.97370000  0.94310000  0.14900000  1.0 -0.6809678409
O  O10  1  0.75000000  0.91390000  0.28240000  1.0 -0.8073978905
O  O11  1  0.51010000  0.91640000  0.38650000  1.0 -0.8073978905
O  O12  1  0.90240000  0.90780000  0.44320000  1.0 -1.0390622798
O  O13  1  0.11720000  0.89030000  0.34500000  1.0 -0.9670955125
O  O14  1  0.82060000  0.47340000  0.40630000  1.0 -0.4445483271
O  O15  1  0.20190000  0.05860000  0.05160000  1.0 -0.407771695
O  O16  1  0.95140000  0.31430000  0.53660000  1.0 -0.6421005313
O  O17  1  0.03460000  0.89280000  0.64310000  1.0 -0.6809678409
O  O18  1  0.67470000  0.08520000  0.79410000  1.0 -0.5424243991
O  O19  1  0.67200000  0.28750000  0.69590000  1.0 -0.6076170389
O  O20  1  0.32220000  0.28810000  0.60990000  1.0 -0.5424243991
O  O21  1  0.06820000  0.28260000  0.78500000  1.0 -0.6076170389
O  O22  1  0.68010000  0.91390000  0.57350000  1.0 -0.7599343244
O  O23  1  0.73540000  0.11320000  0.48760000  1.0 -0.8886208418
O  O24  1  0.02630000  0.05690000  0.85100000  1.0 -0.6809678409
O  O25  1  0.25000000  0.08610000  0.71760000  1.0 -0.8073978905
O  O26  1  0.48990000  0.08360000  0.61350000  1.0 -0.8073978905
O  O27  1  0.09760000  0.09220000  0.55680000  1.0 -1.0390622798
O  O28  1  0.88280000  0.10970000  0.65500000  1.0 -0.9670955125
O  O29  1  0.17940000  0.52660000  0.59370000  1.0 -0.4459482018
O  O30  1  0.79810000  0.94140000  0.94840000  1.0 -0.407771695
