# DDEC6 charges by PACMAN v1.1 (https://github.com/mtap-research/PACMAN-charge/)
data_IKOPIJ_ASR_pacman
_symmetry_space_group_name_H-M   'P 1'
_cell_length_a   15.15210000
_cell_length_b   15.15210000
_cell_length_c   14.00000000
_cell_angle_alpha   84.46520000
_cell_angle_beta   95.53480000
_cell_angle_gamma   128.66600000
_symmetry_Int_Tables_number   1
_chemical_formula_structural   Cu3H20(C8O5)4
_chemical_formula_sum   'Cu6 H40 C64 O40'
_cell_volume   2495.24572917
_cell_formula_units_Z   2
loop_
 _symmetry_equiv_pos_site_id
 _symmetry_equiv_pos_as_xyz
  1  'x, y, z'
loop_
 _atom_site_type_symbol
 _atom_site_label
 _atom_site_symmetry_multiplicity
 _atom_site_fract_x
 _atom_site_fract_y
 _atom_site_fract_z
 _atom_site_occupancy
 _atom_site_charge
Cu  Cu1  1  0.09865000  0.52055000  0.50321000  1.0 0.8524930744
Cu  Cu2  1  0.52055000  0.09865000  0.99679000  1.0 0.8524930744
Cu  Cu3  1  0.90135000  0.47945000  0.49679000  1.0 0.8524930744
Cu  Cu4  1  0.47945000  0.90135000  0.00321000  1.0 0.8524930744
Cu  Cu5  1  0.67684000  0.67684000  0.25000000  1.0 0.6828638284
Cu  Cu6  1  0.32316000  0.32316000  0.75000000  1.0 0.6706035106
H  H1  1  0.54050000  0.47570000  0.36350000  1.0 0.1891098661
H  H2  1  0.47570000  0.54050000  0.13650000  1.0 0.1891098661
H  H3  1  0.45950000  0.52430000  0.63650000  1.0 0.1891098661
H  H4  1  0.52430000  0.45950000  0.86350000  1.0 0.1891098661
H  H5  1  0.49870000  0.44370000  0.27000000  1.0 0.0819801135
H  H6  1  0.44370000  0.49870000  0.23000000  1.0 0.0819801135
H  H7  1  0.50130000  0.55630000  0.73000000  1.0 0.0819801135
H  H8  1  0.55630000  0.50130000  0.77000000  1.0 0.0819801135
H  H9  1  0.74600000  0.23500000  0.25560000  1.0 0.1380318893
H  H10  1  0.23500000  0.74600000  0.24440000  1.0 0.1380318893
H  H11  1  0.25400000  0.76500000  0.74440000  1.0 0.1380318893
H  H12  1  0.76500000  0.25400000  0.75560000  1.0 0.1380318893
H  H13  1  0.72770000  0.96170000  0.22470000  1.0 0.1380318893
H  H14  1  0.96170000  0.72770000  0.27530000  1.0 0.1380318893
H  H15  1  0.27230000  0.03830000  0.77530000  1.0 0.1380318893
H  H16  1  0.03830000  0.27230000  0.72470000  1.0 0.1380318893
H  H17  1  0.96100000  0.19640000  0.40590000  1.0 0.1214383809
H  H18  1  0.19640000  0.96100000  0.09410000  1.0 0.1280795319
H  H19  1  0.03900000  0.80360000  0.59410000  1.0 0.1280795319
H  H20  1  0.80360000  0.03900000  0.90590000  1.0 0.1214383809
H  H21  1  0.05730000  0.13750000  0.34680000  1.0 0.1214383809
H  H22  1  0.13750000  0.05730000  0.15320000  1.0 0.1214383809
H  H23  1  0.94270000  0.86250000  0.65320000  1.0 0.1214383809
H  H24  1  0.86250000  0.94270000  0.84680000  1.0 0.1214383809
H  H25  1  0.12980000  0.04100000  0.38120000  1.0 0.1280795319
H  H26  1  0.04100000  0.12980000  0.11880000  1.0 0.1280795319
H  H27  1  0.87020000  0.95900000  0.61880000  1.0 0.1280795319
H  H28  1  0.95900000  0.87020000  0.88120000  1.0 0.1280795319
H  H29  1  0.01690000  0.85930000  0.43500000  1.0 0.108501312
H  H30  1  0.85930000  0.01690000  0.06500000  1.0 0.108501312
H  H31  1  0.98310000  0.14070000  0.56500000  1.0 0.108501312
H  H32  1  0.14070000  0.98310000  0.93500000  1.0 0.108501312
H  H33  1  0.45450000  0.51730000  0.18110000  1.0 0.1214383809
H  H34  1  0.51730000  0.45450000  0.31890000  1.0 0.1214383809
H  H35  1  0.54550000  0.48270000  0.81890000  1.0 0.1214383809
H  H36  1  0.48270000  0.54550000  0.68110000  1.0 0.1214383809
H  H37  1  0.44710000  0.50070000  0.28010000  1.0 0.1280795319
H  H38  1  0.50070000  0.44710000  0.21990000  1.0 0.1280795319
H  H39  1  0.55290000  0.49930000  0.71990000  1.0 0.1280795319
H  H40  1  0.49930000  0.55290000  0.78010000  1.0 0.1280795319
C  C1  1  0.91000000  0.33380000  0.39460000  1.0 0.578054261
C  C2  1  0.33380000  0.91000000  0.10540000  1.0 0.578054261
C  C3  1  0.09000000  0.66620000  0.60540000  1.0 0.578054261
C  C4  1  0.66620000  0.09000000  0.89460000  1.0 0.578054261
C  C5  1  0.85860000  0.23060000  0.34070000  1.0 -0.0189061395
C  C6  1  0.23060000  0.85860000  0.15930000  1.0 -0.0189061395
C  C7  1  0.14140000  0.76940000  0.65930000  1.0 -0.0189061395
C  C8  1  0.76940000  0.14140000  0.84070000  1.0 -0.0189061395
C  C9  1  0.77220000  0.19380000  0.27140000  1.0 -0.1042353542
C  C10  1  0.19380000  0.77220000  0.22860000  1.0 -0.1042353542
C  C11  1  0.22780000  0.80620000  0.72860000  1.0 -0.1052962946
C  C12  1  0.80620000  0.22780000  0.77140000  1.0 -0.1052962946
C  C13  1  0.72350000  0.09210000  0.22430000  1.0 -0.0189061395
C  C14  1  0.09210000  0.72350000  0.27570000  1.0 -0.0189061395
C  C15  1  0.27650000  0.90790000  0.77570000  1.0 -0.0189061395
C  C16  1  0.90790000  0.27650000  0.72430000  1.0 -0.0189061395
C  C17  1  0.76180000  0.03000000  0.25300000  1.0 -0.1212337142
C  C18  1  0.03000000  0.76180000  0.24700000  1.0 -0.1212337142
C  C19  1  0.23820000  0.97000000  0.74700000  1.0 -0.1212337142
C  C20  1  0.97000000  0.23820000  0.75300000  1.0 -0.1212337142
C  C21  1  0.84970000  0.06650000  0.32280000  1.0 0.0701762854
C  C22  1  0.06650000  0.84970000  0.17720000  1.0 0.0701762854
C  C23  1  0.15030000  0.93350000  0.67720000  1.0 0.0701762854
C  C24  1  0.93350000  0.15030000  0.82280000  1.0 0.0701762854
C  C25  1  0.89900000  0.16800000  0.36290000  1.0 -0.1410411032
C  C26  1  0.16800000  0.89900000  0.13710000  1.0 -0.1410411032
C  C27  1  0.10100000  0.83200000  0.63710000  1.0 -0.1410411032
C  C28  1  0.83200000  0.10100000  0.86290000  1.0 -0.1410411032
C  C29  1  0.64010000  0.06050000  0.14310000  1.0 0.5715318589
C  C30  1  0.06050000  0.64010000  0.35690000  1.0 0.5715318589
C  C31  1  0.35990000  0.93950000  0.85690000  1.0 0.5715318589
C  C32  1  0.93950000  0.35990000  0.64310000  1.0 0.5715318589
C  C33  1  0.89180000  0.00120000  0.35190000  1.0 0.0435577931
C  C34  1  0.00120000  0.89180000  0.14810000  1.0 0.0435577931
C  C35  1  0.10820000  0.99880000  0.64810000  1.0 0.0435577931
C  C36  1  0.99880000  0.10820000  0.85190000  1.0 0.0435577931
C  C37  1  0.00830000  0.05950000  0.35880000  1.0 -0.1307748812
C  C38  1  0.05950000  0.00830000  0.14120000  1.0 -0.1307748812
C  C39  1  0.99170000  0.94050000  0.64120000  1.0 -0.1307748812
C  C40  1  0.94050000  0.99170000  0.85880000  1.0 -0.1307748812
C  C41  1  0.05250000  0.00230000  0.38350000  1.0 -0.0834931521
C  C42  1  0.00230000  0.05250000  0.11650000  1.0 -0.0834931521
C  C43  1  0.94750000  0.99770000  0.61650000  1.0 -0.0834931521
C  C44  1  0.99770000  0.94750000  0.88350000  1.0 -0.0834931521
C  C45  1  0.98550000  0.89390000  0.41010000  1.0 -0.1042353542
C  C46  1  0.89390000  0.98550000  0.08990000  1.0 -0.1042353542
C  C47  1  0.01450000  0.10610000  0.58990000  1.0 -0.1042353542
C  C48  1  0.10610000  0.01450000  0.91010000  1.0 -0.1042353542
C  C49  1  0.86770000  0.83030000  0.40100000  1.0 -0.0032409661
C  C50  1  0.83030000  0.86770000  0.09900000  1.0 -0.0032409661
C  C51  1  0.13230000  0.16970000  0.59900000  1.0 -0.0032409661
C  C52  1  0.16970000  0.13230000  0.90100000  1.0 -0.0032409661
C  C53  1  0.82230000  0.88670000  0.37410000  1.0 -0.074332531
C  C54  1  0.88670000  0.82230000  0.12590000  1.0 -0.074332531
C  C55  1  0.17770000  0.11330000  0.62590000  1.0 -0.074332531
C  C56  1  0.11330000  0.17770000  0.87410000  1.0 -0.074332531
C  C57  1  0.69950000  0.82470000  0.38160000  1.0 0.5285848198
C  C58  1  0.82470000  0.69950000  0.11840000  1.0 0.5285848198
C  C59  1  0.30050000  0.17530000  0.61840000  1.0 0.5285848198
C  C60  1  0.17530000  0.30050000  0.88160000  1.0 0.5285848198
C  C61  1  0.80000000  0.70800000  0.43100000  1.0 0.4996236531
C  C62  1  0.70800000  0.80000000  0.06900000  1.0 0.4996236531
C  C63  1  0.20000000  0.29200000  0.56900000  1.0 0.4996236531
C  C64  1  0.29200000  0.20000000  0.93100000  1.0 0.4996236531
O  O1  1  0.01534000  0.39346000  0.41610000  1.0 -0.5274968179
O  O2  1  0.39346000  0.01534000  0.08390000  1.0 -0.5274968179
O  O3  1  0.98466000  0.60654000  0.58390000  1.0 -0.5274968179
O  O4  1  0.60654000  0.98466000  0.91610000  1.0 -0.5274968179
O  O5  1  0.84633000  0.35647000  0.40980000  1.0 -0.5043962108
O  O6  1  0.35647000  0.84633000  0.09020000  1.0 -0.5043962108
O  O7  1  0.15367000  0.64353000  0.59020000  1.0 -0.5043962108
O  O8  1  0.64353000  0.15367000  0.90980000  1.0 -0.5043962108
O  O9  1  0.62533000  0.12827000  0.10700000  1.0 -0.5065197455
O  O10  1  0.12827000  0.62533000  0.39300000  1.0 -0.5065197455
O  O11  1  0.37467000  0.87173000  0.89300000  1.0 -0.5065197455
O  O12  1  0.87173000  0.37467000  0.60700000  1.0 -0.5065197455
O  O13  1  0.58851000  0.96069000  0.11320000  1.0 -0.5406128349
O  O14  1  0.96069000  0.58851000  0.38680000  1.0 -0.5406128349
O  O15  1  0.41149000  0.03931000  0.88680000  1.0 -0.5406128349
O  O16  1  0.03931000  0.41149000  0.61320000  1.0 -0.5406128349
O  O17  1  0.66110000  0.85070000  0.43640000  1.0 -0.3911246838
O  O18  1  0.85070000  0.66110000  0.06360000  1.0 -0.3911246838
O  O19  1  0.33890000  0.14930000  0.56360000  1.0 -0.3911246838
O  O20  1  0.14930000  0.33890000  0.93640000  1.0 -0.3911246838
O  O21  1  0.63080000  0.74520000  0.32180000  1.0 -0.5671271118
O  O22  1  0.74520000  0.63080000  0.17820000  1.0 -0.5671271118
O  O23  1  0.36920000  0.25480000  0.67820000  1.0 -0.5671271118
O  O24  1  0.25480000  0.36920000  0.82180000  1.0 -0.5671271118
O  O25  1  0.71650000  0.63750000  0.36750000  1.0 -0.5854387315
O  O26  1  0.63750000  0.71650000  0.13250000  1.0 -0.5854387315
O  O27  1  0.28350000  0.36250000  0.63250000  1.0 -0.584862891
O  O28  1  0.36250000  0.28350000  0.86750000  1.0 -0.584862891
O  O29  1  0.81620000  0.67360000  0.51010000  1.0 -0.4278166624
O  O30  1  0.67360000  0.81620000  0.98990000  1.0 -0.4278166624
O  O31  1  0.18380000  0.32640000  0.48990000  1.0 -0.4278166624
O  O32  1  0.32640000  0.18380000  0.01010000  1.0 -0.4278166624
O  O33  1  0.52020000  0.49260000  0.31100000  1.0 0.0435577931
O  O34  1  0.49260000  0.52020000  0.18900000  1.0 0.0435577931
O  O35  1  0.47980000  0.50740000  0.68900000  1.0 0.0435577931
O  O36  1  0.50740000  0.47980000  0.81100000  1.0 0.0435577931
O  O37  1  0.48330000  0.50910000  0.23300000  1.0 0.0479991218
O  O38  1  0.50910000  0.48330000  0.26700000  1.0 0.0435577931
O  O39  1  0.51670000  0.49090000  0.76700000  1.0 0.0479991218
O  O40  1  0.49090000  0.51670000  0.73300000  1.0 0.0435577931
