# DDEC6 charges by PACMAN v1.1 (https://github.com/mtap-research/PACMAN-charge/)
data_IKOSUW_FSR_pacman
_symmetry_space_group_name_H-M   'P 1'
_cell_length_a   10.81500000
_cell_length_b   16.41300000
_cell_length_c   22.78610000
_cell_angle_alpha   90.00000000
_cell_angle_beta   90.00000000
_cell_angle_gamma   90.00000000
_symmetry_Int_Tables_number   1
_chemical_formula_structural   CuH24C31(NO3)4
_chemical_formula_sum   'Cu4 H96 C124 N16 O48'
_cell_volume   4044.68302433
_cell_formula_units_Z   4
loop_
 _symmetry_equiv_pos_site_id
 _symmetry_equiv_pos_as_xyz
  1  'x, y, z'
loop_
 _atom_site_type_symbol
 _atom_site_label
 _atom_site_symmetry_multiplicity
 _atom_site_fract_x
 _atom_site_fract_y
 _atom_site_fract_z
 _atom_site_occupancy
 _atom_site_charge
Cu  Cu1  1  0.50000000  0.02424000  0.75000000  1.0 0.6073926774
Cu  Cu2  1  0.50000000  0.52424000  0.75000000  1.0 0.6073926774
Cu  Cu3  1  0.50000000  0.97576000  0.25000000  1.0 0.6073926774
Cu  Cu4  1  0.50000000  0.47576000  0.25000000  1.0 0.6073926774
H  H1  1  0.16410000  0.65820000  0.98350000  1.0 0.0792602887
H  H2  1  0.16410000  0.15820000  0.51650000  1.0 0.0792602887
H  H3  1  0.83590000  0.15820000  0.98350000  1.0 0.0792602887
H  H4  1  0.16410000  0.34180000  0.48350000  1.0 0.0792602887
H  H5  1  0.83590000  0.34180000  0.01650000  1.0 0.0792602887
H  H6  1  0.83590000  0.84180000  0.48350000  1.0 0.0792602887
H  H7  1  0.16410000  0.84180000  0.01650000  1.0 0.0792602887
H  H8  1  0.83590000  0.65820000  0.51650000  1.0 0.0792602887
H  H9  1  0.04790000  0.66230000  0.92970000  1.0 0.0792602887
H  H10  1  0.04790000  0.16230000  0.57030000  1.0 0.0792602887
H  H11  1  0.95210000  0.16230000  0.92970000  1.0 0.0792602887
H  H12  1  0.04790000  0.33770000  0.42970000  1.0 0.0792602887
H  H13  1  0.95210000  0.33770000  0.07030000  1.0 0.0792602887
H  H14  1  0.95210000  0.83770000  0.42970000  1.0 0.0792602887
H  H15  1  0.04790000  0.83770000  0.07030000  1.0 0.0792602887
H  H16  1  0.95210000  0.66230000  0.57030000  1.0 0.0792602887
H  H17  1  0.23220000  0.77210000  0.75650000  1.0 0.0912838355
H  H18  1  0.23220000  0.27210000  0.74350000  1.0 0.0912838355
H  H19  1  0.76780000  0.27210000  0.75650000  1.0 0.0912838355
H  H20  1  0.23220000  0.22790000  0.25650000  1.0 0.0912838355
H  H21  1  0.76780000  0.22790000  0.24350000  1.0 0.0912838355
H  H22  1  0.76780000  0.72790000  0.25650000  1.0 0.0912838355
H  H23  1  0.23220000  0.72790000  0.24350000  1.0 0.0912838355
H  H24  1  0.76780000  0.77210000  0.74350000  1.0 0.0912838355
H  H25  1  0.34180000  0.88590000  0.71080000  1.0 0.0984245327
H  H26  1  0.34180000  0.38590000  0.78920000  1.0 0.0984245327
H  H27  1  0.65820000  0.38590000  0.71080000  1.0 0.0984245327
H  H28  1  0.34180000  0.11410000  0.21080000  1.0 0.0984245327
H  H29  1  0.65820000  0.11410000  0.28920000  1.0 0.0984245327
H  H30  1  0.65820000  0.61410000  0.21080000  1.0 0.0984245327
H  H31  1  0.34180000  0.61410000  0.28920000  1.0 0.0984245327
H  H32  1  0.65820000  0.88590000  0.78920000  1.0 0.0984245327
H  H33  1  0.43670000  0.97800000  0.87520000  1.0 0.0984245327
H  H34  1  0.43670000  0.47800000  0.62480000  1.0 0.0984245327
H  H35  1  0.56330000  0.47800000  0.87520000  1.0 0.0984245327
H  H36  1  0.43670000  0.02200000  0.37520000  1.0 0.0984245327
H  H37  1  0.56330000  0.02200000  0.12480000  1.0 0.0984245327
H  H38  1  0.56330000  0.52200000  0.37520000  1.0 0.0984245327
H  H39  1  0.43670000  0.52200000  0.12480000  1.0 0.0984245327
H  H40  1  0.56330000  0.97800000  0.62480000  1.0 0.0984245327
H  H41  1  0.32120000  0.86990000  0.92460000  1.0 0.0984245327
H  H42  1  0.32120000  0.36990000  0.57540000  1.0 0.0984245327
H  H43  1  0.67880000  0.36990000  0.92460000  1.0 0.0984245327
H  H44  1  0.32120000  0.13010000  0.42460000  1.0 0.0984245327
H  H45  1  0.67880000  0.13010000  0.07540000  1.0 0.0984245327
H  H46  1  0.67880000  0.63010000  0.42460000  1.0 0.0984245327
H  H47  1  0.32120000  0.63010000  0.07540000  1.0 0.0984245327
H  H48  1  0.67880000  0.86990000  0.57540000  1.0 0.0984245327
H  H49  1  0.88160000  0.65830000  0.00620000  1.0 0.1066214691
H  H50  1  0.88160000  0.15830000  0.49380000  1.0 0.1066214691
H  H51  1  0.11840000  0.15830000  0.00620000  1.0 0.1066214691
H  H52  1  0.88160000  0.34170000  0.50620000  1.0 0.1066214691
H  H53  1  0.11840000  0.34170000  0.99380000  1.0 0.1066214691
H  H54  1  0.11840000  0.84170000  0.50620000  1.0 0.1066214691
H  H55  1  0.88160000  0.84170000  0.99380000  1.0 0.1066214691
H  H56  1  0.11840000  0.65830000  0.49380000  1.0 0.1066214691
H  H57  1  0.00050000  0.64730000  0.05810000  1.0 0.0792602887
H  H58  1  0.00050000  0.14730000  0.44190000  1.0 0.0792602887
H  H59  1  0.99950000  0.14730000  0.05810000  1.0 0.0792602887
H  H60  1  0.00050000  0.35270000  0.55810000  1.0 0.0792602887
H  H61  1  0.99950000  0.35270000  0.94190000  1.0 0.0792602887
H  H62  1  0.99950000  0.85270000  0.55810000  1.0 0.0792602887
H  H63  1  0.00050000  0.85270000  0.94190000  1.0 0.0792602887
H  H64  1  0.99950000  0.64730000  0.44190000  1.0 0.0792602887
H  H65  1  0.53330000  0.72160000  0.12630000  1.0 0.1066214691
H  H66  1  0.53330000  0.22160000  0.37370000  1.0 0.1066214691
H  H67  1  0.46670000  0.22160000  0.12630000  1.0 0.1066214691
H  H68  1  0.53330000  0.27840000  0.62630000  1.0 0.1066214691
H  H69  1  0.46670000  0.27840000  0.87370000  1.0 0.1066214691
H  H70  1  0.46670000  0.77840000  0.62630000  1.0 0.1066214691
H  H71  1  0.53330000  0.77840000  0.87370000  1.0 0.1066214691
H  H72  1  0.46670000  0.72160000  0.37370000  1.0 0.1066214691
H  H73  1  0.43020000  0.82560000  0.18390000  1.0 0.0640958635
H  H74  1  0.43020000  0.32560000  0.31610000  1.0 0.0640958635
H  H75  1  0.56980000  0.32560000  0.18390000  1.0 0.0640958635
H  H76  1  0.43020000  0.17440000  0.68390000  1.0 0.0640958635
H  H77  1  0.56980000  0.17440000  0.81610000  1.0 0.0640958635
H  H78  1  0.56980000  0.67440000  0.68390000  1.0 0.0640958635
H  H79  1  0.43020000  0.67440000  0.81610000  1.0 0.0640958635
H  H80  1  0.56980000  0.82560000  0.31610000  1.0 0.0640958635
H  H81  1  0.76580000  0.93980000  0.21890000  1.0 0.0912838355
H  H82  1  0.76580000  0.43980000  0.28110000  1.0 0.0912838355
H  H83  1  0.23420000  0.43980000  0.21890000  1.0 0.0912838355
H  H84  1  0.76580000  0.06020000  0.71890000  1.0 0.0912838355
H  H85  1  0.23420000  0.06020000  0.78110000  1.0 0.0912838355
H  H86  1  0.23420000  0.56020000  0.71890000  1.0 0.0912838355
H  H87  1  0.76580000  0.56020000  0.78110000  1.0 0.0912838355
H  H88  1  0.23420000  0.93980000  0.28110000  1.0 0.0912838355
H  H89  1  0.87780000  0.84150000  0.15810000  1.0 0.1066214691
H  H90  1  0.87780000  0.34150000  0.34190000  1.0 0.1066214691
H  H91  1  0.12220000  0.34150000  0.15810000  1.0 0.1066214691
H  H92  1  0.87780000  0.15850000  0.65810000  1.0 0.1066214691
H  H93  1  0.12220000  0.15850000  0.84190000  1.0 0.1066214691
H  H94  1  0.12220000  0.65850000  0.65810000  1.0 0.1066214691
H  H95  1  0.87780000  0.65850000  0.84190000  1.0 0.1066214691
H  H96  1  0.12220000  0.84150000  0.34190000  1.0 0.1066214691
C  C1  1  0.02400000  0.75000000  0.00000000  1.0 0.0689258141
C  C2  1  0.02400000  0.25000000  0.50000000  1.0 0.0689258141
C  C3  1  0.97600000  0.25000000  0.00000000  1.0 0.0689258141
C  C4  1  0.97600000  0.75000000  0.50000000  1.0 0.0689258141
C  C5  1  0.10480000  0.69840000  0.95870000  1.0 -0.1468858898
C  C6  1  0.10480000  0.19840000  0.54130000  1.0 -0.1468858898
C  C7  1  0.89520000  0.19840000  0.95870000  1.0 -0.1468858898
C  C8  1  0.10480000  0.30160000  0.45870000  1.0 -0.1468858898
C  C9  1  0.89520000  0.30160000  0.04130000  1.0 -0.1468858898
C  C10  1  0.89520000  0.80160000  0.45870000  1.0 -0.1468858898
C  C11  1  0.10480000  0.80160000  0.04130000  1.0 -0.1468858898
C  C12  1  0.89520000  0.69840000  0.54130000  1.0 -0.1468858898
C  C13  1  0.19500000  0.74700000  0.87670000  1.0 0.4567176749
C  C14  1  0.19500000  0.24700000  0.62330000  1.0 0.4567176749
C  C15  1  0.80500000  0.24700000  0.87670000  1.0 0.4567176749
C  C16  1  0.19500000  0.25300000  0.37670000  1.0 0.4567176749
C  C17  1  0.80500000  0.25300000  0.12330000  1.0 0.4567176749
C  C18  1  0.80500000  0.75300000  0.37670000  1.0 0.4567176749
C  C19  1  0.19500000  0.75300000  0.12330000  1.0 0.4567176749
C  C20  1  0.80500000  0.74700000  0.62330000  1.0 0.4567176749
C  C21  1  0.26670000  0.81330000  0.84370000  1.0 -0.0692461689
C  C22  1  0.26670000  0.31330000  0.65630000  1.0 -0.0692461689
C  C23  1  0.73330000  0.31330000  0.84370000  1.0 -0.0692461689
C  C24  1  0.26670000  0.18670000  0.34370000  1.0 -0.0692461689
C  C25  1  0.73330000  0.18670000  0.15630000  1.0 -0.0692461689
C  C26  1  0.73330000  0.68670000  0.34370000  1.0 -0.0692461689
C  C27  1  0.26670000  0.68670000  0.15630000  1.0 -0.0692461689
C  C28  1  0.73330000  0.81330000  0.65630000  1.0 -0.0692461689
C  C29  1  0.27570000  0.81780000  0.78360000  1.0 -0.2005323308
C  C30  1  0.27570000  0.31780000  0.71640000  1.0 -0.2005323308
C  C31  1  0.72430000  0.31780000  0.78360000  1.0 -0.2005323308
C  C32  1  0.27570000  0.18220000  0.28360000  1.0 -0.2005323308
C  C33  1  0.72430000  0.18220000  0.21640000  1.0 -0.2005323308
C  C34  1  0.72430000  0.68220000  0.28360000  1.0 -0.2005323308
C  C35  1  0.27570000  0.68220000  0.21640000  1.0 -0.2005323308
C  C36  1  0.72430000  0.81780000  0.71640000  1.0 -0.2005323308
C  C37  1  0.34010000  0.88060000  0.75800000  1.0 0.0792602887
C  C38  1  0.34010000  0.38060000  0.74200000  1.0 0.0792602887
C  C39  1  0.65990000  0.38060000  0.75800000  1.0 0.0792602887
C  C40  1  0.34010000  0.11940000  0.25800000  1.0 0.0792602887
C  C41  1  0.65990000  0.11940000  0.24200000  1.0 0.0792602887
C  C42  1  0.65990000  0.61940000  0.25800000  1.0 0.0792602887
C  C43  1  0.34010000  0.61940000  0.24200000  1.0 0.0792602887
C  C44  1  0.65990000  0.88060000  0.74200000  1.0 0.0792602887
C  C45  1  0.39150000  0.93190000  0.84910000  1.0 0.0912838355
C  C46  1  0.39150000  0.43190000  0.65090000  1.0 0.0912838355
C  C47  1  0.60850000  0.43190000  0.84910000  1.0 0.0912838355
C  C48  1  0.39150000  0.06810000  0.34910000  1.0 0.0912838355
C  C49  1  0.60850000  0.06810000  0.15090000  1.0 0.0912838355
C  C50  1  0.60850000  0.56810000  0.34910000  1.0 0.0912838355
C  C51  1  0.39150000  0.56810000  0.15090000  1.0 0.0912838355
C  C52  1  0.60850000  0.93190000  0.65090000  1.0 0.0912838355
C  C53  1  0.32610000  0.87160000  0.87730000  1.0 -0.2005323308
C  C54  1  0.32610000  0.37160000  0.62270000  1.0 -0.2005323308
C  C55  1  0.67390000  0.37160000  0.87730000  1.0 -0.2005323308
C  C56  1  0.32610000  0.12840000  0.37730000  1.0 -0.2005323308
C  C57  1  0.67390000  0.12840000  0.12270000  1.0 -0.2005323308
C  C58  1  0.67390000  0.62840000  0.37730000  1.0 -0.2005323308
C  C59  1  0.32610000  0.62840000  0.12270000  1.0 -0.2005323308
C  C60  1  0.67390000  0.87160000  0.62270000  1.0 -0.2005323308
C  C61  1  0.94380000  0.69080000  0.03500000  1.0 -0.0553685023
C  C62  1  0.94380000  0.19080000  0.46500000  1.0 -0.0553685023
C  C63  1  0.05620000  0.19080000  0.03500000  1.0 -0.0553685023
C  C64  1  0.94380000  0.30920000  0.53500000  1.0 -0.0553685023
C  C65  1  0.05620000  0.30920000  0.96500000  1.0 -0.0553685023
C  C66  1  0.05620000  0.80920000  0.53500000  1.0 -0.0553685023
C  C67  1  0.94380000  0.80920000  0.96500000  1.0 -0.0553685023
C  C68  1  0.05620000  0.69080000  0.46500000  1.0 -0.0553685023
C  C69  1  0.77570000  0.71290000  0.09900000  1.0 0.5108038274
C  C70  1  0.77570000  0.21290000  0.40100000  1.0 0.5108038274
C  C71  1  0.22430000  0.21290000  0.09900000  1.0 0.5108038274
C  C72  1  0.77570000  0.28710000  0.59900000  1.0 0.5108038274
C  C73  1  0.22430000  0.28710000  0.90100000  1.0 0.5108038274
C  C74  1  0.22430000  0.78710000  0.59900000  1.0 0.5108038274
C  C75  1  0.77570000  0.78710000  0.90100000  1.0 0.5108038274
C  C76  1  0.22430000  0.71290000  0.40100000  1.0 0.5108038274
C  C77  1  0.71270000  0.77530000  0.13620000  1.0 -0.0019649525
C  C78  1  0.71270000  0.27530000  0.36380000  1.0 -0.0019649525
C  C79  1  0.28730000  0.27530000  0.13620000  1.0 -0.0019649525
C  C80  1  0.71270000  0.22470000  0.63620000  1.0 -0.0019649525
C  C81  1  0.28730000  0.22470000  0.86380000  1.0 -0.0019649525
C  C82  1  0.28730000  0.72470000  0.63620000  1.0 -0.0019649525
C  C83  1  0.71270000  0.72470000  0.86380000  1.0 -0.0019649525
C  C84  1  0.28730000  0.77530000  0.36380000  1.0 -0.0019649525
C  C85  1  0.58620000  0.77080000  0.14530000  1.0 -0.1567920303
C  C86  1  0.58620000  0.27080000  0.35470000  1.0 -0.1567920303
C  C87  1  0.41380000  0.27080000  0.14530000  1.0 -0.1567920303
C  C88  1  0.58620000  0.22920000  0.64530000  1.0 -0.1567920303
C  C89  1  0.41380000  0.22920000  0.85470000  1.0 -0.1567920303
C  C90  1  0.41380000  0.72920000  0.64530000  1.0 -0.1567920303
C  C91  1  0.58620000  0.72920000  0.85470000  1.0 -0.1567920303
C  C92  1  0.41380000  0.77080000  0.35470000  1.0 -0.1567920303
C  C93  1  0.52930000  0.82840000  0.17830000  1.0 0.0792602887
C  C94  1  0.52930000  0.32840000  0.32170000  1.0 0.0792602887
C  C95  1  0.47070000  0.32840000  0.17830000  1.0 0.0792602887
C  C96  1  0.52930000  0.17160000  0.67830000  1.0 0.0792602887
C  C97  1  0.47070000  0.17160000  0.82170000  1.0 0.0792602887
C  C98  1  0.47070000  0.67160000  0.67830000  1.0 0.0792602887
C  C99  1  0.52930000  0.67160000  0.82170000  1.0 0.0792602887
C  C100  1  0.47070000  0.82840000  0.32170000  1.0 0.0792602887
C  C101  1  0.71500000  0.89190000  0.19710000  1.0 0.0792602887
C  C102  1  0.71500000  0.39190000  0.30290000  1.0 0.0792602887
C  C103  1  0.28500000  0.39190000  0.19710000  1.0 0.0792602887
C  C104  1  0.71500000  0.10810000  0.69710000  1.0 0.0792602887
C  C105  1  0.28500000  0.10810000  0.80290000  1.0 0.0792602887
C  C106  1  0.28500000  0.60810000  0.69710000  1.0 0.0792602887
C  C107  1  0.71500000  0.60810000  0.80290000  1.0 0.0792602887
C  C108  1  0.28500000  0.89190000  0.30290000  1.0 0.0792602887
C  C109  1  0.77880000  0.83690000  0.16330000  1.0 -0.1567920303
C  C110  1  0.77880000  0.33690000  0.33670000  1.0 -0.1567920303
C  C111  1  0.22120000  0.33690000  0.16330000  1.0 -0.1567920303
C  C112  1  0.77880000  0.16310000  0.66330000  1.0 -0.1567920303
C  C113  1  0.22120000  0.16310000  0.83670000  1.0 -0.1567920303
C  C114  1  0.22120000  0.66310000  0.66330000  1.0 -0.1567920303
C  C115  1  0.77880000  0.66310000  0.83670000  1.0 -0.1567920303
C  C116  1  0.22120000  0.83690000  0.33670000  1.0 -0.1567920303
C  C117  1  0.19300000  0.74610000  0.86920000  1.0 0.4403272209
C  C118  1  0.19300000  0.24610000  0.63080000  1.0 0.4403272209
C  C119  1  0.80700000  0.24610000  0.86920000  1.0 0.4403272209
C  C120  1  0.19300000  0.25390000  0.36920000  1.0 0.4403272209
C  C121  1  0.80700000  0.25390000  0.13080000  1.0 0.4403272209
C  C122  1  0.80700000  0.75390000  0.36920000  1.0 0.4403272209
C  C123  1  0.19300000  0.75390000  0.13080000  1.0 0.4403272209
C  C124  1  0.80700000  0.74610000  0.63080000  1.0 0.4403272209
N  N1  1  0.40130000  0.93580000  0.79100000  1.0 -0.2317882615
N  N2  1  0.40130000  0.43580000  0.70900000  1.0 -0.2317882615
N  N3  1  0.59870000  0.43580000  0.79100000  1.0 -0.2317882615
N  N4  1  0.40130000  0.06420000  0.29100000  1.0 -0.2317882615
N  N5  1  0.59870000  0.06420000  0.20900000  1.0 -0.2317882615
N  N6  1  0.59870000  0.56420000  0.29100000  1.0 -0.2317882615
N  N7  1  0.40130000  0.56420000  0.20900000  1.0 -0.2317882615
N  N8  1  0.59870000  0.93580000  0.70900000  1.0 -0.2317882615
N  N9  1  0.59200000  0.88850000  0.20400000  1.0 -0.2360296573
N  N10  1  0.59200000  0.38850000  0.29600000  1.0 -0.2360296573
N  N11  1  0.40800000  0.38850000  0.20400000  1.0 -0.2360296573
N  N12  1  0.59200000  0.11150000  0.70400000  1.0 -0.2360296573
N  N13  1  0.40800000  0.11150000  0.79600000  1.0 -0.2360296573
N  N14  1  0.40800000  0.61150000  0.70400000  1.0 -0.2360296573
N  N15  1  0.59200000  0.61150000  0.79600000  1.0 -0.2360296573
N  N16  1  0.40800000  0.88850000  0.29600000  1.0 -0.2360296573
O  O1  1  0.20160000  0.67770000  0.85080000  1.0 -0.1390690329
O  O2  1  0.20160000  0.17770000  0.64920000  1.0 -0.1468858898
O  O3  1  0.79840000  0.17770000  0.85080000  1.0 -0.1468858898
O  O4  1  0.20160000  0.32230000  0.35080000  1.0 -0.1468858898
O  O5  1  0.79840000  0.32230000  0.14920000  1.0 -0.1468858898
O  O6  1  0.79840000  0.82230000  0.35080000  1.0 -0.1468858898
O  O7  1  0.20160000  0.82230000  0.14920000  1.0 -0.1468858898
O  O8  1  0.79840000  0.67770000  0.64920000  1.0 -0.1390690329
O  O9  1  0.17670000  0.75620000  0.92596000  1.0 -0.2103925409
O  O10  1  0.17670000  0.25620000  0.57404000  1.0 -0.2103925409
O  O11  1  0.82330000  0.25620000  0.92596000  1.0 -0.2103925409
O  O12  1  0.17670000  0.24380000  0.42596000  1.0 -0.2103925409
O  O13  1  0.82330000  0.24380000  0.07404000  1.0 -0.2103925409
O  O14  1  0.82330000  0.74380000  0.42596000  1.0 -0.2103925409
O  O15  1  0.17670000  0.74380000  0.07404000  1.0 -0.2103925409
O  O16  1  0.82330000  0.75620000  0.57404000  1.0 -0.2103925409
O  O17  1  0.87510000  0.74090000  0.07592000  1.0 -0.2641650798
O  O18  1  0.87510000  0.24090000  0.42408000  1.0 -0.2641650798
O  O19  1  0.12490000  0.24090000  0.07592000  1.0 -0.2641650798
O  O20  1  0.87510000  0.25910000  0.57592000  1.0 -0.2641650798
O  O21  1  0.12490000  0.25910000  0.92408000  1.0 -0.2641650798
O  O22  1  0.12490000  0.75910000  0.57592000  1.0 -0.2641650798
O  O23  1  0.87510000  0.75910000  0.92408000  1.0 -0.2650763157
O  O24  1  0.12490000  0.74090000  0.42408000  1.0 -0.2641650798
O  O25  1  0.73940000  0.64330000  0.09480000  1.0 -0.4559250238
O  O26  1  0.73940000  0.14330000  0.40520000  1.0 -0.4559250238
O  O27  1  0.26060000  0.14330000  0.09480000  1.0 -0.4546667921
O  O28  1  0.73940000  0.35670000  0.59480000  1.0 -0.4559250238
O  O29  1  0.26060000  0.35670000  0.90520000  1.0 -0.4546667921
O  O30  1  0.26060000  0.85670000  0.59480000  1.0 -0.4546667921
O  O31  1  0.73940000  0.85670000  0.90520000  1.0 -0.4559250238
O  O32  1  0.26060000  0.64330000  0.40520000  1.0 -0.4546667921
O  O33  1  0.65680000  0.02700000  0.82720000  1.0 -0.5035371843
O  O34  1  0.65680000  0.52700000  0.67280000  1.0 -0.5035371843
O  O35  1  0.34320000  0.52700000  0.82720000  1.0 -0.5067841075
O  O36  1  0.65680000  0.97300000  0.32720000  1.0 -0.5035371843
O  O37  1  0.34320000  0.97300000  0.17280000  1.0 -0.5035371843
O  O38  1  0.34320000  0.47300000  0.32720000  1.0 -0.5067841075
O  O39  1  0.65680000  0.47300000  0.17280000  1.0 -0.5035371843
O  O40  1  0.34320000  0.02700000  0.67280000  1.0 -0.5067841075
O  O41  1  0.10930000  0.70440000  0.83890000  1.0 -0.1390690329
O  O42  1  0.10930000  0.20440000  0.66110000  1.0 -0.1390690329
O  O43  1  0.89070000  0.20440000  0.83890000  1.0 -0.1390690329
O  O44  1  0.10930000  0.29560000  0.33890000  1.0 -0.1390690329
O  O45  1  0.89070000  0.29560000  0.16110000  1.0 -0.1390690329
O  O46  1  0.89070000  0.79560000  0.33890000  1.0 -0.1390690329
O  O47  1  0.10930000  0.79560000  0.16110000  1.0 -0.1390690329
O  O48  1  0.89070000  0.70440000  0.66110000  1.0 -0.1390690329
