# DDEC6 charges by PACMAN v1.1 (https://github.com/mtap-research/PACMAN-charge/)
data_IKOTUZ_ASR_pacman
_symmetry_space_group_name_H-M   'P 1'
_cell_length_a   28.33460000
_cell_length_b   28.33460000
_cell_length_c   28.33460000
_cell_angle_alpha   119.01600000
_cell_angle_beta   119.01600000
_cell_angle_gamma   119.01600000
_symmetry_Int_Tables_number   1
_chemical_formula_structural   KSmH6C14(SO5)2
_chemical_formula_sum   'K6 Sm6 H36 C84 S12 O60'
_cell_volume   5840.81231486
_cell_formula_units_Z   6
loop_
 _symmetry_equiv_pos_site_id
 _symmetry_equiv_pos_as_xyz
  1  'x, y, z'
loop_
 _atom_site_type_symbol
 _atom_site_label
 _atom_site_symmetry_multiplicity
 _atom_site_fract_x
 _atom_site_fract_y
 _atom_site_fract_z
 _atom_site_occupancy
 _atom_site_charge
K  K1  1  0.74320000  0.64564000  0.32336000  1.0 0.9080359601
K  K2  1  0.64564000  0.32336000  0.74320000  1.0 0.9080359601
K  K3  1  0.32336000  0.74320000  0.64564000  1.0 0.9080359601
K  K4  1  0.24320000  0.82336000  0.14564000  1.0 0.9080359601
K  K5  1  0.14564000  0.24320000  0.82336000  1.0 0.9080359601
K  K6  1  0.82336000  0.14564000  0.24320000  1.0 0.9080359601
Sm  Sm1  1  0.05428000  0.03479000  0.55691000  1.0 2.173980441
Sm  Sm2  1  0.03479000  0.55691000  0.05428000  1.0 2.173980441
Sm  Sm3  1  0.55691000  0.05428000  0.03479000  1.0 2.173980441
Sm  Sm4  1  0.55428000  0.05691000  0.53479000  1.0 2.173980441
Sm  Sm5  1  0.53479000  0.55428000  0.05691000  1.0 2.173980441
Sm  Sm6  1  0.05691000  0.53479000  0.55428000  1.0 2.173980441
H  H1  1  0.10550000  0.93460000  0.67890000  1.0 0.1119031717
H  H2  1  0.93460000  0.67890000  0.10550000  1.0 0.1119031717
H  H3  1  0.67890000  0.10550000  0.93460000  1.0 0.1119031717
H  H4  1  0.60550000  0.17890000  0.43460000  1.0 0.1119031717
H  H5  1  0.43460000  0.60550000  0.17890000  1.0 0.1119031717
H  H6  1  0.17890000  0.43460000  0.60550000  1.0 0.1119031717
H  H7  1  0.53000000  0.28210000  0.00670000  1.0 0.1209814736
H  H8  1  0.28210000  0.00670000  0.53000000  1.0 0.1209814736
H  H9  1  0.00670000  0.53000000  0.28210000  1.0 0.1209814736
H  H10  1  0.03000000  0.50670000  0.78210000  1.0 0.1209814736
H  H11  1  0.78210000  0.03000000  0.50670000  1.0 0.1209814736
H  H12  1  0.50670000  0.78210000  0.03000000  1.0 0.1209814736
H  H13  1  0.57840000  0.41090000  0.05990000  1.0 0.1295144819
H  H14  1  0.41090000  0.05990000  0.57840000  1.0 0.1295144819
H  H15  1  0.05990000  0.57840000  0.41090000  1.0 0.1295144819
H  H16  1  0.07840000  0.55990000  0.91090000  1.0 0.1295144819
H  H17  1  0.91090000  0.07840000  0.55990000  1.0 0.1295144819
H  H18  1  0.55990000  0.91090000  0.07840000  1.0 0.1295144819
H  H19  1  0.11470000  0.87190000  0.70000000  1.0 0.1119031717
H  H20  1  0.87190000  0.70000000  0.11470000  1.0 0.1119031717
H  H21  1  0.70000000  0.11470000  0.87190000  1.0 0.1119031717
H  H22  1  0.61470000  0.20000000  0.37190000  1.0 0.1119031717
H  H23  1  0.37190000  0.61470000  0.20000000  1.0 0.1119031717
H  H24  1  0.20000000  0.37190000  0.61470000  1.0 0.1119031717
H  H25  1  0.04920000  0.72460000  0.62000000  1.0 0.1209814736
H  H26  1  0.72460000  0.62000000  0.04920000  1.0 0.1209814736
H  H27  1  0.62000000  0.04920000  0.72460000  1.0 0.1209814736
H  H28  1  0.54920000  0.12000000  0.22460000  1.0 0.1209814736
H  H29  1  0.22460000  0.54920000  0.12000000  1.0 0.1209814736
H  H30  1  0.12000000  0.22460000  0.54920000  1.0 0.1209814736
H  H31  1  0.42170000  0.10100000  0.86560000  1.0 0.1119031717
H  H32  1  0.10100000  0.86560000  0.42170000  1.0 0.1119031717
H  H33  1  0.86560000  0.42170000  0.10100000  1.0 0.1119031717
H  H34  1  0.92170000  0.36560000  0.60100000  1.0 0.1119031717
H  H35  1  0.60100000  0.92170000  0.36560000  1.0 0.1119031717
H  H36  1  0.36560000  0.60100000  0.92170000  1.0 0.1119031717
C  C1  1  0.37268000  0.25235000  0.90307000  1.0 -0.0541491123
C  C2  1  0.25235000  0.90307000  0.37268000  1.0 -0.0541491123
C  C3  1  0.90307000  0.37268000  0.25235000  1.0 -0.0541491123
C  C4  1  0.87268000  0.40307000  0.75235000  1.0 -0.0541491123
C  C5  1  0.75235000  0.87268000  0.40307000  1.0 -0.0541491123
C  C6  1  0.40307000  0.75235000  0.87268000  1.0 -0.0541491123
C  C7  1  0.23375000  0.11245000  0.79370000  1.0 -0.0884561969
C  C8  1  0.11245000  0.79370000  0.23375000  1.0 -0.0884561969
C  C9  1  0.79370000  0.23375000  0.11245000  1.0 -0.0884561969
C  C10  1  0.73375000  0.29370000  0.61245000  1.0 -0.0884561969
C  C11  1  0.61245000  0.73375000  0.29370000  1.0 -0.0884561969
C  C12  1  0.29370000  0.61245000  0.73375000  1.0 -0.0884561969
C  C13  1  0.20172000  0.03142000  0.75676000  1.0 -0.1311199023
C  C14  1  0.03142000  0.75676000  0.20172000  1.0 -0.1311199023
C  C15  1  0.75676000  0.20172000  0.03142000  1.0 -0.1311199023
C  C16  1  0.70172000  0.25676000  0.53142000  1.0 -0.1311199023
C  C17  1  0.53142000  0.70172000  0.25676000  1.0 -0.1311199023
C  C18  1  0.25676000  0.53142000  0.70172000  1.0 -0.1311199023
C  C19  1  0.31271000  0.09336000  0.83523000  1.0 0.0839122596
C  C20  1  0.09336000  0.83523000  0.31271000  1.0 0.0839122596
C  C21  1  0.83523000  0.31271000  0.09336000  1.0 0.0839122596
C  C22  1  0.81271000  0.33523000  0.59336000  1.0 0.0839122596
C  C23  1  0.59336000  0.81271000  0.33523000  1.0 0.0839122596
C  C24  1  0.33523000  0.59336000  0.81271000  1.0 0.0839122596
C  C25  1  0.45267000  0.23605000  0.94948000  1.0 -0.1311199023
C  C26  1  0.23605000  0.94948000  0.45267000  1.0 -0.1311199023
C  C27  1  0.94948000  0.45267000  0.23605000  1.0 -0.1311199023
C  C28  1  0.95267000  0.44948000  0.73605000  1.0 -0.1311199023
C  C29  1  0.73605000  0.95267000  0.44948000  1.0 -0.1311199023
C  C30  1  0.44948000  0.73605000  0.95267000  1.0 -0.1311199023
C  C31  1  0.48235000  0.31437000  0.98248000  1.0 -0.101175472
C  C32  1  0.31437000  0.98248000  0.48235000  1.0 -0.101175472
C  C33  1  0.98248000  0.48235000  0.31437000  1.0 -0.101175472
C  C34  1  0.98235000  0.48248000  0.81437000  1.0 -0.101175472
C  C35  1  0.81437000  0.98235000  0.48248000  1.0 -0.101175472
C  C36  1  0.48248000  0.81437000  0.98235000  1.0 -0.101175472
C  C37  1  0.41883000  0.34797000  0.94850000  1.0 0.6395096444
C  C38  1  0.34797000  0.94850000  0.41883000  1.0 0.6395096444
C  C39  1  0.94850000  0.41883000  0.34797000  1.0 0.6395096444
C  C40  1  0.91883000  0.44850000  0.84797000  1.0 0.6395096444
C  C41  1  0.84797000  0.91883000  0.44850000  1.0 0.6395096444
C  C42  1  0.44850000  0.84797000  0.91883000  1.0 0.6395096444
C  C43  1  0.27389000  0.00192000  0.79029000  1.0 0.0742783212
C  C44  1  0.00192000  0.79029000  0.27389000  1.0 0.0742783212
C  C45  1  0.79029000  0.27389000  0.00192000  1.0 0.0742783212
C  C46  1  0.77389000  0.29029000  0.50192000  1.0 0.0742783212
C  C47  1  0.50192000  0.77389000  0.29029000  1.0 0.0742783212
C  C48  1  0.29029000  0.50192000  0.77389000  1.0 0.0742783212
C  C49  1  0.16553000  0.89048000  0.71939000  1.0 -0.1311199023
C  C50  1  0.89048000  0.71939000  0.16553000  1.0 -0.1311199023
C  C51  1  0.71939000  0.16553000  0.89048000  1.0 -0.1311199023
C  C52  1  0.66553000  0.21939000  0.39048000  1.0 -0.1311199023
C  C53  1  0.39048000  0.66553000  0.21939000  1.0 -0.1311199023
C  C54  1  0.21939000  0.39048000  0.66553000  1.0 -0.1311199023
C  C55  1  0.13011000  0.80576000  0.67633000  1.0 -0.0884561969
C  C56  1  0.80576000  0.67633000  0.13011000  1.0 -0.0884561969
C  C57  1  0.67633000  0.13011000  0.80576000  1.0 -0.0884561969
C  C58  1  0.63011000  0.17633000  0.30576000  1.0 -0.0884561969
C  C59  1  0.30576000  0.63011000  0.17633000  1.0 -0.0884561969
C  C60  1  0.17633000  0.30576000  0.63011000  1.0 -0.0884561969
C  C61  1  0.21183000  0.83869000  0.71498000  1.0 -0.0381128862
C  C62  1  0.83869000  0.71498000  0.21183000  1.0 -0.0381128862
C  C63  1  0.71498000  0.21183000  0.83869000  1.0 -0.0381128862
C  C64  1  0.71183000  0.21498000  0.33869000  1.0 -0.0381128862
C  C65  1  0.33869000  0.71183000  0.21498000  1.0 -0.0381128862
C  C66  1  0.21498000  0.33869000  0.71183000  1.0 -0.0381128862
C  C67  1  0.32463000  0.95268000  0.78999000  1.0 -0.0884561969
C  C68  1  0.95268000  0.78999000  0.32463000  1.0 -0.0884561969
C  C69  1  0.78999000  0.32463000  0.95268000  1.0 -0.0884561969
C  C70  1  0.82463000  0.28999000  0.45268000  1.0 -0.0884561969
C  C71  1  0.45268000  0.82463000  0.28999000  1.0 -0.0884561969
C  C72  1  0.28999000  0.45268000  0.82463000  1.0 -0.0884561969
C  C73  1  0.35132000  0.03015000  0.82233000  1.0 -0.1420686654
C  C74  1  0.03015000  0.82233000  0.35132000  1.0 -0.1420686654
C  C75  1  0.82233000  0.35132000  0.03015000  1.0 -0.1420686654
C  C76  1  0.85132000  0.32233000  0.53015000  1.0 -0.1420686654
C  C77  1  0.53015000  0.85132000  0.32233000  1.0 -0.1420686654
C  C78  1  0.32233000  0.53015000  0.85132000  1.0 -0.1420686654
C  C79  1  0.16973000  0.74430000  0.66907000  1.0 0.6276973747
C  C80  1  0.74430000  0.66907000  0.16973000  1.0 0.6276973747
C  C81  1  0.66907000  0.16973000  0.74430000  1.0 0.6276973747
C  C82  1  0.66973000  0.16907000  0.24430000  1.0 0.6276973747
C  C83  1  0.24430000  0.66973000  0.16907000  1.0 0.6276973747
C  C84  1  0.16907000  0.24430000  0.66973000  1.0 0.6276973747
S  S1  1  0.09061000  0.02988000  0.69526000  1.0 1.2199942631
S  S2  1  0.02988000  0.69526000  0.09061000  1.0 1.2199942631
S  S3  1  0.69526000  0.09061000  0.02988000  1.0 1.2199942631
S  S4  1  0.59061000  0.19526000  0.52988000  1.0 1.2199942631
S  S5  1  0.52988000  0.59061000  0.19526000  1.0 1.2199942631
S  S6  1  0.19526000  0.52988000  0.59061000  1.0 1.2199942631
S  S7  1  0.44304000  0.01187000  0.84975000  1.0 1.2199942631
S  S8  1  0.01187000  0.84975000  0.44304000  1.0 1.2199942631
S  S9  1  0.84975000  0.44304000  0.01187000  1.0 1.2199942631
S  S10  1  0.94304000  0.34975000  0.51187000  1.0 1.2199942631
S  S11  1  0.51187000  0.94304000  0.34975000  1.0 1.2199942631
S  S12  1  0.34975000  0.51187000  0.94304000  1.0 1.2199942631
O  O1  1  0.31621000  0.27646000  0.83823000  1.0 -0.7392353494
O  O2  1  0.27646000  0.83823000  0.31621000  1.0 -0.7455153204
O  O3  1  0.83823000  0.31621000  0.27646000  1.0 -0.7455153204
O  O4  1  0.81621000  0.33823000  0.77646000  1.0 -0.7455153204
O  O5  1  0.77646000  0.81621000  0.33823000  1.0 -0.7455153204
O  O6  1  0.33823000  0.77646000  0.81621000  1.0 -0.7455153204
O  O7  1  0.55755000  0.49600000  0.09195000  1.0 -0.6303376393
O  O8  1  0.49600000  0.09195000  0.55755000  1.0 -0.6303376393
O  O9  1  0.09195000  0.55755000  0.49600000  1.0 -0.6303376393
O  O10  1  0.05755000  0.59195000  0.99600000  1.0 -0.6303376393
O  O11  1  0.99600000  0.05755000  0.59195000  1.0 -0.6303376393
O  O12  1  0.59195000  0.99600000  0.05755000  1.0 -0.6303376393
O  O13  1  0.00004000  0.95152000  0.56914000  1.0 -0.7555533982
O  O14  1  0.95152000  0.56914000  0.00004000  1.0 -0.7555533982
O  O15  1  0.56914000  0.00004000  0.95152000  1.0 -0.7555533982
O  O16  1  0.50004000  0.06914000  0.45152000  1.0 -0.7555533982
O  O17  1  0.45152000  0.50004000  0.06914000  1.0 -0.7555533982
O  O18  1  0.06914000  0.45152000  0.50004000  1.0 -0.7555533982
O  O19  1  0.98539000  0.91030000  0.62321000  1.0 -0.6303376393
O  O20  1  0.91030000  0.62321000  0.98539000  1.0 -0.6303376393
O  O21  1  0.62321000  0.98539000  0.91030000  1.0 -0.6303376393
O  O22  1  0.48539000  0.12321000  0.41030000  1.0 -0.6303376393
O  O23  1  0.41030000  0.48539000  0.12321000  1.0 -0.6303376393
O  O24  1  0.12321000  0.41030000  0.48539000  1.0 -0.6303376393
O  O25  1  0.18233000  0.16307000  0.81670000  1.0 -0.5813257035
O  O26  1  0.16307000  0.81670000  0.18233000  1.0 -0.5813257035
O  O27  1  0.81670000  0.18233000  0.16307000  1.0 -0.5813257035
O  O28  1  0.68233000  0.31670000  0.66307000  1.0 -0.5813257035
O  O29  1  0.66307000  0.68233000  0.31670000  1.0 -0.5813257035
O  O30  1  0.31670000  0.66307000  0.68233000  1.0 -0.5813257035
O  O31  1  0.02295000  0.59451000  0.52944000  1.0 -0.6067389187
O  O32  1  0.59451000  0.52944000  0.02295000  1.0 -0.6067389187
O  O33  1  0.52944000  0.02295000  0.59451000  1.0 -0.6067389187
O  O34  1  0.52295000  0.02944000  0.09451000  1.0 -0.6067389187
O  O35  1  0.09451000  0.52295000  0.02944000  1.0 -0.6067389187
O  O36  1  0.02944000  0.09451000  0.52295000  1.0 -0.6067389187
O  O37  1  0.27744000  0.81381000  0.76935000  1.0 -0.7659918007
O  O38  1  0.81381000  0.76935000  0.27744000  1.0 -0.7659918007
O  O39  1  0.76935000  0.27744000  0.81381000  1.0 -0.7659918007
O  O40  1  0.77744000  0.26935000  0.31381000  1.0 -0.7659918007
O  O41  1  0.31381000  0.77744000  0.26935000  1.0 -0.7659918007
O  O42  1  0.26935000  0.31381000  0.77744000  1.0 -0.7659918007
O  O43  1  0.33243000  0.86499000  0.71388000  1.0 -0.620340182
O  O44  1  0.86499000  0.71388000  0.33243000  1.0 -0.620340182
O  O45  1  0.71388000  0.33243000  0.86499000  1.0 -0.620340182
O  O46  1  0.83243000  0.21388000  0.36499000  1.0 -0.620340182
O  O47  1  0.36499000  0.83243000  0.21388000  1.0 -0.620340182
O  O48  1  0.21388000  0.36499000  0.83243000  1.0 -0.620340182
O  O49  1  0.55677000  0.10453000  0.98740000  1.0 -0.7392353494
O  O50  1  0.10453000  0.98740000  0.55677000  1.0 -0.7392353494
O  O51  1  0.98740000  0.55677000  0.10453000  1.0 -0.7392353494
O  O52  1  0.05677000  0.48740000  0.60453000  1.0 -0.7392353494
O  O53  1  0.60453000  0.05677000  0.48740000  1.0 -0.7392353494
O  O54  1  0.48740000  0.60453000  0.05677000  1.0 -0.7392353494
O  O55  1  0.52380000  0.11165000  0.89685000  1.0 -0.5860257483
O  O56  1  0.11165000  0.89685000  0.52380000  1.0 -0.5860257483
O  O57  1  0.89685000  0.52380000  0.11165000  1.0 -0.5860257483
O  O58  1  0.02380000  0.39685000  0.61165000  1.0 -0.5860257483
O  O59  1  0.61165000  0.02380000  0.39685000  1.0 -0.5860257483
O  O60  1  0.39685000  0.61165000  0.02380000  1.0 -0.5860257483
