# DDEC6 charges by PACMAN v1.1 (https://github.com/mtap-research/PACMAN-charge/)
data_IKUMAF_ASR_pacman
_symmetry_space_group_name_H-M   'P 1'
_cell_length_a   17.93710000
_cell_length_b   17.93710000
_cell_length_c   8.08970000
_cell_angle_alpha   90.00000000
_cell_angle_beta   90.00000000
_cell_angle_gamma   120.00000000
_symmetry_Int_Tables_number   1
_chemical_formula_structural   FeH5C8N9
_chemical_formula_sum   'Fe6 H30 C48 N54'
_cell_volume   2254.07056027
_cell_formula_units_Z   6
loop_
 _symmetry_equiv_pos_site_id
 _symmetry_equiv_pos_as_xyz
  1  'x, y, z'
loop_
 _atom_site_type_symbol
 _atom_site_label
 _atom_site_symmetry_multiplicity
 _atom_site_fract_x
 _atom_site_fract_y
 _atom_site_fract_z
 _atom_site_occupancy
 _atom_site_charge
Fe  Fe1  1  0.51464000  0.13269000  0.44083000  1.0 0.5859713681
Fe  Fe2  1  0.61805000  0.48536000  0.10750000  1.0 0.5833563216
Fe  Fe3  1  0.86731000  0.38195000  0.77416000  1.0 0.5833563216
Fe  Fe4  1  0.48536000  0.86731000  0.94083000  1.0 0.5833563216
Fe  Fe5  1  0.38195000  0.51464000  0.60750000  1.0 0.5833563216
Fe  Fe6  1  0.13269000  0.61805000  0.27416000  1.0 0.5833563216
H  H1  1  0.63208000  0.34610000  0.32895000  1.0 0.1009612818
H  H2  1  0.55980000  0.01908000  0.68269000  1.0 0.1009612818
H  H3  1  0.41938000  0.30627000  0.11247000  1.0 0.1273726053
H  H4  1  0.32542000  0.82452000  0.65142000  1.0 0.1208729299
H  H5  1  0.26149000  0.89019000  0.44026000  1.0 0.2070871817
H  H6  1  0.71402000  0.36792000  0.99562000  1.0 0.1009612818
H  H7  1  0.45928000  0.44020000  0.34936000  1.0 0.1009612818
H  H8  1  0.88689000  0.58062000  0.77914000  1.0 0.1273726053
H  H9  1  0.49910000  0.67458000  0.31809000  1.0 0.1208729299
H  H10  1  0.62870000  0.73851000  0.10693000  1.0 0.2070871817
H  H11  1  0.65390000  0.28598000  0.66228000  1.0 0.1009612818
H  H12  1  0.98092000  0.54072000  0.01602000  1.0 0.1009612818
H  H13  1  0.69373000  0.11311000  0.44580000  1.0 0.1273726053
H  H14  1  0.17548000  0.50090000  0.98475000  1.0 0.1208729299
H  H15  1  0.10981000  0.37130000  0.77359000  1.0 0.2070871817
H  H16  1  0.36792000  0.65390000  0.82895000  1.0 0.1009612818
H  H17  1  0.44020000  0.98092000  0.18269000  1.0 0.1009612818
H  H18  1  0.58062000  0.69373000  0.61247000  1.0 0.1273726053
H  H19  1  0.67458000  0.17548000  0.15142000  1.0 0.1208729299
H  H20  1  0.73851000  0.10981000  0.94026000  1.0 0.2070871817
H  H21  1  0.28598000  0.63208000  0.49562000  1.0 0.1009612818
H  H22  1  0.54072000  0.55980000  0.84936000  1.0 0.1009612818
H  H23  1  0.11311000  0.41938000  0.27914000  1.0 0.1273726053
H  H24  1  0.50090000  0.32542000  0.81809000  1.0 0.1208729299
H  H25  1  0.37130000  0.26149000  0.60693000  1.0 0.2070871817
H  H26  1  0.34610000  0.71402000  0.16228000  1.0 0.1009612818
H  H27  1  0.01908000  0.45928000  0.51602000  1.0 0.1009612818
H  H28  1  0.30627000  0.88689000  0.94580000  1.0 0.1273726053
H  H29  1  0.82452000  0.49910000  0.48475000  1.0 0.1208729299
H  H30  1  0.89019000  0.62870000  0.27359000  1.0 0.2070871817
C  C1  1  0.57540000  0.31930000  0.29200000  1.0 0.144996015
C  C2  1  0.44350000  0.22410000  0.25130000  1.0 0.1208729299
C  C3  1  0.50240000  0.98530000  0.65220000  1.0 0.1631418891
C  C4  1  0.38030000  0.94290000  0.53320000  1.0 0.0911704801
C  C5  1  0.36910000  0.14120000  0.26160000  1.0 -0.0626461169
C  C6  1  0.45910000  0.29860000  0.17310000  1.0 -0.072366225
C  C7  1  0.37410000  0.87830000  0.63660000  1.0 -0.0785841766
C  C8  1  0.31270000  0.94270000  0.44090000  1.0 0.0441814824
C  C9  1  0.74390000  0.42460000  0.95867000  1.0 0.145208431
C  C10  1  0.78060000  0.55650000  0.91797000  1.0 0.1208729299
C  C11  1  0.48290000  0.49760000  0.31887000  1.0 0.1631418891
C  C12  1  0.56260000  0.61970000  0.19987000  1.0 0.0911704801
C  C13  1  0.77210000  0.63090000  0.92827000  1.0 -0.0626461169
C  C14  1  0.83950000  0.54090000  0.83977000  1.0 -0.072366225
C  C15  1  0.50420000  0.62590000  0.30327000  1.0 -0.0785841766
C  C16  1  0.63000000  0.68730000  0.10757000  1.0 0.0441814824
C  C17  1  0.68070000  0.25610000  0.62533000  1.0 0.144996015
C  C18  1  0.77590000  0.21940000  0.58463000  1.0 0.1208729299
C  C19  1  0.01470000  0.51710000  0.98553000  1.0 0.1631418891
C  C20  1  0.05710000  0.43740000  0.86653000  1.0 0.0911704801
C  C21  1  0.85880000  0.22790000  0.59493000  1.0 -0.0626461169
C  C22  1  0.70140000  0.16050000  0.50643000  1.0 -0.072366225
C  C23  1  0.12170000  0.49580000  0.96993000  1.0 -0.0785841766
C  C24  1  0.05730000  0.37000000  0.77423000  1.0 0.0441814824
C  C25  1  0.42460000  0.68070000  0.79200000  1.0 0.144996015
C  C26  1  0.55650000  0.77590000  0.75130000  1.0 0.1208729299
C  C27  1  0.49760000  0.01470000  0.15220000  1.0 0.1631418891
C  C28  1  0.61970000  0.05710000  0.03320000  1.0 0.0911704801
C  C29  1  0.63090000  0.85880000  0.76160000  1.0 -0.0626461169
C  C30  1  0.54090000  0.70140000  0.67310000  1.0 -0.072366225
C  C31  1  0.62590000  0.12170000  0.13660000  1.0 -0.0785841766
C  C32  1  0.68730000  0.05730000  0.94090000  1.0 0.0441814824
C  C33  1  0.25610000  0.57540000  0.45867000  1.0 0.144996015
C  C34  1  0.21940000  0.44350000  0.41797000  1.0 0.1208729299
C  C35  1  0.51710000  0.50240000  0.81887000  1.0 0.1631418891
C  C36  1  0.43740000  0.38030000  0.69987000  1.0 0.0911704801
C  C37  1  0.22790000  0.36910000  0.42827000  1.0 -0.0626461169
C  C38  1  0.16050000  0.45910000  0.33977000  1.0 -0.072366225
C  C39  1  0.49580000  0.37410000  0.80327000  1.0 -0.0785841766
C  C40  1  0.37000000  0.31270000  0.60757000  1.0 0.0441814824
C  C41  1  0.31930000  0.74390000  0.12533000  1.0 0.144996015
C  C42  1  0.22410000  0.78060000  0.08463000  1.0 0.1208729299
C  C43  1  0.98530000  0.48290000  0.48553000  1.0 0.1631418891
C  C44  1  0.94290000  0.56260000  0.36653000  1.0 0.0911704801
C  C45  1  0.14120000  0.77210000  0.09493000  1.0 -0.0626461169
C  C46  1  0.29860000  0.83950000  0.00643000  1.0 -0.072366225
C  C47  1  0.87830000  0.50420000  0.46993000  1.0 -0.0785841766
C  C48  1  0.94270000  0.63000000  0.27423000  1.0 0.0441814824
N  N1  1  0.51850000  0.23770000  0.32480000  1.0 -0.3107612007
N  N2  1  0.46400000  0.01150000  0.54330000  1.0 -0.3216540985
N  N3  1  0.38170000  0.07990000  0.34660000  1.0 -0.1563246422
N  N4  1  0.64030000  0.18390000  0.53370000  1.0 -0.2817548188
N  N5  1  0.54830000  0.09270000  0.21290000  1.0 -0.2619778189
N  N6  1  0.31010000  0.00240000  0.35850000  1.0 0.1740876175
N  N7  1  0.22820000  0.97850000  0.30700000  1.0 -0.0993900471
N  N8  1  0.22810000  0.87380000  0.43960000  1.0 -0.2999025655
N  N9  1  0.17910000  0.90140000  0.35200000  1.0 -0.0352723919
N  N10  1  0.71920000  0.48150000  0.99147000  1.0 -0.3107612007
N  N11  1  0.54750000  0.53600000  0.20997000  1.0 -0.3216540985
N  N12  1  0.69820000  0.61830000  0.01327000  1.0 -0.1545865409
N  N13  1  0.54360000  0.35970000  0.20037000  1.0 -0.2817548188
N  N14  1  0.54440000  0.45170000  0.87957000  1.0 -0.2619778189
N  N15  1  0.69230000  0.68990000  0.02517000  1.0 0.1740876175
N  N16  1  0.75030000  0.77180000  0.97367000  1.0 -0.0993900471
N  N17  1  0.64570000  0.77190000  0.10627000  1.0 -0.2999025655
N  N18  1  0.72230000  0.82090000  0.01867000  1.0 -0.0352723919
N  N19  1  0.76230000  0.28080000  0.65813000  1.0 -0.3107612007
N  N20  1  0.98850000  0.45250000  0.87663000  1.0 -0.3216540985
N  N21  1  0.92010000  0.30180000  0.67993000  1.0 -0.1545865409
N  N22  1  0.81610000  0.45640000  0.86703000  1.0 -0.2817548188
N  N23  1  0.90730000  0.45560000  0.54623000  1.0 -0.2619778189
N  N24  1  0.99760000  0.30770000  0.69183000  1.0 0.1753175236
N  N25  1  0.02150000  0.24970000  0.64033000  1.0 -0.0993900471
N  N26  1  0.12620000  0.35430000  0.77293000  1.0 -0.2999025655
N  N27  1  0.09860000  0.27770000  0.68533000  1.0 -0.0343229197
N  N28  1  0.48150000  0.76230000  0.82480000  1.0 -0.3107612007
N  N29  1  0.53600000  0.98850000  0.04330000  1.0 -0.3216540985
N  N30  1  0.61830000  0.92010000  0.84660000  1.0 -0.1563246422
N  N31  1  0.35970000  0.81610000  0.03370000  1.0 -0.2817548188
N  N32  1  0.45170000  0.90730000  0.71290000  1.0 -0.2619778189
N  N33  1  0.68990000  0.99760000  0.85850000  1.0 0.1740876175
N  N34  1  0.77180000  0.02150000  0.80700000  1.0 -0.0993900471
N  N35  1  0.77190000  0.12620000  0.93960000  1.0 -0.2999025655
N  N36  1  0.82090000  0.09860000  0.85200000  1.0 -0.0352723919
N  N37  1  0.28080000  0.51850000  0.49147000  1.0 -0.3107612007
N  N38  1  0.45250000  0.46400000  0.70997000  1.0 -0.3216540985
N  N39  1  0.30180000  0.38170000  0.51327000  1.0 -0.1563246422
N  N40  1  0.45640000  0.64030000  0.70037000  1.0 -0.2817548188
N  N41  1  0.45560000  0.54830000  0.37957000  1.0 -0.2619778189
N  N42  1  0.30770000  0.31010000  0.52517000  1.0 0.1740876175
N  N43  1  0.24970000  0.22820000  0.47367000  1.0 -0.0993900471
N  N44  1  0.35430000  0.22810000  0.60627000  1.0 -0.2999025655
N  N45  1  0.27770000  0.17910000  0.51867000  1.0 -0.0343229197
N  N46  1  0.23770000  0.71920000  0.15813000  1.0 -0.3107612007
N  N47  1  0.01150000  0.54750000  0.37663000  1.0 -0.3216540985
N  N48  1  0.07990000  0.69820000  0.17993000  1.0 -0.1563246422
N  N49  1  0.18390000  0.54360000  0.36703000  1.0 -0.2817548188
N  N50  1  0.09270000  0.54440000  0.04623000  1.0 -0.2619778189
N  N51  1  0.00240000  0.69230000  0.19183000  1.0 0.1740876175
N  N52  1  0.97850000  0.75030000  0.14033000  1.0 -0.0993900471
N  N53  1  0.87380000  0.64570000  0.27293000  1.0 -0.2999025655
N  N54  1  0.90140000  0.72230000  0.18533000  1.0 -0.0352723919
