# DDEC6 charges by PACMAN v1.1 (https://github.com/mtap-research/PACMAN-charge/)
data_ILAXIE_ion_pacman
_symmetry_space_group_name_H-M   'P 1'
_cell_length_a   12.57570000
_cell_length_b   13.47050000
_cell_length_c   14.24080000
_cell_angle_alpha   99.64100000
_cell_angle_beta   95.82300000
_cell_angle_gamma   117.24500000
_symmetry_Int_Tables_number   1
_chemical_formula_structural   CuH42C42N15O7
_chemical_formula_sum   'Cu2 H84 C84 N30 O14'
_cell_volume   2070.35062903
_cell_formula_units_Z   2
loop_
 _symmetry_equiv_pos_site_id
 _symmetry_equiv_pos_as_xyz
  1  'x, y, z'
loop_
 _atom_site_type_symbol
 _atom_site_label
 _atom_site_symmetry_multiplicity
 _atom_site_fract_x
 _atom_site_fract_y
 _atom_site_fract_z
 _atom_site_occupancy
 _atom_site_charge
Cu  Cu1  1  0.00000000  0.50000000  0.50000000  1.0 0.6930304976
Cu  Cu2  1  0.50000000  0.00000000  0.00000000  1.0 0.5065408559
H  H1  1  0.84490000  0.21820000  0.10840000  1.0 0.0803086155
H  H2  1  0.15510000  0.78180000  0.89160000  1.0 0.0803086155
H  H3  1  0.74040000  0.21570000  0.87750000  1.0 0.1299336241
H  H4  1  0.25960000  0.78430000  0.12250000  1.0 0.1299336241
H  H5  1  0.87480000  0.26840000  0.85430000  1.0 0.1196952286
H  H6  1  0.12520000  0.73160000  0.14570000  1.0 0.1196952286
H  H7  1  0.82400000  0.35220000  0.89710000  1.0 0.1106418165
H  H8  1  0.17600000  0.64780000  0.10290000  1.0 0.1106418165
H  H9  1  0.02350000  0.35580000  0.10360000  1.0 0.0803086155
H  H10  1  0.97650000  0.64420000  0.89640000  1.0 0.0803086155
H  H11  1  0.00460000  0.44790000  0.05660000  1.0 0.1196952286
H  H12  1  0.99540000  0.55210000  0.94340000  1.0 0.1196952286
H  H13  1  0.05420000  0.37060000  0.99890000  1.0 0.102993974
H  H14  1  0.94580000  0.62940000  0.00110000  1.0 0.1106418165
H  H15  1  0.85240000  0.39560000  0.30270000  1.0 0.3154275628
H  H16  1  0.14760000  0.60440000  0.69730000  1.0 0.3154275628
H  H17  1  0.89770000  0.32410000  0.32110000  1.0 0.2874511393
H  H18  1  0.10230000  0.67590000  0.67890000  1.0 0.2874511393
H  H19  1  0.90570000  0.62700000  0.35870000  1.0 0.1196952286
H  H20  1  0.09430000  0.37300000  0.64130000  1.0 0.1196952286
H  H21  1  0.87440000  0.61100000  0.62760000  1.0 0.1196952286
H  H22  1  0.12560000  0.38900000  0.37240000  1.0 0.1196952286
H  H23  1  0.96080000  0.90100000  0.56260000  1.0 0.1196952286
H  H24  1  0.03920000  0.09900000  0.43740000  1.0 0.1196952286
H  H25  1  0.03800000  0.09630000  0.61360000  1.0 0.1106418165
H  H26  1  0.96200000  0.90370000  0.38640000  1.0 0.1106418165
H  H27  1  0.92290000  0.17300000  0.68780000  1.0 0.1196952286
H  H28  1  0.07710000  0.82700000  0.31220000  1.0 0.1196952286
H  H29  1  0.73510000  0.05280000  0.71610000  1.0 0.1196952286
H  H30  1  0.26490000  0.94720000  0.28390000  1.0 0.1196952286
H  H31  1  0.43650000  0.65980000  0.73910000  1.0 0.1196952286
H  H32  1  0.56350000  0.34020000  0.26090000  1.0 0.1196952286
H  H33  1  0.37310000  0.46620000  0.70920000  1.0 0.1196952286
H  H34  1  0.62690000  0.53380000  0.29080000  1.0 0.1196952286
H  H35  1  0.47020000  0.38650000  0.61300000  1.0 0.1106418165
H  H36  1  0.52980000  0.61350000  0.38700000  1.0 0.1106418165
H  H37  1  0.63820000  0.50250000  0.55800000  1.0 0.1196952286
H  H38  1  0.36180000  0.49750000  0.44200000  1.0 0.1196952286
H  H39  1  0.66620000  0.94160000  0.87810000  1.0 0.1196952286
H  H40  1  0.33380000  0.05840000  0.12190000  1.0 0.1196952286
H  H41  1  0.33890000  0.88940000  0.77420000  1.0 0.102993974
H  H42  1  0.66110000  0.11060000  0.22580000  1.0 0.102993974
H  H43  1  0.41550000  0.73370000  0.95620000  1.0 0.1299336241
H  H44  1  0.58450000  0.26630000  0.04380000  1.0 0.1299336241
H  H45  1  0.70740000  0.98090000  0.14110000  1.0 0.102993974
H  H46  1  0.29260000  0.01910000  0.85890000  1.0 0.102993974
H  H47  1  0.69120000  0.73570000  0.92380000  1.0 0.1196952286
H  H48  1  0.30880000  0.26430000  0.07620000  1.0 0.1196952286
H  H49  1  0.78720000  0.67360000  0.81900000  1.0 0.1106418165
H  H50  1  0.21280000  0.32640000  0.18100000  1.0 0.1106418165
H  H51  1  0.74040000  0.47910000  0.78200000  1.0 0.1196952286
H  H52  1  0.25960000  0.52090000  0.21800000  1.0 0.1196952286
H  H53  1  0.59860000  0.34800000  0.84840000  1.0 0.1196952286
H  H54  1  0.40140000  0.65200000  0.15160000  1.0 0.1196952286
H  H55  1  0.44340000  0.74050000  0.36030000  1.0 0.1196952286
H  H56  1  0.55660000  0.25950000  0.63970000  1.0 0.1196952286
H  H57  1  0.62010000  0.77250000  0.30720000  1.0 0.1196952286
H  H58  1  0.37990000  0.22750000  0.69280000  1.0 0.1196952286
H  H59  1  0.79270000  0.95800000  0.35070000  1.0 0.1196952286
H  H60  1  0.20730000  0.04200000  0.64930000  1.0 0.1196952286
H  H61  1  0.78910000  0.10800000  0.45090000  1.0 0.1106418165
H  H62  1  0.21090000  0.89200000  0.54910000  1.0 0.1106418165
H  H63  1  0.07890000  0.57930000  0.30230000  1.0 0.1196952286
H  H64  1  0.92110000  0.42070000  0.69770000  1.0 0.1196952286
H  H65  1  0.26470000  0.72670000  0.57090000  1.0 0.1106418165
H  H66  1  0.73530000  0.27330000  0.42910000  1.0 0.1106418165
H  H67  1  0.84470000  0.11820000  0.05200000  1.0 0.0875293823
H  H68  1  0.15530000  0.88180000  0.94800000  1.0 0.0875293823
H  H69  1  0.72280000  0.21750000  0.87900000  1.0 0.1196952286
H  H70  1  0.27720000  0.78250000  0.12100000  1.0 0.1196952286
H  H71  1  0.85180000  0.31290000  0.86530000  1.0 0.1106418165
H  H72  1  0.14820000  0.68710000  0.13470000  1.0 0.1106418165
H  H73  1  0.79970000  0.33640000  0.95970000  1.0 0.102993974
H  H74  1  0.20030000  0.66360000  0.04030000  1.0 0.102993974
H  H75  1  0.03270000  0.24530000  0.01470000  1.0 0.1196952286
H  H76  1  0.96730000  0.75470000  0.98530000  1.0 0.1196952286
H  H77  1  0.03820000  0.33660000  0.95370000  1.0 0.102993974
H  H78  1  0.96180000  0.66340000  0.04630000  1.0 0.102993974
H  H79  1  0.99290000  0.20600000  0.89860000  1.0 0.1384946728
H  H80  1  0.00710000  0.79400000  0.10140000  1.0 0.1384946728
H  H81  1  0.54080000  0.94530000  0.44860000  1.0 0.102993974
H  H82  1  0.45920000  0.05470000  0.55140000  1.0 0.102993974
H  H83  1  0.32980000  0.81780000  0.45560000  1.0 0.1959489198
H  H84  1  0.67020000  0.18220000  0.54440000  1.0 0.1959489198
C  C1  1  0.55770000  0.46150000  0.93250000  1.0 0.0306175146
C  C2  1  0.44230000  0.53850000  0.06750000  1.0 0.0306175146
C  C3  1  0.80580000  0.20950000  0.04460000  1.0 0.1566993208
C  C4  1  0.19420000  0.79050000  0.95540000  1.0 0.1566993208
C  C5  1  0.82420000  0.27970000  0.89840000  1.0 -0.2682840316
C  C6  1  0.17580000  0.72030000  0.10160000  1.0 -0.2682840316
C  C7  1  0.99940000  0.37190000  0.04280000  1.0 -0.3155222325
C  C8  1  0.00060000  0.62810000  0.95720000  1.0 -0.3155222325
C  C9  1  0.88440000  0.63660000  0.42040000  1.0 0.1549244882
C  C10  1  0.11560000  0.36340000  0.57960000  1.0 0.1549244882
C  C11  1  0.86920000  0.62670000  0.56520000  1.0 0.0803086155
C  C12  1  0.13080000  0.37330000  0.43480000  1.0 0.0803086155
C  C13  1  0.80040000  0.85300000  0.61410000  1.0 0.0223394436
C  C14  1  0.19960000  0.14700000  0.38590000  1.0 0.0223394436
C  C15  1  0.91530000  0.93050000  0.59540000  1.0 -0.147257456
C  C16  1  0.08470000  0.06950000  0.40460000  1.0 -0.147257456
C  C17  1  0.95990000  0.04570000  0.62410000  1.0 -0.0698197162
C  C18  1  0.04010000  0.95430000  0.37590000  1.0 -0.0698197162
C  C19  1  0.89130000  0.09200000  0.66960000  1.0 -0.0996777925
C  C20  1  0.10870000  0.90800000  0.33040000  1.0 -0.0996777925
C  C21  1  0.78110000  0.02110000  0.68710000  1.0 -0.1793860583
C  C22  1  0.21890000  0.97890000  0.31290000  1.0 -0.1793860583
C  C23  1  0.73330000  0.89980000  0.66280000  1.0 0.0223394436
C  C24  1  0.26670000  0.10020000  0.33720000  1.0 0.0223394436
C  C25  1  0.62580000  0.82280000  0.68760000  1.0 0.067572272
C  C26  1  0.37420000  0.17720000  0.31240000  1.0 0.067572272
C  C27  1  0.58200000  0.70470000  0.66900000  1.0 0.0107772356
C  C28  1  0.41800000  0.29530000  0.33100000  1.0 0.0107772356
C  C29  1  0.47890000  0.62930000  0.70300000  1.0 -0.1214267997
C  C30  1  0.52110000  0.37070000  0.29700000  1.0 -0.1214267997
C  C31  1  0.44040000  0.51490000  0.68440000  1.0 -0.0772461532
C  C32  1  0.55960000  0.48510000  0.31560000  1.0 -0.0772461532
C  C33  1  0.50010000  0.46730000  0.62810000  1.0 -0.0772461532
C  C34  1  0.49990000  0.53270000  0.37190000  1.0 -0.0772461532
C  C35  1  0.59930000  0.53600000  0.59550000  1.0 -0.1579823433
C  C36  1  0.40070000  0.46400000  0.40450000  1.0 -0.1579823433
C  C37  1  0.64670000  0.65770000  0.61650000  1.0 0.0028756955
C  C38  1  0.35330000  0.34230000  0.38350000  1.0 0.0028756955
C  C39  1  0.75250000  0.73380000  0.58970000  1.0 0.0306175146
C  C40  1  0.24750000  0.26620000  0.41030000  1.0 0.0306175146
C  C41  1  0.59170000  0.91990000  0.83580000  1.0 0.0488935565
C  C42  1  0.40830000  0.08010000  0.16420000  1.0 0.0488935565
C  C43  1  0.41540000  0.89060000  0.77790000  1.0 0.1299336241
C  C44  1  0.58460000  0.10940000  0.22210000  1.0 0.1299336241
C  C45  1  0.48980000  0.77530000  0.00320000  1.0 0.0803086155
C  C46  1  0.51020000  0.22470000  0.99680000  1.0 0.0803086155
C  C47  1  0.64780000  0.90670000  0.10330000  1.0 0.1299336241
C  C48  1  0.35220000  0.09330000  0.89670000  1.0 0.1299336241
C  C49  1  0.52600000  0.61260000  0.02090000  1.0 0.067572272
C  C50  1  0.47400000  0.38740000  0.97910000  1.0 0.067572272
C  C51  1  0.58500000  0.57920000  0.95530000  1.0 0.0223394436
C  C52  1  0.41500000  0.42080000  0.04470000  1.0 0.0223394436
C  C53  1  0.67240000  0.65720000  0.91000000  1.0 -0.1214267997
C  C54  1  0.32760000  0.34280000  0.09000000  1.0 -0.1214267997
C  C55  1  0.72850000  0.62070000  0.84800000  1.0 -0.0871044932
C  C56  1  0.27150000  0.37930000  0.15200000  1.0 -0.0871044932
C  C57  1  0.70010000  0.50350000  0.82580000  1.0 -0.1214267997
C  C58  1  0.29990000  0.49650000  0.17420000  1.0 -0.1214267997
C  C59  1  0.61730000  0.42630000  0.86540000  1.0 -0.1579823433
C  C60  1  0.38270000  0.57370000  0.13460000  1.0 -0.1579823433
C  C61  1  0.39930000  0.89230000  0.47361000  1.0 -0.0772461532
C  C62  1  0.60070000  0.10770000  0.52639000  1.0 -0.0772461532
C  C63  1  0.50310000  0.90590000  0.43920000  1.0 -0.0342354341
C  C64  1  0.49690000  0.09410000  0.56080000  1.0 -0.0342354341
C  C65  1  0.51210000  0.81560000  0.37890000  1.0 -0.1793860583
C  C66  1  0.48790000  0.18440000  0.62110000  1.0 -0.1793860583
C  C67  1  0.61660000  0.83430000  0.34740000  1.0 -0.0996777925
C  C68  1  0.38340000  0.16570000  0.65260000  1.0 -0.0996777925
C  C69  1  0.72060000  0.94570000  0.37410000  1.0 -0.0996777925
C  C70  1  0.27940000  0.05430000  0.62590000  1.0 -0.0996777925
C  C71  1  0.71800000  0.03460000  0.43260000  1.0 -0.1579823433
C  C72  1  0.28200000  0.96540000  0.56740000  1.0 -0.1579823433
C  C73  1  0.61030000  0.01980000  0.46716000  1.0 -0.0627219932
C  C74  1  0.38970000  0.98020000  0.53284000  1.0 -0.0627219932
C  C75  1  0.13960000  0.63350000  0.35710000  1.0 0.0803086155
C  C76  1  0.86040000  0.36650000  0.64290000  1.0 0.0803086155
C  C77  1  0.23760000  0.71070000  0.50270000  1.0 0.0306175146
C  C78  1  0.76240000  0.28930000  0.49730000  1.0 0.0306175146
C  C79  1  0.80760000  0.15290000  0.01780000  1.0 0.1196952286
C  C80  1  0.19240000  0.84710000  0.98220000  1.0 0.1196952286
C  C81  1  0.80510000  0.27760000  0.91280000  1.0 -0.2682840316
C  C82  1  0.19490000  0.72240000  0.08720000  1.0 -0.2682840316
C  C83  1  0.99320000  0.25610000  0.95720000  1.0 -0.1214267997
C  C84  1  0.00680000  0.74390000  0.04280000  1.0 -0.1214267997
N  N1  1  0.87360000  0.28410000  0.99660000  1.0 0.2112805681
N  N2  1  0.12640000  0.71590000  0.00340000  1.0 0.2112805681
N  N3  1  0.91250000  0.59262000  0.49309000  1.0 -0.3071928112
N  N4  1  0.08750000  0.40738000  0.50691000  1.0 -0.3071928112
N  N5  1  0.82560000  0.69310000  0.44308000  1.0 -0.2472394197
N  N6  1  0.17440000  0.30690000  0.55692000  1.0 -0.2472394197
N  N7  1  0.81720000  0.68650000  0.53693000  1.0 0.1384946728
N  N8  1  0.18280000  0.31350000  0.46307000  1.0 0.1384946728
N  N9  1  0.56160000  0.86833000  0.74203000  1.0 0.1106418165
N  N10  1  0.43840000  0.13167000  0.25797000  1.0 0.1106418165
N  N11  1  0.44710000  0.84790000  0.70288000  1.0 -0.2682840316
N  N12  1  0.55290000  0.15210000  0.29712000  1.0 -0.2682840316
N  N13  1  0.50150000  0.93671000  0.86154000  1.0 -0.3575725047
N  N14  1  0.49850000  0.06329000  0.13846000  1.0 -0.3575725047
N  N15  1  0.54790000  0.88810000  0.04052000  1.0 -0.3495493917
N  N16  1  0.45210000  0.11190000  0.95948000  1.0 -0.3495493917
N  N17  1  0.55200000  0.73020000  0.04195000  1.0 0.1299336241
N  N18  1  0.44800000  0.26980000  0.95805000  1.0 0.1299336241
N  N19  1  0.65450000  0.81350000  0.10680000  1.0 -0.2314988165
N  N20  1  0.34550000  0.18650000  0.89320000  1.0 -0.2314988165
N  N21  1  0.13840000  0.61746000  0.44910000  1.0 -0.3279066174
N  N22  1  0.86160000  0.38254000  0.55090000  1.0 -0.3279066174
N  N23  1  0.23160000  0.73020000  0.35061000  1.0 -0.2829570411
N  N24  1  0.76840000  0.26980000  0.64939000  1.0 -0.2829570411
N  N25  1  0.29230000  0.77759000  0.44478000  1.0 0.0803086155
N  N26  1  0.70770000  0.22241000  0.55522000  1.0 0.0803086155
N  N27  1  0.86670000  0.22650000  0.96430000  1.0 0.1832905075
N  N28  1  0.13330000  0.77350000  0.03570000  1.0 0.1832905075
N  N29  1  0.19890000  0.52470000  0.84310000  1.0 0.1832905075
N  N30  1  0.80110000  0.47530000  0.15690000  1.0 0.1851373525
O  O1  1  0.70370000  0.13370000  0.01930000  1.0 -0.2563406615
O  O2  1  0.29630000  0.86630000  0.98070000  1.0 -0.2563406615
O  O3  1  0.90500000  0.39050000  0.34102000  1.0 -0.7124925046
O  O4  1  0.09500000  0.60950000  0.65898000  1.0 -0.7124925046
O  O5  1  0.04440000  0.07620000  0.90010000  1.0 -0.3653640537
O  O6  1  0.95560000  0.92380000  0.09990000  1.0 -0.3575725047
O  O7  1  0.00910000  0.13940000  0.96380000  1.0 -0.1272431849
O  O8  1  0.99090000  0.86060000  0.03620000  1.0 -0.1272431849
O  O9  1  0.24950000  0.61580000  0.81562000  1.0 -0.4104834585
O  O10  1  0.09370000  0.44740000  0.80234000  1.0 -0.4418692379
O  O11  1  0.25390000  0.51140000  0.90960000  1.0 -0.3776191263
O  O12  1  0.75050000  0.38420000  0.18438000  1.0 -0.4104834585
O  O13  1  0.90630000  0.55260000  0.19766000  1.0 -0.4418692379
O  O14  1  0.74610000  0.48860000  0.09040000  1.0 -0.3776191263
