# DDEC6 charges by PACMAN v1.1 (https://github.com/mtap-research/PACMAN-charge/)
data_ILITUT_ASR_pacman
_symmetry_space_group_name_H-M   'P 1'
_cell_length_a   16.66440000
_cell_length_b   16.66440000
_cell_length_c   27.85300000
_cell_angle_alpha   90.00000000
_cell_angle_beta   90.00000000
_cell_angle_gamma   90.02430000
_symmetry_Int_Tables_number   1
_chemical_formula_structural   Co3H48C70(N3O4)2
_chemical_formula_sum   'Co6 H96 C140 N12 O16'
_cell_volume   7734.83944301
_cell_formula_units_Z   2
loop_
 _symmetry_equiv_pos_site_id
 _symmetry_equiv_pos_as_xyz
  1  'x, y, z'
loop_
 _atom_site_type_symbol
 _atom_site_label
 _atom_site_symmetry_multiplicity
 _atom_site_fract_x
 _atom_site_fract_y
 _atom_site_fract_z
 _atom_site_occupancy
 _atom_site_charge
Co  Co1  1  0.53757000  0.46243000  0.25000000  1.0 0.6016182574
Co  Co2  1  0.46243000  0.53757000  0.75000000  1.0 0.6016182574
Co  Co3  1  0.03813000  0.96187000  0.30098000  1.0 0.8277326199
Co  Co4  1  0.96187000  0.03813000  0.80098000  1.0 0.8277326199
Co  Co5  1  0.96187000  0.03813000  0.69902000  1.0 0.8277326199
Co  Co6  1  0.03813000  0.96187000  0.19902000  1.0 0.8277326199
H  H1  1  0.61020000  0.16440000  0.25000000  1.0 0.1309004589
H  H2  1  0.38980000  0.83560000  0.75000000  1.0 0.1309004589
H  H3  1  0.16440000  0.61020000  0.75000000  1.0 0.1309004589
H  H4  1  0.83560000  0.38980000  0.25000000  1.0 0.1309004589
H  H5  1  0.46500000  0.16660000  0.25000000  1.0 0.1309004589
H  H6  1  0.53500000  0.83340000  0.75000000  1.0 0.1309004589
H  H7  1  0.16660000  0.46500000  0.75000000  1.0 0.1309004589
H  H8  1  0.83340000  0.53500000  0.25000000  1.0 0.1309004589
H  H9  1  0.24100000  0.39080000  0.25000000  1.0 0.1309004589
H  H10  1  0.75900000  0.60920000  0.75000000  1.0 0.1309004589
H  H11  1  0.39080000  0.24100000  0.75000000  1.0 0.1309004589
H  H12  1  0.60920000  0.75900000  0.25000000  1.0 0.1309004589
H  H13  1  0.24470000  0.53910000  0.25000000  1.0 0.1309004589
H  H14  1  0.75530000  0.46090000  0.75000000  1.0 0.1309004589
H  H15  1  0.53910000  0.24470000  0.75000000  1.0 0.1309004589
H  H16  1  0.46090000  0.75530000  0.25000000  1.0 0.1309004589
H  H17  1  0.75610000  0.24390000  0.32220000  1.0 0.1199109756
H  H18  1  0.24390000  0.75610000  0.82220000  1.0 0.1199109756
H  H19  1  0.24390000  0.75610000  0.67780000  1.0 0.1199109756
H  H20  1  0.75610000  0.24390000  0.17780000  1.0 0.1199109756
H  H21  1  0.85450000  0.14550000  0.32190000  1.0 0.1199109756
H  H22  1  0.14550000  0.85450000  0.82190000  1.0 0.1199109756
H  H23  1  0.14550000  0.85450000  0.67810000  1.0 0.1199109756
H  H24  1  0.85450000  0.14550000  0.17810000  1.0 0.1199109756
H  H25  1  0.31480000  0.24800000  0.17850000  1.0 0.1199109756
H  H26  1  0.68520000  0.75200000  0.67850000  1.0 0.1199109756
H  H27  1  0.24800000  0.31480000  0.82150000  1.0 0.1199109756
H  H28  1  0.75200000  0.68520000  0.32150000  1.0 0.1199109756
H  H29  1  0.68520000  0.75200000  0.82150000  1.0 0.1199109756
H  H30  1  0.31480000  0.24800000  0.32150000  1.0 0.1199109756
H  H31  1  0.75200000  0.68520000  0.17850000  1.0 0.1199109756
H  H32  1  0.24800000  0.31480000  0.67850000  1.0 0.1199109756
H  H33  1  0.21610000  0.15170000  0.17880000  1.0 0.1309004589
H  H34  1  0.78390000  0.84830000  0.67880000  1.0 0.1309004589
H  H35  1  0.15170000  0.21610000  0.82120000  1.0 0.1309004589
H  H36  1  0.84830000  0.78390000  0.32120000  1.0 0.1309004589
H  H37  1  0.78390000  0.84830000  0.82120000  1.0 0.1309004589
H  H38  1  0.21610000  0.15170000  0.32120000  1.0 0.1309004589
H  H39  1  0.84830000  0.78390000  0.17880000  1.0 0.1309004589
H  H40  1  0.15170000  0.21610000  0.67880000  1.0 0.1309004589
H  H41  1  0.31810000  0.68190000  0.32130000  1.0 0.1199109756
H  H42  1  0.68190000  0.31810000  0.82130000  1.0 0.1199109756
H  H43  1  0.68190000  0.31810000  0.67870000  1.0 0.1199109756
H  H44  1  0.31810000  0.68190000  0.17870000  1.0 0.1199109756
H  H45  1  0.22180000  0.77820000  0.32050000  1.0 0.1309004589
H  H46  1  0.77820000  0.22180000  0.82050000  1.0 0.1309004589
H  H47  1  0.77820000  0.22180000  0.67950000  1.0 0.1309004589
H  H48  1  0.22180000  0.77820000  0.17950000  1.0 0.1309004589
H  H49  1  0.00760000  0.87360000  0.47460000  1.0 0.1036010963
H  H50  1  0.99240000  0.12640000  0.97460000  1.0 0.1036010963
H  H51  1  0.87360000  0.00760000  0.52540000  1.0 0.1036010963
H  H52  1  0.12640000  0.99240000  0.02540000  1.0 0.1036010963
H  H53  1  0.99240000  0.12640000  0.52540000  1.0 0.1036010963
H  H54  1  0.00760000  0.87360000  0.02540000  1.0 0.1036010963
H  H55  1  0.12640000  0.99240000  0.47460000  1.0 0.1036010963
H  H56  1  0.87360000  0.00760000  0.97460000  1.0 0.1036010963
H  H57  1  0.89240000  0.00920000  0.45110000  1.0 0.1036010963
H  H58  1  0.10760000  0.99080000  0.95110000  1.0 0.1036010963
H  H59  1  0.00920000  0.89240000  0.54890000  1.0 0.1036010963
H  H60  1  0.99080000  0.10760000  0.04890000  1.0 0.1036010963
H  H61  1  0.10760000  0.99080000  0.54890000  1.0 0.1036010963
H  H62  1  0.89240000  0.00920000  0.04890000  1.0 0.1036010963
H  H63  1  0.99080000  0.10760000  0.45110000  1.0 0.1036010963
H  H64  1  0.00920000  0.89240000  0.95110000  1.0 0.1036010963
H  H65  1  0.91350000  0.97730000  0.37220000  1.0 0.1199109756
H  H66  1  0.08650000  0.02270000  0.87220000  1.0 0.1199109756
H  H67  1  0.97730000  0.91350000  0.62780000  1.0 0.1199109756
H  H68  1  0.02270000  0.08650000  0.12780000  1.0 0.1199109756
H  H69  1  0.08650000  0.02270000  0.62780000  1.0 0.1199109756
H  H70  1  0.91350000  0.97730000  0.12780000  1.0 0.1199109756
H  H71  1  0.02270000  0.08650000  0.37220000  1.0 0.1199109756
H  H72  1  0.97730000  0.91350000  0.87220000  1.0 0.1199109756
H  H73  1  0.04220000  0.82100000  0.35370000  1.0 0.1385739344
H  H74  1  0.95780000  0.17900000  0.85370000  1.0 0.1385739344
H  H75  1  0.82100000  0.04220000  0.64630000  1.0 0.1385739344
H  H76  1  0.17900000  0.95780000  0.14630000  1.0 0.1385739344
H  H77  1  0.95780000  0.17900000  0.64630000  1.0 0.1385739344
H  H78  1  0.04220000  0.82100000  0.14630000  1.0 0.1385739344
H  H79  1  0.17900000  0.95780000  0.35370000  1.0 0.1385739344
H  H80  1  0.82100000  0.04220000  0.85370000  1.0 0.1385739344
H  H81  1  0.08100000  0.79740000  0.40300000  1.0 0.1385739344
H  H82  1  0.91900000  0.20260000  0.90300000  1.0 0.1385739344
H  H83  1  0.79740000  0.08100000  0.59700000  1.0 0.1385739344
H  H84  1  0.20260000  0.91900000  0.09700000  1.0 0.1385739344
H  H85  1  0.91900000  0.20260000  0.59700000  1.0 0.1385739344
H  H86  1  0.08100000  0.79740000  0.09700000  1.0 0.1385739344
H  H87  1  0.20260000  0.91900000  0.40300000  1.0 0.1385739344
H  H88  1  0.79740000  0.08100000  0.90300000  1.0 0.1385739344
H  H89  1  0.98780000  0.79080000  0.39590000  1.0 0.1309004589
H  H90  1  0.01220000  0.20920000  0.89590000  1.0 0.1309004589
H  H91  1  0.79080000  0.98780000  0.60410000  1.0 0.1309004589
H  H92  1  0.20920000  0.01220000  0.10410000  1.0 0.1309004589
H  H93  1  0.01220000  0.20920000  0.60410000  1.0 0.1309004589
H  H94  1  0.98780000  0.79080000  0.10410000  1.0 0.1309004589
H  H95  1  0.20920000  0.01220000  0.39590000  1.0 0.1309004589
H  H96  1  0.79080000  0.98780000  0.89590000  1.0 0.1309004589
C  C1  1  0.60800000  0.29500000  0.25000000  1.0 0.184006276
C  C2  1  0.39200000  0.70500000  0.75000000  1.0 0.1875385333
C  C3  1  0.29500000  0.60800000  0.75000000  1.0 0.184006276
C  C4  1  0.70500000  0.39200000  0.25000000  1.0 0.184006276
C  C5  1  0.57840000  0.21020000  0.25000000  1.0 -0.1511008195
C  C6  1  0.42160000  0.78980000  0.75000000  1.0 -0.1511008195
C  C7  1  0.21020000  0.57840000  0.75000000  1.0 -0.1511008195
C  C8  1  0.78980000  0.42160000  0.25000000  1.0 -0.1511008195
C  C9  1  0.49780000  0.21180000  0.25000000  1.0 -0.1712735546
C  C10  1  0.50220000  0.78820000  0.75000000  1.0 -0.1712735546
C  C11  1  0.21180000  0.49780000  0.75000000  1.0 -0.1712735546
C  C12  1  0.78820000  0.50220000  0.25000000  1.0 -0.1712735546
C  C13  1  0.46950000  0.29370000  0.25000000  1.0 0.1875385333
C  C14  1  0.53050000  0.70630000  0.75000000  1.0 0.1875385333
C  C15  1  0.29370000  0.46950000  0.75000000  1.0 0.1875385333
C  C16  1  0.70630000  0.53050000  0.25000000  1.0 0.1875385333
C  C17  1  0.39300000  0.31600000  0.25000000  1.0 -0.0795683686
C  C18  1  0.60700000  0.68400000  0.75000000  1.0 -0.0795683686
C  C19  1  0.31600000  0.39300000  0.75000000  1.0 -0.0795683686
C  C20  1  0.68400000  0.60700000  0.25000000  1.0 -0.0795683686
C  C21  1  0.36800000  0.40020000  0.25000000  1.0 0.2094613734
C  C22  1  0.63200000  0.59980000  0.75000000  1.0 0.2094613734
C  C23  1  0.40020000  0.36800000  0.75000000  1.0 0.2094613734
C  C24  1  0.59980000  0.63200000  0.25000000  1.0 0.2094613734
C  C25  1  0.28600000  0.42380000  0.25000000  1.0 -0.2103727003
C  C26  1  0.71400000  0.57620000  0.75000000  1.0 -0.2103727003
C  C27  1  0.42380000  0.28600000  0.75000000  1.0 -0.2103727003
C  C28  1  0.57620000  0.71400000  0.25000000  1.0 -0.2103727003
C  C29  1  0.28810000  0.50390000  0.25000000  1.0 -0.2103727003
C  C30  1  0.71190000  0.49610000  0.75000000  1.0 -0.2103727003
C  C31  1  0.50390000  0.28810000  0.75000000  1.0 -0.2103727003
C  C32  1  0.49610000  0.71190000  0.25000000  1.0 -0.2103727003
C  C33  1  0.36910000  0.52350000  0.25000000  1.0 0.1875385333
C  C34  1  0.63090000  0.47650000  0.75000000  1.0 0.1875385333
C  C35  1  0.52350000  0.36910000  0.75000000  1.0 0.1875385333
C  C36  1  0.47650000  0.63090000  0.25000000  1.0 0.1875385333
C  C37  1  0.68360000  0.31640000  0.25000000  1.0 -0.0985475002
C  C38  1  0.31640000  0.68360000  0.75000000  1.0 -0.0985475002
C  C39  1  0.74640000  0.25360000  0.25000000  1.0 0.0878202898
C  C40  1  0.25360000  0.74640000  0.75000000  1.0 0.0878202898
C  C41  1  0.77580000  0.22420000  0.29330000  1.0 -0.1712735546
C  C42  1  0.22420000  0.77580000  0.79330000  1.0 -0.1712735546
C  C43  1  0.22420000  0.77580000  0.70670000  1.0 -0.1712735546
C  C44  1  0.77580000  0.22420000  0.20670000  1.0 -0.1712735546
C  C45  1  0.83480000  0.16520000  0.29300000  1.0 -0.0985475002
C  C46  1  0.16520000  0.83480000  0.79300000  1.0 -0.0985475002
C  C47  1  0.16520000  0.83480000  0.70700000  1.0 -0.0985475002
C  C48  1  0.83480000  0.16520000  0.20700000  1.0 -0.0985475002
C  C49  1  0.86450000  0.13550000  0.25000000  1.0 -0.0565755282
C  C50  1  0.13550000  0.86450000  0.75000000  1.0 -0.0565755282
C  C51  1  0.92720000  0.07280000  0.25000000  1.0 0.5792061064
C  C52  1  0.07280000  0.92720000  0.75000000  1.0 0.5792061064
C  C53  1  0.32940000  0.25400000  0.25000000  1.0 0.0878202898
C  C54  1  0.67060000  0.74600000  0.75000000  1.0 0.0878202898
C  C55  1  0.25400000  0.32940000  0.75000000  1.0 0.0878202898
C  C56  1  0.74600000  0.67060000  0.25000000  1.0 0.0878202898
C  C57  1  0.29680000  0.22720000  0.20750000  1.0 -0.1511008195
C  C58  1  0.70320000  0.77280000  0.70750000  1.0 -0.1511008195
C  C59  1  0.22720000  0.29680000  0.79250000  1.0 -0.1511008195
C  C60  1  0.77280000  0.70320000  0.29250000  1.0 -0.1511008195
C  C61  1  0.70320000  0.77280000  0.79250000  1.0 -0.1511008195
C  C62  1  0.29680000  0.22720000  0.29250000  1.0 -0.1511008195
C  C63  1  0.77280000  0.70320000  0.20750000  1.0 -0.1511008195
C  C64  1  0.22720000  0.29680000  0.70750000  1.0 -0.1511008195
C  C65  1  0.23740000  0.16900000  0.20790000  1.0 -0.0985475002
C  C66  1  0.76260000  0.83100000  0.70790000  1.0 -0.0985475002
C  C67  1  0.16900000  0.23740000  0.79210000  1.0 -0.0985475002
C  C68  1  0.83100000  0.76260000  0.29210000  1.0 -0.0985475002
C  C69  1  0.76260000  0.83100000  0.79210000  1.0 -0.0985475002
C  C70  1  0.23740000  0.16900000  0.29210000  1.0 -0.0985475002
C  C71  1  0.83100000  0.76260000  0.20790000  1.0 -0.0985475002
C  C72  1  0.16900000  0.23740000  0.70790000  1.0 -0.0985475002
C  C73  1  0.20860000  0.13580000  0.25000000  1.0 -0.0565755282
C  C74  1  0.79140000  0.86420000  0.75000000  1.0 -0.0565755282
C  C75  1  0.13580000  0.20860000  0.75000000  1.0 -0.0565755282
C  C76  1  0.86420000  0.79140000  0.25000000  1.0 -0.0565755282
C  C77  1  0.14800000  0.07140000  0.25000000  1.0 0.5626008086
C  C78  1  0.85200000  0.92860000  0.75000000  1.0 0.5626008086
C  C79  1  0.07140000  0.14800000  0.75000000  1.0 0.5626008086
C  C80  1  0.92860000  0.85200000  0.25000000  1.0 0.5626008086
C  C81  1  0.39640000  0.60360000  0.25000000  1.0 -0.0795683686
C  C82  1  0.60360000  0.39640000  0.75000000  1.0 -0.0795683686
C  C83  1  0.33250000  0.66750000  0.25000000  1.0 0.0878202898
C  C84  1  0.66750000  0.33250000  0.75000000  1.0 0.0878202898
C  C85  1  0.29960000  0.70040000  0.29180000  1.0 -0.1612843749
C  C86  1  0.70040000  0.29960000  0.79180000  1.0 -0.1612843749
C  C87  1  0.70040000  0.29960000  0.70820000  1.0 -0.1612843749
C  C88  1  0.29960000  0.70040000  0.20820000  1.0 -0.1612843749
C  C89  1  0.24090000  0.75910000  0.29130000  1.0 -0.1104804559
C  C90  1  0.75910000  0.24090000  0.79130000  1.0 -0.1104804559
C  C91  1  0.75910000  0.24090000  0.70870000  1.0 -0.1104804559
C  C92  1  0.24090000  0.75910000  0.20870000  1.0 -0.1104804559
C  C93  1  0.20940000  0.79060000  0.25000000  1.0 -0.0307127488
C  C94  1  0.79060000  0.20940000  0.75000000  1.0 -0.0307127488
C  C95  1  0.14600000  0.85400000  0.25000000  1.0 0.5626008086
C  C96  1  0.85400000  0.14600000  0.75000000  1.0 0.5626008086
C  C97  1  0.02510000  0.90690000  0.40540000  1.0 0.1309004589
C  C98  1  0.97490000  0.09310000  0.90540000  1.0 0.1309004589
C  C99  1  0.90690000  0.02510000  0.59460000  1.0 0.1309004589
C  C100  1  0.09310000  0.97490000  0.09460000  1.0 0.1309004589
C  C101  1  0.97490000  0.09310000  0.59460000  1.0 0.1309004589
C  C102  1  0.02510000  0.90690000  0.09460000  1.0 0.1309004589
C  C103  1  0.09310000  0.97490000  0.40540000  1.0 0.1309004589
C  C104  1  0.90690000  0.02510000  0.90540000  1.0 0.1309004589
C  C105  1  0.01210000  0.91790000  0.45450000  1.0 -0.1341345163
C  C106  1  0.98790000  0.08210000  0.95450000  1.0 -0.135367724
C  C107  1  0.91790000  0.01210000  0.54550000  1.0 -0.1341345163
C  C108  1  0.08210000  0.98790000  0.04550000  1.0 -0.1341345163
C  C109  1  0.98790000  0.08210000  0.54550000  1.0 -0.1341345163
C  C110  1  0.01210000  0.91790000  0.04550000  1.0 -0.1341345163
C  C111  1  0.08210000  0.98790000  0.45450000  1.0 -0.1341345163
C  C112  1  0.91790000  0.01210000  0.95450000  1.0 -0.135367724
C  C113  1  0.00590000  0.99410000  0.47320000  1.0 0.0497908156
C  C114  1  0.99410000  0.00590000  0.97320000  1.0 0.0497908156
C  C115  1  0.99410000  0.00590000  0.52680000  1.0 0.0497908156
C  C116  1  0.00590000  0.99410000  0.02680000  1.0 0.0497908156
C  C117  1  0.94390000  0.99650000  0.44070000  1.0 -0.1104804559
C  C118  1  0.05610000  0.00350000  0.94070000  1.0 -0.1104804559
C  C119  1  0.99650000  0.94390000  0.55930000  1.0 -0.1104804559
C  C120  1  0.00350000  0.05610000  0.05930000  1.0 -0.1104804559
C  C121  1  0.05610000  0.00350000  0.55930000  1.0 -0.1104804559
C  C122  1  0.94390000  0.99650000  0.05930000  1.0 -0.1104804559
C  C123  1  0.00350000  0.05610000  0.44070000  1.0 -0.1104804559
C  C124  1  0.99650000  0.94390000  0.94070000  1.0 -0.1104804559
C  C125  1  0.95720000  0.98040000  0.39280000  1.0 -0.005781345
C  C126  1  0.04280000  0.01960000  0.89280000  1.0 -0.004705411
C  C127  1  0.98040000  0.95720000  0.60720000  1.0 -0.004705411
C  C128  1  0.01960000  0.04280000  0.10720000  1.0 -0.005781345
C  C129  1  0.04280000  0.01960000  0.60720000  1.0 -0.004705411
C  C130  1  0.95720000  0.98040000  0.10720000  1.0 -0.005781345
C  C131  1  0.01960000  0.04280000  0.39280000  1.0 -0.005781345
C  C132  1  0.98040000  0.95720000  0.89280000  1.0 -0.004705411
C  C133  1  0.03490000  0.82110000  0.38790000  1.0 -0.5143618611
C  C134  1  0.96510000  0.17890000  0.88790000  1.0 -0.5143618611
C  C135  1  0.82110000  0.03490000  0.61210000  1.0 -0.5143618611
C  C136  1  0.17890000  0.96510000  0.11210000  1.0 -0.517301423
C  C137  1  0.96510000  0.17890000  0.61210000  1.0 -0.5143618611
C  C138  1  0.03490000  0.82110000  0.11210000  1.0 -0.517301423
C  C139  1  0.17890000  0.96510000  0.38790000  1.0 -0.5143618611
C  C140  1  0.82110000  0.03490000  0.88790000  1.0 -0.5143618611
N  N1  1  0.53710000  0.34330000  0.25000000  1.0 -0.3929950324
N  N2  1  0.46290000  0.65670000  0.75000000  1.0 -0.3929950324
N  N3  1  0.34330000  0.53710000  0.75000000  1.0 -0.3929950324
N  N4  1  0.65670000  0.46290000  0.25000000  1.0 -0.3929950324
N  N5  1  0.41380000  0.46160000  0.25000000  1.0 -0.2902821851
N  N6  1  0.58620000  0.53840000  0.75000000  1.0 -0.2902821851
N  N7  1  0.46160000  0.41380000  0.75000000  1.0 -0.2902821851
N  N8  1  0.53840000  0.58620000  0.25000000  1.0 -0.2902821851
N  N9  1  0.03050000  0.96950000  0.37510000  1.0 -0.0795683686
N  N10  1  0.96950000  0.03050000  0.87510000  1.0 -0.0795683686
N  N11  1  0.96950000  0.03050000  0.62490000  1.0 -0.0795683686
N  N12  1  0.03050000  0.96950000  0.12490000  1.0 -0.0795683686
O  O1  1  0.95390000  0.04610000  0.28955000  1.0 -0.5710978535
O  O2  1  0.04610000  0.95390000  0.78955000  1.0 -0.5710978535
O  O3  1  0.04610000  0.95390000  0.71045000  1.0 -0.5710978535
O  O4  1  0.95390000  0.04610000  0.21045000  1.0 -0.5710978535
O  O5  1  0.12201000  0.04895000  0.21034000  1.0 -0.5348791507
O  O6  1  0.87799000  0.95105000  0.71034000  1.0 -0.5348791507
O  O7  1  0.04895000  0.12201000  0.78966000  1.0 -0.5348791507
O  O8  1  0.95105000  0.87799000  0.28966000  1.0 -0.5355577496
O  O9  1  0.87799000  0.95105000  0.78966000  1.0 -0.5355577496
O  O10  1  0.12201000  0.04895000  0.28966000  1.0 -0.5348791507
O  O11  1  0.95105000  0.87799000  0.21034000  1.0 -0.5355577496
O  O12  1  0.04895000  0.12201000  0.71034000  1.0 -0.5348791507
O  O13  1  0.12270000  0.87730000  0.28960000  1.0 -0.517301423
O  O14  1  0.87730000  0.12270000  0.78960000  1.0 -0.517301423
O  O15  1  0.87730000  0.12270000  0.71040000  1.0 -0.517301423
O  O16  1  0.12270000  0.87730000  0.21040000  1.0 -0.517301423
