# DDEC6 charges by PACMAN v1.1 (https://github.com/mtap-research/PACMAN-charge/)
data_ILUFUR_FSR_pacman
_symmetry_space_group_name_H-M   'P 1'
_cell_length_a   15.28800000
_cell_length_b   15.28800000
_cell_length_c   15.57100000
_cell_angle_alpha   90.00000000
_cell_angle_beta   90.00000000
_cell_angle_gamma   120.00000000
_symmetry_Int_Tables_number   1
_chemical_formula_structural   Tb2Co3H42C42(NO5)6
_chemical_formula_sum   'Tb4 Co6 H84 C84 N12 O60'
_cell_volume   3151.72621824
_cell_formula_units_Z   2
loop_
 _symmetry_equiv_pos_site_id
 _symmetry_equiv_pos_as_xyz
  1  'x, y, z'
loop_
 _atom_site_type_symbol
 _atom_site_label
 _atom_site_symmetry_multiplicity
 _atom_site_fract_x
 _atom_site_fract_y
 _atom_site_fract_z
 _atom_site_occupancy
 _atom_site_charge
Tb  Tb1  1  0.66666667  0.33333333  0.25000000  1.0 1.852368502
Tb  Tb2  1  0.33333333  0.66666667  0.25000000  1.0 1.852368502
Tb  Tb3  1  0.33333333  0.66666667  0.75000000  1.0 1.852368502
Tb  Tb4  1  0.66666667  0.33333333  0.75000000  1.0 1.852368502
Co  Co1  1  0.50000000  0.00000000  0.50000000  1.0 1.0424889209
Co  Co2  1  0.00000000  0.50000000  0.50000000  1.0 1.0424889209
Co  Co3  1  0.50000000  0.50000000  0.50000000  1.0 1.0424889209
Co  Co4  1  0.00000000  0.50000000  0.00000000  1.0 1.0424889209
Co  Co5  1  0.50000000  0.00000000  0.00000000  1.0 1.0424889209
Co  Co6  1  0.50000000  0.50000000  0.00000000  1.0 1.0424889209
H  H1  1  0.76713000  0.05413000  0.34510000  1.0 0.1418148658
H  H2  1  0.94587000  0.71300000  0.34510000  1.0 0.1418148658
H  H3  1  0.28700000  0.23287000  0.34510000  1.0 0.1418148658
H  H4  1  0.23287000  0.94587000  0.34510000  1.0 0.1418148658
H  H5  1  0.05413000  0.28700000  0.34510000  1.0 0.1418148658
H  H6  1  0.71300000  0.76713000  0.34510000  1.0 0.1418148658
H  H7  1  0.05413000  0.76713000  0.15490000  1.0 0.1418148658
H  H8  1  0.71300000  0.94587000  0.15490000  1.0 0.1418148658
H  H9  1  0.23287000  0.28700000  0.15490000  1.0 0.1418148658
H  H10  1  0.94587000  0.23287000  0.15490000  1.0 0.1418148658
H  H11  1  0.28700000  0.05413000  0.15490000  1.0 0.1418148658
H  H12  1  0.76713000  0.71300000  0.15490000  1.0 0.1418148658
H  H13  1  0.23287000  0.94587000  0.65490000  1.0 0.1418148658
H  H14  1  0.05413000  0.28700000  0.65490000  1.0 0.1418148658
H  H15  1  0.71300000  0.76713000  0.65490000  1.0 0.1418148658
H  H16  1  0.76713000  0.05413000  0.65490000  1.0 0.1418148658
H  H17  1  0.94587000  0.71300000  0.65490000  1.0 0.1418148658
H  H18  1  0.28700000  0.23287000  0.65490000  1.0 0.1418148658
H  H19  1  0.94587000  0.23287000  0.84510000  1.0 0.1418148658
H  H20  1  0.28700000  0.05413000  0.84510000  1.0 0.1418148658
H  H21  1  0.76713000  0.71300000  0.84510000  1.0 0.1418148658
H  H22  1  0.05413000  0.76713000  0.84510000  1.0 0.1418148658
H  H23  1  0.71300000  0.94587000  0.84510000  1.0 0.1418148658
H  H24  1  0.23287000  0.28700000  0.84510000  1.0 0.1418148658
H  H25  1  0.90065000  0.09935000  0.25000000  1.0 0.1103930157
H  H26  1  0.90065000  0.80130000  0.25000000  1.0 0.1103930157
H  H27  1  0.19870000  0.09935000  0.25000000  1.0 0.1103930157
H  H28  1  0.09935000  0.90065000  0.25000000  1.0 0.1103930157
H  H29  1  0.09935000  0.19870000  0.25000000  1.0 0.1103930157
H  H30  1  0.80130000  0.90065000  0.25000000  1.0 0.1103930157
H  H31  1  0.09935000  0.90065000  0.75000000  1.0 0.1103930157
H  H32  1  0.09935000  0.19870000  0.75000000  1.0 0.1103930157
H  H33  1  0.80130000  0.90065000  0.75000000  1.0 0.1103930157
H  H34  1  0.90065000  0.09935000  0.75000000  1.0 0.1103930157
H  H35  1  0.90065000  0.80130000  0.75000000  1.0 0.1103930157
H  H36  1  0.19870000  0.09935000  0.75000000  1.0 0.1103930157
H  H37  1  0.47583000  0.81573000  0.46730000  1.0 0.1659864479
H  H38  1  0.18427000  0.66010000  0.46730000  1.0 0.1659864479
H  H39  1  0.33990000  0.52417000  0.46730000  1.0 0.1659864479
H  H40  1  0.52417000  0.18427000  0.46730000  1.0 0.1659864479
H  H41  1  0.81573000  0.33990000  0.46730000  1.0 0.1659864479
H  H42  1  0.66010000  0.47583000  0.46730000  1.0 0.1659864479
H  H43  1  0.81573000  0.47583000  0.03270000  1.0 0.1659864479
H  H44  1  0.66010000  0.18427000  0.03270000  1.0 0.1659864479
H  H45  1  0.52417000  0.33990000  0.03270000  1.0 0.1659864479
H  H46  1  0.18427000  0.52417000  0.03270000  1.0 0.1659864479
H  H47  1  0.33990000  0.81573000  0.03270000  1.0 0.1659864479
H  H48  1  0.47583000  0.66010000  0.03270000  1.0 0.1659864479
H  H49  1  0.52417000  0.18427000  0.53270000  1.0 0.1659864479
H  H50  1  0.81573000  0.33990000  0.53270000  1.0 0.1659864479
H  H51  1  0.66010000  0.47583000  0.53270000  1.0 0.1659864479
H  H52  1  0.47583000  0.81573000  0.53270000  1.0 0.1659864479
H  H53  1  0.18427000  0.66010000  0.53270000  1.0 0.1659864479
H  H54  1  0.33990000  0.52417000  0.53270000  1.0 0.1659864479
H  H55  1  0.18427000  0.52417000  0.96730000  1.0 0.1659864479
H  H56  1  0.33990000  0.81573000  0.96730000  1.0 0.1659864479
H  H57  1  0.47583000  0.66010000  0.96730000  1.0 0.1659864479
H  H58  1  0.81573000  0.47583000  0.96730000  1.0 0.1659864479
H  H59  1  0.66010000  0.18427000  0.96730000  1.0 0.1659864479
H  H60  1  0.52417000  0.33990000  0.96730000  1.0 0.1659864479
H  H61  1  0.55593000  0.86133000  0.53270000  1.0 0.1338441475
H  H62  1  0.13867000  0.69460000  0.53270000  1.0 0.1338441475
H  H63  1  0.30540000  0.44407000  0.53270000  1.0 0.1338441475
H  H64  1  0.44407000  0.13867000  0.53270000  1.0 0.1338441475
H  H65  1  0.86133000  0.30540000  0.53270000  1.0 0.1338441475
H  H66  1  0.69460000  0.55593000  0.53270000  1.0 0.1338441475
H  H67  1  0.86133000  0.55593000  0.96730000  1.0 0.1338441475
H  H68  1  0.69460000  0.13867000  0.96730000  1.0 0.1338441475
H  H69  1  0.44407000  0.30540000  0.96730000  1.0 0.1338441475
H  H70  1  0.13867000  0.44407000  0.96730000  1.0 0.1338441475
H  H71  1  0.30540000  0.86133000  0.96730000  1.0 0.1338441475
H  H72  1  0.55593000  0.69460000  0.96730000  1.0 0.1338441475
H  H73  1  0.44407000  0.13867000  0.46730000  1.0 0.1338441475
H  H74  1  0.86133000  0.30540000  0.46730000  1.0 0.1338441475
H  H75  1  0.69460000  0.55593000  0.46730000  1.0 0.1338441475
H  H76  1  0.55593000  0.86133000  0.46730000  1.0 0.1338441475
H  H77  1  0.13867000  0.69460000  0.46730000  1.0 0.1338441475
H  H78  1  0.30540000  0.44407000  0.46730000  1.0 0.1338441475
H  H79  1  0.13867000  0.44407000  0.03270000  1.0 0.1338441475
H  H80  1  0.30540000  0.86133000  0.03270000  1.0 0.1338441475
H  H81  1  0.55593000  0.69460000  0.03270000  1.0 0.1338441475
H  H82  1  0.86133000  0.55593000  0.03270000  1.0 0.1338441475
H  H83  1  0.69460000  0.13867000  0.03270000  1.0 0.1338441475
H  H84  1  0.44407000  0.30540000  0.03270000  1.0 0.1338441475
C  C1  1  0.64583000  0.13703000  0.36130000  1.0 0.5595709365
C  C2  1  0.86297000  0.50880000  0.36130000  1.0 0.5595709365
C  C3  1  0.49120000  0.35417000  0.36130000  1.0 0.5595709365
C  C4  1  0.35417000  0.86297000  0.36130000  1.0 0.5595709365
C  C5  1  0.13703000  0.49120000  0.36130000  1.0 0.5595709365
C  C6  1  0.50880000  0.64583000  0.36130000  1.0 0.5595709365
C  C7  1  0.13703000  0.64583000  0.13870000  1.0 0.5595709365
C  C8  1  0.50880000  0.86297000  0.13870000  1.0 0.5595709365
C  C9  1  0.35417000  0.49120000  0.13870000  1.0 0.5595709365
C  C10  1  0.86297000  0.35417000  0.13870000  1.0 0.5595709365
C  C11  1  0.49120000  0.13703000  0.13870000  1.0 0.5595709365
C  C12  1  0.64583000  0.50880000  0.13870000  1.0 0.5595709365
C  C13  1  0.35417000  0.86297000  0.63870000  1.0 0.5595709365
C  C14  1  0.13703000  0.49120000  0.63870000  1.0 0.5595709365
C  C15  1  0.50880000  0.64583000  0.63870000  1.0 0.5595709365
C  C16  1  0.64583000  0.13703000  0.63870000  1.0 0.5595709365
C  C17  1  0.86297000  0.50880000  0.63870000  1.0 0.5595709365
C  C18  1  0.49120000  0.35417000  0.63870000  1.0 0.5595709365
C  C19  1  0.86297000  0.35417000  0.86130000  1.0 0.5595709365
C  C20  1  0.49120000  0.13703000  0.86130000  1.0 0.5595709365
C  C21  1  0.64583000  0.50880000  0.86130000  1.0 0.5595709365
C  C22  1  0.13703000  0.64583000  0.86130000  1.0 0.5595709365
C  C23  1  0.50880000  0.86297000  0.86130000  1.0 0.5595709365
C  C24  1  0.35417000  0.49120000  0.86130000  1.0 0.5595709365
C  C25  1  0.73483000  0.16093000  0.30380000  1.0 0.1338441475
C  C26  1  0.83907000  0.57390000  0.30380000  1.0 0.1338441475
C  C27  1  0.42610000  0.26517000  0.30380000  1.0 0.1338441475
C  C28  1  0.26517000  0.83907000  0.30380000  1.0 0.1338441475
C  C29  1  0.16093000  0.42610000  0.30380000  1.0 0.1338441475
C  C30  1  0.57390000  0.73483000  0.30380000  1.0 0.1338441475
C  C31  1  0.16093000  0.73483000  0.19620000  1.0 0.1338441475
C  C32  1  0.57390000  0.83907000  0.19620000  1.0 0.1338441475
C  C33  1  0.26517000  0.42610000  0.19620000  1.0 0.1338441475
C  C34  1  0.83907000  0.26517000  0.19620000  1.0 0.1338441475
C  C35  1  0.42610000  0.16093000  0.19620000  1.0 0.1338441475
C  C36  1  0.73483000  0.57390000  0.19620000  1.0 0.1338441475
C  C37  1  0.26517000  0.83907000  0.69620000  1.0 0.1338441475
C  C38  1  0.16093000  0.42610000  0.69620000  1.0 0.1338441475
C  C39  1  0.57390000  0.73483000  0.69620000  1.0 0.1338441475
C  C40  1  0.73483000  0.16093000  0.69620000  1.0 0.1338441475
C  C41  1  0.83907000  0.57390000  0.69620000  1.0 0.1338441475
C  C42  1  0.42610000  0.26517000  0.69620000  1.0 0.1338441475
C  C43  1  0.83907000  0.26517000  0.80380000  1.0 0.1338441475
C  C44  1  0.42610000  0.16093000  0.80380000  1.0 0.1338441475
C  C45  1  0.73483000  0.57390000  0.80380000  1.0 0.1338441475
C  C46  1  0.16093000  0.73483000  0.80380000  1.0 0.1338441475
C  C47  1  0.57390000  0.83907000  0.80380000  1.0 0.1338441475
C  C48  1  0.26517000  0.42610000  0.80380000  1.0 0.1338441475
C  C49  1  0.78593000  0.10703000  0.30650000  1.0 -0.1453963983
C  C50  1  0.89297000  0.67890000  0.30650000  1.0 -0.1453963983
C  C51  1  0.32110000  0.21407000  0.30650000  1.0 -0.1453963983
C  C52  1  0.21407000  0.89297000  0.30650000  1.0 -0.1453963983
C  C53  1  0.10703000  0.32110000  0.30650000  1.0 -0.1453963983
C  C54  1  0.67890000  0.78593000  0.30650000  1.0 -0.1453963983
C  C55  1  0.10703000  0.78593000  0.19350000  1.0 -0.1453963983
C  C56  1  0.67890000  0.89297000  0.19350000  1.0 -0.1453963983
C  C57  1  0.21407000  0.32110000  0.19350000  1.0 -0.1453963983
C  C58  1  0.89297000  0.21407000  0.19350000  1.0 -0.1453963983
C  C59  1  0.32110000  0.10703000  0.19350000  1.0 -0.1453963983
C  C60  1  0.78593000  0.67890000  0.19350000  1.0 -0.1453963983
C  C61  1  0.21407000  0.89297000  0.69350000  1.0 -0.1453963983
C  C62  1  0.10703000  0.32110000  0.69350000  1.0 -0.1453963983
C  C63  1  0.67890000  0.78593000  0.69350000  1.0 -0.1453963983
C  C64  1  0.78593000  0.10703000  0.69350000  1.0 -0.1453963983
C  C65  1  0.89297000  0.67890000  0.69350000  1.0 -0.1453963983
C  C66  1  0.32110000  0.21407000  0.69350000  1.0 -0.1453963983
C  C67  1  0.89297000  0.21407000  0.80650000  1.0 -0.1453963983
C  C68  1  0.32110000  0.10703000  0.80650000  1.0 -0.1453963983
C  C69  1  0.78593000  0.67890000  0.80650000  1.0 -0.1453963983
C  C70  1  0.10703000  0.78593000  0.80650000  1.0 -0.1453963983
C  C71  1  0.67890000  0.89297000  0.80650000  1.0 -0.1453963983
C  C72  1  0.21407000  0.32110000  0.80650000  1.0 -0.1453963983
C  C73  1  0.86555000  0.13445000  0.25000000  1.0 -0.0621910691
C  C74  1  0.86555000  0.73110000  0.25000000  1.0 -0.0621910691
C  C75  1  0.26890000  0.13445000  0.25000000  1.0 -0.0621910691
C  C76  1  0.13445000  0.86555000  0.25000000  1.0 -0.0621910691
C  C77  1  0.13445000  0.26890000  0.25000000  1.0 -0.0621910691
C  C78  1  0.73110000  0.86555000  0.25000000  1.0 -0.0621910691
C  C79  1  0.13445000  0.86555000  0.75000000  1.0 -0.0621910691
C  C80  1  0.13445000  0.26890000  0.75000000  1.0 -0.0621910691
C  C81  1  0.73110000  0.86555000  0.75000000  1.0 -0.0621910691
C  C82  1  0.86555000  0.13445000  0.75000000  1.0 -0.0621910691
C  C83  1  0.86555000  0.73110000  0.75000000  1.0 -0.0621910691
C  C84  1  0.26890000  0.13445000  0.75000000  1.0 -0.0621910691
N  N1  1  0.76119000  0.23881000  0.25000000  1.0 -0.3602878171
N  N2  1  0.76119000  0.52238000  0.25000000  1.0 -0.3602878171
N  N3  1  0.47762000  0.23881000  0.25000000  1.0 -0.3602878171
N  N4  1  0.23881000  0.76119000  0.25000000  1.0 -0.3602878171
N  N5  1  0.23881000  0.47762000  0.25000000  1.0 -0.3602878171
N  N6  1  0.52238000  0.76119000  0.25000000  1.0 -0.3602878171
N  N7  1  0.23881000  0.76119000  0.75000000  1.0 -0.3602878171
N  N8  1  0.23881000  0.47762000  0.75000000  1.0 -0.3602878171
N  N9  1  0.52238000  0.76119000  0.75000000  1.0 -0.3602878171
N  N10  1  0.76119000  0.23881000  0.75000000  1.0 -0.3602878171
N  N11  1  0.76119000  0.52238000  0.75000000  1.0 -0.3602878171
N  N12  1  0.47762000  0.23881000  0.75000000  1.0 -0.3602878171
O  O1  1  0.61113000  0.19823000  0.35663000  1.0 -0.6119428966
O  O2  1  0.80177000  0.41290000  0.35663000  1.0 -0.6119428966
O  O3  1  0.58710000  0.38887000  0.35663000  1.0 -0.6119428966
O  O4  1  0.38887000  0.80177000  0.35663000  1.0 -0.6119428966
O  O5  1  0.19823000  0.58710000  0.35663000  1.0 -0.6119428966
O  O6  1  0.41290000  0.61113000  0.35663000  1.0 -0.6119428966
O  O7  1  0.19823000  0.61113000  0.14337000  1.0 -0.6119428966
O  O8  1  0.41290000  0.80177000  0.14337000  1.0 -0.6119428966
O  O9  1  0.38887000  0.58710000  0.14337000  1.0 -0.6119428966
O  O10  1  0.80177000  0.38887000  0.14337000  1.0 -0.6119428966
O  O11  1  0.58710000  0.19823000  0.14337000  1.0 -0.6119428966
O  O12  1  0.61113000  0.41290000  0.14337000  1.0 -0.6119428966
O  O13  1  0.38887000  0.80177000  0.64337000  1.0 -0.6119428966
O  O14  1  0.19823000  0.58710000  0.64337000  1.0 -0.6119428966
O  O15  1  0.41290000  0.61113000  0.64337000  1.0 -0.6119428966
O  O16  1  0.61113000  0.19823000  0.64337000  1.0 -0.6119428966
O  O17  1  0.80177000  0.41290000  0.64337000  1.0 -0.6119428966
O  O18  1  0.58710000  0.38887000  0.64337000  1.0 -0.6119428966
O  O19  1  0.80177000  0.38887000  0.85663000  1.0 -0.6119428966
O  O20  1  0.58710000  0.19823000  0.85663000  1.0 -0.6119428966
O  O21  1  0.61113000  0.41290000  0.85663000  1.0 -0.6119428966
O  O22  1  0.19823000  0.61113000  0.85663000  1.0 -0.6119428966
O  O23  1  0.41290000  0.80177000  0.85663000  1.0 -0.6119428966
O  O24  1  0.38887000  0.58710000  0.85663000  1.0 -0.6119428966
O  O25  1  0.61333000  0.06043000  0.40760000  1.0 -0.5460283476
O  O26  1  0.93957000  0.55290000  0.40760000  1.0 -0.5460283476
O  O27  1  0.44710000  0.38667000  0.40760000  1.0 -0.5460283476
O  O28  1  0.38667000  0.93957000  0.40760000  1.0 -0.5460283476
O  O29  1  0.06043000  0.44710000  0.40760000  1.0 -0.5460283476
O  O30  1  0.55290000  0.61333000  0.40760000  1.0 -0.5460283476
O  O31  1  0.06043000  0.61333000  0.09240000  1.0 -0.5460283476
O  O32  1  0.55290000  0.93957000  0.09240000  1.0 -0.5460283476
O  O33  1  0.38667000  0.44710000  0.09240000  1.0 -0.5460283476
O  O34  1  0.93957000  0.38667000  0.09240000  1.0 -0.5460283476
O  O35  1  0.44710000  0.06043000  0.09240000  1.0 -0.5460283476
O  O36  1  0.61333000  0.55290000  0.09240000  1.0 -0.5460283476
O  O37  1  0.38667000  0.93957000  0.59240000  1.0 -0.5460283476
O  O38  1  0.06043000  0.44710000  0.59240000  1.0 -0.5460283476
O  O39  1  0.55290000  0.61333000  0.59240000  1.0 -0.5460283476
O  O40  1  0.61333000  0.06043000  0.59240000  1.0 -0.5460283476
O  O41  1  0.93957000  0.55290000  0.59240000  1.0 -0.5460283476
O  O42  1  0.44710000  0.38667000  0.59240000  1.0 -0.5460283476
O  O43  1  0.93957000  0.38667000  0.90760000  1.0 -0.5460283476
O  O44  1  0.44710000  0.06043000  0.90760000  1.0 -0.5460283476
O  O45  1  0.61333000  0.55290000  0.90760000  1.0 -0.5460283476
O  O46  1  0.06043000  0.61333000  0.90760000  1.0 -0.5460283476
O  O47  1  0.55290000  0.93957000  0.90760000  1.0 -0.5460283476
O  O48  1  0.38667000  0.44710000  0.90760000  1.0 -0.5460283476
O  O49  1  0.51323000  0.86493000  0.50000000  1.0 -0.4900005627
O  O50  1  0.13507000  0.64830000  0.50000000  1.0 -0.4900005627
O  O51  1  0.35170000  0.48677000  0.50000000  1.0 -0.4900005627
O  O52  1  0.48677000  0.13507000  0.50000000  1.0 -0.4900005627
O  O53  1  0.86493000  0.35170000  0.50000000  1.0 -0.4900005627
O  O54  1  0.64830000  0.51323000  0.50000000  1.0 -0.4900005627
O  O55  1  0.86493000  0.51323000  0.00000000  1.0 -0.4900005627
O  O56  1  0.64830000  0.13507000  0.00000000  1.0 -0.4900005627
O  O57  1  0.48677000  0.35170000  0.00000000  1.0 -0.4900005627
O  O58  1  0.13507000  0.48677000  0.00000000  1.0 -0.4900005627
O  O59  1  0.35170000  0.86493000  0.00000000  1.0 -0.4900005627
O  O60  1  0.51323000  0.64830000  0.00000000  1.0 -0.4900005627
