# DDEC6 charges by PACMAN v1.1 (https://github.com/mtap-research/PACMAN-charge/)
data_ILUFEB_FSR_pacman
_symmetry_space_group_name_H-M   'P 1'
_cell_length_a   13.78190000
_cell_length_b   15.16750000
_cell_length_c   15.16900000
_cell_angle_alpha   73.92400000
_cell_angle_beta   75.93900000
_cell_angle_gamma   67.01700000
_symmetry_Int_Tables_number   1
_chemical_formula_structural   Cd3H112C92(Se2N21)2
_chemical_formula_sum   'Cd3 H112 C92 Se4 N42'
_cell_volume   2772.25202328
_cell_formula_units_Z   1
loop_
 _symmetry_equiv_pos_site_id
 _symmetry_equiv_pos_as_xyz
  1  'x, y, z'
loop_
 _atom_site_type_symbol
 _atom_site_label
 _atom_site_symmetry_multiplicity
 _atom_site_fract_x
 _atom_site_fract_y
 _atom_site_fract_z
 _atom_site_occupancy
 _atom_site_charge
Cd  Cd1  1  0.00000000  0.00000000  0.50000000  1.0 0.6756093548
Cd  Cd2  1  0.80901000  0.19559000  0.30767000  1.0 0.6905609416
Cd  Cd3  1  0.19099000  0.80441000  0.69233000  1.0 0.6905609416
H  H1  1  0.85430000  0.12100000  0.98270000  1.0 0.0817888334
H  H2  1  0.14570000  0.87900000  0.01730000  1.0 0.0817888334
H  H3  1  0.93260000  0.29210000  0.08320000  1.0 0.0817888334
H  H4  1  0.06740000  0.70790000  0.91680000  1.0 0.0817888334
H  H5  1  0.81420000  0.09990000  0.67130000  1.0 0.0920780839
H  H6  1  0.18580000  0.90010000  0.32870000  1.0 0.0920780839
H  H7  1  0.62820000  0.29310000  0.49230000  1.0 0.1083072802
H  H8  1  0.37180000  0.70690000  0.50770000  1.0 0.1083072802
H  H9  1  0.33380000  0.46200000  0.60240000  1.0 0.1083072802
H  H10  1  0.66620000  0.53800000  0.39760000  1.0 0.1083072802
H  H11  1  0.36210000  0.57950000  0.79300000  1.0 0.0998774304
H  H12  1  0.63790000  0.42050000  0.20700000  1.0 0.0998774304
H  H13  1  0.56800000  0.39920000  0.60810000  1.0 0.1083072802
H  H14  1  0.43200000  0.60080000  0.39190000  1.0 0.1083072802
H  H15  1  0.49340000  0.33550000  0.62340000  1.0 0.0998774304
H  H16  1  0.50660000  0.66450000  0.37660000  1.0 0.0998774304
H  H17  1  0.37510000  0.35470000  0.85980000  1.0 0.0998774304
H  H18  1  0.62490000  0.64530000  0.14020000  1.0 0.0998774304
H  H19  1  0.37970000  0.30620000  0.77640000  1.0 0.0998774304
H  H20  1  0.62030000  0.69380000  0.22360000  1.0 0.0998774304
H  H21  1  0.48650000  0.18490000  0.88980000  1.0 0.0706610186
H  H22  1  0.51350000  0.81510000  0.11020000  1.0 0.0706610186
H  H23  1  0.53250000  0.17400000  0.72700000  1.0 0.0998774304
H  H24  1  0.46750000  0.82600000  0.27300000  1.0 0.0998774304
H  H25  1  0.63760000  0.12480000  0.77610000  1.0 0.0998774304
H  H26  1  0.36240000  0.87520000  0.22390000  1.0 0.0998774304
H  H27  1  0.75910000  0.22570000  0.75440000  1.0 0.0920780839
H  H28  1  0.24090000  0.77430000  0.24560000  1.0 0.0920780839
H  H29  1  0.72950000  0.33240000  0.68820000  1.0 0.0998774304
H  H30  1  0.27050000  0.66760000  0.31180000  1.0 0.0998774304
H  H31  1  0.67800000  0.34650000  0.84800000  1.0 0.0605983086
H  H32  1  0.32200000  0.65350000  0.15200000  1.0 0.0605983086
H  H33  1  0.49860000  0.45450000  0.83760000  1.0 0.0998774304
H  H34  1  0.50140000  0.54550000  0.16240000  1.0 0.0998774304
H  H35  1  0.57130000  0.47150000  0.73880000  1.0 0.0998774304
H  H36  1  0.42870000  0.52850000  0.26120000  1.0 0.0998774304
H  H37  1  0.54080000  0.28680000  0.94090000  1.0 0.0920780839
H  H38  1  0.45920000  0.71320000  0.05910000  1.0 0.0920780839
H  H39  1  0.64180000  0.19750000  0.90920000  1.0 0.0817888334
H  H40  1  0.35820000  0.80250000  0.09080000  1.0 0.0817888334
H  H41  1  0.80220000  0.90530000  0.61710000  1.0 0.115652631
H  H42  1  0.19780000  0.09470000  0.38290000  1.0 0.115652631
H  H43  1  0.99750000  0.69970000  0.78070000  1.0 0.1083072802
H  H44  1  0.00250000  0.30030000  0.21930000  1.0 0.1083072802
H  H45  1  0.40230000  0.73230000  0.81350000  1.0 0.0998774304
H  H46  1  0.59770000  0.26770000  0.18650000  1.0 0.0998774304
H  H47  1  0.54660000  0.87640000  0.60070000  1.0 0.1083072802
H  H48  1  0.45340000  0.12360000  0.39930000  1.0 0.1083072802
H  H49  1  0.66270000  0.86350000  0.70270000  1.0 0.0998774304
H  H50  1  0.33730000  0.13650000  0.29730000  1.0 0.0998774304
H  H51  1  0.71240000  0.76780000  0.65800000  1.0 0.0998774304
H  H52  1  0.28760000  0.23220000  0.34200000  1.0 0.0998774304
H  H53  1  0.53690000  0.86480000  0.85250000  1.0 0.1083072802
H  H54  1  0.46310000  0.13520000  0.14750000  1.0 0.1083072802
H  H55  1  0.50370000  0.77080000  0.90420000  1.0 0.0920780839
H  H56  1  0.49630000  0.22920000  0.09580000  1.0 0.0920780839
H  H57  1  0.63450000  0.77650000  0.98120000  1.0 0.0706610186
H  H58  1  0.36550000  0.22350000  0.01880000  1.0 0.0706610186
H  H59  1  0.80840000  0.76250000  0.89690000  1.0 0.0920780839
H  H60  1  0.19160000  0.23750000  0.10310000  1.0 0.0920780839
H  H61  1  0.72200000  0.85990000  0.84960000  1.0 0.0998774304
H  H62  1  0.27800000  0.14010000  0.15040000  1.0 0.0998774304
H  H63  1  0.84630000  0.61690000  0.73210000  1.0 0.0998774304
H  H64  1  0.15370000  0.38310000  0.26790000  1.0 0.0998774304
H  H65  1  0.88580000  0.61400000  0.82450000  1.0 0.0998774304
H  H66  1  0.11420000  0.38600000  0.17550000  1.0 0.0998774304
H  H67  1  0.75990000  0.53110000  0.86530000  1.0 0.0605983086
H  H68  1  0.24010000  0.46890000  0.13470000  1.0 0.0605983086
H  H69  1  0.58170000  0.61930000  0.83320000  1.0 0.0998774304
H  H70  1  0.41830000  0.38070000  0.16680000  1.0 0.0998774304
H  H71  1  0.66340000  0.61960000  0.73750000  1.0 0.1083072802
H  H72  1  0.33660000  0.38040000  0.26250000  1.0 0.1083072802
H  H73  1  0.75860000  0.61590000  0.97730000  1.0 0.0920780839
H  H74  1  0.24140000  0.38410000  0.02270000  1.0 0.0920780839
H  H75  1  0.64040000  0.61800000  0.98120000  1.0 0.0920780839
H  H76  1  0.35960000  0.38200000  0.01880000  1.0 0.0920780839
H  H77  1  0.99050000  0.19290000  0.59590000  1.0 0.115652631
H  H78  1  0.00950000  0.80710000  0.40410000  1.0 0.115652631
H  H79  1  0.17100000  0.99410000  0.77610000  1.0 0.1083072802
H  H80  1  0.82900000  0.00590000  0.22390000  1.0 0.1083072802
H  H81  1  0.92590000  0.17680000  0.84050000  1.0 0.0998774304
H  H82  1  0.07410000  0.82320000  0.15950000  1.0 0.0998774304
H  H83  1  0.03200000  0.10580000  0.88380000  1.0 0.0920780839
H  H84  1  0.96800000  0.89420000  0.11620000  1.0 0.0920780839
H  H85  1  0.85450000  0.35620000  0.84650000  1.0 0.0998774304
H  H86  1  0.14550000  0.64380000  0.15350000  1.0 0.0998774304
H  H87  1  0.91420000  0.39830000  0.89460000  1.0 0.0920780839
H  H88  1  0.08580000  0.60170000  0.10540000  1.0 0.0920780839
H  H89  1  0.96080000  0.43920000  0.72840000  1.0 0.0605983086
H  H90  1  0.03920000  0.56080000  0.27160000  1.0 0.0605983086
H  H91  1  0.05050000  0.31010000  0.64330000  1.0 0.0998774304
H  H92  1  0.94950000  0.68990000  0.35670000  1.0 0.0998774304
H  H93  1  0.93670000  0.30300000  0.69540000  1.0 0.0998774304
H  H94  1  0.06330000  0.69700000  0.30460000  1.0 0.0998774304
H  H95  1  0.22010000  0.19580000  0.71450000  1.0 0.1083072802
H  H96  1  0.77990000  0.80420000  0.28550000  1.0 0.1083072802
H  H97  1  0.20910000  0.11740000  0.80880000  1.0 0.0920780839
H  H98  1  0.79090000  0.88260000  0.19120000  1.0 0.0920780839
H  H99  1  0.22850000  0.25440000  0.84240000  1.0 0.0706610186
H  H100  1  0.77150000  0.74560000  0.15760000  1.0 0.0706610186
H  H101  1  0.12540000  0.17170000  0.95890000  1.0 0.0920780839
H  H102  1  0.87460000  0.82830000  0.04110000  1.0 0.0920780839
H  H103  1  0.08040000  0.28560000  0.96310000  1.0 0.0920780839
H  H104  1  0.91960000  0.71440000  0.03690000  1.0 0.0920780839
H  H105  1  0.09930000  0.40880000  0.81390000  1.0 0.0920780839
H  H106  1  0.90070000  0.59120000  0.18610000  1.0 0.0998774304
H  H107  1  0.15210000  0.37140000  0.71830000  1.0 0.0920780839
H  H108  1  0.84790000  0.62860000  0.28170000  1.0 0.0998774304
H  H109  1  0.77840000  0.33550000  0.95960000  1.0 0.0920780839
H  H110  1  0.22160000  0.66450000  0.04040000  1.0 0.0920780839
H  H111  1  0.99170000  0.12500000  0.10500000  1.0 0.0605983086
H  H112  1  0.00830000  0.87500000  0.89500000  1.0 0.0605983086
C  C1  1  0.85790000  0.15680000  0.02360000  1.0 -0.0358863576
C  C2  1  0.14210000  0.84320000  0.97640000  1.0 -0.0358863576
C  C3  1  0.90140000  0.24870000  0.07680000  1.0 0.1083072802
C  C4  1  0.09860000  0.75130000  0.92320000  1.0 0.1083072802
C  C5  1  0.78630000  0.13480000  0.61530000  1.0 0.0502924989
C  C6  1  0.21370000  0.86520000  0.38470000  1.0 0.0502924989
C  C7  1  0.68510000  0.23970000  0.51830000  1.0 0.0817888334
C  C8  1  0.31490000  0.76030000  0.48170000  1.0 0.0817888334
C  C9  1  0.32290000  0.50640000  0.64040000  1.0 0.0502924989
C  C10  1  0.67710000  0.49360000  0.35960000  1.0 0.0502924989
C  C11  1  0.33810000  0.57050000  0.74360000  1.0 0.0502924989
C  C12  1  0.66190000  0.42950000  0.25640000  1.0 0.0502924989
C  C13  1  0.62830000  0.25950000  0.68930000  1.0 0.2461352693
C  C14  1  0.37170000  0.74050000  0.31070000  1.0 0.2461352693
C  C15  1  0.53800000  0.35210000  0.65390000  1.0 -0.360275182
C  C16  1  0.46200000  0.64790000  0.34610000  1.0 -0.360275182
C  C17  1  0.46980000  0.39770000  0.73840000  1.0 0.2399620634
C  C18  1  0.53020000  0.60230000  0.26160000  1.0 0.2399620634
C  C19  1  0.42230000  0.32490000  0.80730000  1.0 -0.3184472932
C  C20  1  0.57770000  0.67510000  0.19270000  1.0 -0.3184472932
C  C21  1  0.51620000  0.23280000  0.84340000  1.0 0.0817888334
C  C22  1  0.48380000  0.76720000  0.15660000  1.0 0.0817888334
C  C23  1  0.58040000  0.18730000  0.75690000  1.0 -0.3105174964
C  C24  1  0.41960000  0.81270000  0.24310000  1.0 -0.3105174964
C  C25  1  0.69930000  0.28530000  0.73390000  1.0 -0.3287668778
C  C26  1  0.30070000  0.71470000  0.26610000  1.0 -0.3287668778
C  C27  1  0.63220000  0.33060000  0.81720000  1.0 0.0817888334
C  C28  1  0.36780000  0.66940000  0.18280000  1.0 0.0817888334
C  C29  1  0.54150000  0.42410000  0.78420000  1.0 -0.3184472932
C  C30  1  0.45850000  0.57590000  0.21580000  1.0 -0.3184472932
C  C31  1  0.58380000  0.25770000  0.88670000  1.0 -0.3018725816
C  C32  1  0.41620000  0.74230000  0.11330000  1.0 -0.3018725816
C  C33  1  0.86400000  0.86600000  0.64520000  1.0 0.0405519931
C  C34  1  0.13600000  0.13400000  0.35480000  1.0 0.0405519931
C  C35  1  0.96980000  0.75450000  0.73360000  1.0 0.0234054858
C  C36  1  0.03020000  0.24550000  0.26640000  1.0 0.0234054858
C  C37  1  0.41790000  0.77110000  0.75470000  1.0 0.0502924989
C  C38  1  0.58210000  0.22890000  0.24530000  1.0 0.0502924989
C  C39  1  0.49530000  0.84940000  0.63930000  1.0 0.0605983086
C  C40  1  0.50470000  0.15060000  0.36070000  1.0 0.0605983086
C  C41  1  0.78180000  0.75160000  0.77220000  1.0 0.2399620634
C  C42  1  0.21820000  0.24840000  0.22780000  1.0 0.2399620634
C  C43  1  0.68890000  0.79110000  0.71710000  1.0 -0.360275182
C  C44  1  0.31110000  0.20890000  0.28290000  1.0 -0.360275182
C  C45  1  0.60020000  0.75420000  0.77670000  1.0 0.2399620634
C  C46  1  0.39980000  0.24580000  0.22330000  1.0 0.2399620634
C  C47  1  0.56300000  0.79240000  0.86670000  1.0 -0.3105174964
C  C48  1  0.43700000  0.20760000  0.13330000  1.0 -0.3105174964
C  C49  1  0.65790000  0.75220000  0.92180000  1.0 0.0817888334
C  C50  1  0.34210000  0.24780000  0.07820000  1.0 0.0817888334
C  C51  1  0.74710000  0.78750000  0.86280000  1.0 -0.3287668778
C  C52  1  0.25290000  0.21250000  0.13720000  1.0 -0.3287668778
C  C53  1  0.82350000  0.64010000  0.79130000  1.0 -0.3184472932
C  C54  1  0.17650000  0.35990000  0.20870000  1.0 -0.3184472932
C  C55  1  0.73350000  0.60420000  0.85120000  1.0 0.0817888334
C  C56  1  0.26650000  0.39580000  0.14880000  1.0 0.0817888334
C  C57  1  0.63990000  0.64320000  0.79660000  1.0 -0.3184472932
C  C58  1  0.36010000  0.35680000  0.20340000  1.0 -0.3184472932
C  C59  1  0.69790000  0.64160000  0.94240000  1.0 -0.2894152431
C  C60  1  0.30210000  0.35840000  0.05760000  1.0 -0.2894152431
C  C61  1  0.03270000  0.13220000  0.62880000  1.0 0.0605983086
C  C62  1  0.96730000  0.86780000  0.37120000  1.0 0.0605983086
C  C63  1  0.13100000  0.02410000  0.72610000  1.0 0.0605983086
C  C64  1  0.86900000  0.97590000  0.27390000  1.0 0.0605983086
C  C65  1  0.06310000  0.19470000  0.75760000  1.0 0.2665086435
C  C66  1  0.93690000  0.80530000  0.24240000  1.0 0.2665086435
C  C67  1  0.99600000  0.17290000  0.85030000  1.0 -0.3985151006
C  C68  1  0.00400000  0.82710000  0.14970000  1.0 -0.3985151006
C  C69  1  0.98020000  0.24750000  0.90840000  1.0 0.2296962188
C  C70  1  0.01980000  0.75250000  0.09160000  1.0 0.2296962188
C  C71  1  0.92510000  0.35020000  0.85710000  1.0 -0.3184472932
C  C72  1  0.07490000  0.64980000  0.14290000  1.0 -0.3184472932
C  C73  1  0.99570000  0.37120000  0.76240000  1.0 0.0920780839
C  C74  1  0.00430000  0.62880000  0.23760000  1.0 0.0920780839
C  C75  1  0.00770000  0.29710000  0.70490000  1.0 -0.3105174964
C  C76  1  0.99230000  0.70290000  0.29510000  1.0 -0.3105174964
C  C77  1  0.17410000  0.18420000  0.77450000  1.0 -0.3018725816
C  C78  1  0.82590000  0.81580000  0.22550000  1.0 -0.3018725816
C  C79  1  0.15750000  0.26010000  0.83140000  1.0 0.0817888334
C  C80  1  0.84250000  0.73990000  0.16860000  1.0 0.0817888334
C  C81  1  0.08950000  0.23860000  0.92500000  1.0 -0.3364835633
C  C82  1  0.91050000  0.76140000  0.07500000  1.0 -0.3364835633
C  C83  1  0.10670000  0.35980000  0.77870000  1.0 -0.2894152431
C  C84  1  0.89330000  0.64020000  0.22130000  1.0 -0.2894152431
C  C85  1  0.24300000  0.01040000  0.07540000  1.0 0.0286415266
C  C86  1  0.75700000  0.98960000  0.92460000  1.0 0.0286415266
C  C87  1  0.17500000  0.97500000  0.10480000  1.0 -0.0358863576
C  C88  1  0.82500000  0.02500000  0.89520000  1.0 -0.0343474364
C  C89  1  0.81270000  0.29030000  0.00960000  1.0 0.0077959737
C  C90  1  0.18730000  0.70970000  0.99040000  1.0 0.0077959737
C  C91  1  0.92860000  0.17640000  0.08740000  1.0 0.0605983086
C  C92  1  0.07140000  0.82360000  0.91260000  1.0 0.0605983086
Se  Se1  1  0.11864000  0.01544000  0.15430000  1.0 0.3891659873
Se  Se2  1  0.88136000  0.98456000  0.84570000  1.0 0.3891659873
Se  Se3  1  0.21290000  0.94790000  0.98640000  1.0 0.0706610186
Se  Se4  1  0.78710000  0.05210000  0.01360000  1.0 0.0706610186
N  N1  1  0.83070000  0.11320000  0.53410000  1.0 -0.2088395445
N  N2  1  0.16930000  0.88680000  0.46590000  1.0 -0.2088395445
N  N3  1  0.76580000  0.18070000  0.47060000  1.0 -0.1735302462
N  N4  1  0.23420000  0.81930000  0.52940000  1.0 -0.1735302462
N  N5  1  0.69520000  0.21320000  0.60930000  1.0 -0.058269863
N  N6  1  0.30480000  0.78680000  0.39070000  1.0 -0.058269863
N  N7  1  0.24860000  0.59320000  0.63580000  1.0 -0.2442270769
N  N8  1  0.75140000  0.40680000  0.36420000  1.0 -0.2442270769
N  N9  1  0.25990000  0.63430000  0.70280000  1.0 -0.2088395445
N  N10  1  0.74010000  0.36570000  0.29720000  1.0 -0.2088395445
N  N11  1  0.38180000  0.48900000  0.70700000  1.0 -0.0687321601
N  N12  1  0.61820000  0.51100000  0.29300000  1.0 -0.0687321601
N  N13  1  0.95570000  0.88020000  0.62070000  1.0 -0.2088395445
N  N14  1  0.04430000  0.11980000  0.37930000  1.0 -0.2088395445
N  N15  1  0.02420000  0.80750000  0.67780000  1.0 -0.1984402168
N  N16  1  0.97580000  0.19250000  0.32220000  1.0 -0.1984402168
N  N17  1  0.86950000  0.78810000  0.71550000  1.0 -0.058269863
N  N18  1  0.13050000  0.21190000  0.28450000  1.0 -0.058269863
N  N19  1  0.35320000  0.81300000  0.69220000  1.0 -0.1984402168
N  N20  1  0.64680000  0.18700000  0.30780000  1.0 -0.1984402168
N  N21  1  0.40320000  0.86460000  0.61700000  1.0 -0.2495781882
N  N22  1  0.59680000  0.13540000  0.38300000  1.0 -0.2495781882
N  N23  1  0.50850000  0.79060000  0.72420000  1.0 -0.0687321601
N  N24  1  0.49150000  0.20940000  0.27580000  1.0 -0.0687321601
N  N25  1  0.05640000  0.04680000  0.60880000  1.0 -0.2088395445
N  N26  1  0.94360000  0.95320000  0.39120000  1.0 -0.2088395445
N  N27  1  0.12120000  0.97730000  0.67110000  1.0 -0.2088395445
N  N28  1  0.87880000  0.02270000  0.32890000  1.0 -0.2088395445
N  N29  1  0.07730000  0.12110000  0.70320000  1.0 -0.058269863
N  N30  1  0.92270000  0.87890000  0.29680000  1.0 -0.058269863
N  N31  1  0.91470000  0.22340000  0.99860000  1.0 -0.0206868514
N  N32  1  0.08530000  0.77660000  0.00140000  1.0 -0.0206868514
N  N33  1  0.84340000  0.21160000  0.14520000  1.0 -0.127225454
N  N34  1  0.15660000  0.78840000  0.85480000  1.0 -0.1113912268
N  N35  1  0.81180000  0.15140000  0.10920000  1.0 -0.1984402168
N  N36  1  0.18820000  0.84860000  0.89080000  1.0 -0.1984402168
N  N37  1  0.32010000  0.00580000  0.02290000  1.0 -0.3018725816
N  N38  1  0.67990000  0.99420000  0.97710000  1.0 -0.3018725816
N  N39  1  0.15700000  0.96100000  0.18500000  1.0 -0.3105174964
N  N40  1  0.84300000  0.03900000  0.81500000  1.0 -0.3105174964
N  N41  1  0.76900000  0.28450000  0.09600000  1.0 -0.2158646016
N  N42  1  0.23100000  0.71550000  0.90400000  1.0 -0.2158646016
