# DDEC6 charges by PACMAN v1.1 (https://github.com/mtap-research/PACMAN-charge/)
data_ILUGOM_FSR_pacman
_symmetry_space_group_name_H-M   'P 1'
_cell_length_a   15.16500000
_cell_length_b   15.16500000
_cell_length_c   15.71300000
_cell_angle_alpha   90.00000000
_cell_angle_beta   90.00000000
_cell_angle_gamma   120.00000000
_symmetry_Int_Tables_number   1
_chemical_formula_structural   Er2Fe3H18C42(NO5)6
_chemical_formula_sum   'Er4 Fe6 H36 C84 N12 O60'
_cell_volume   3129.49723008
_cell_formula_units_Z   2
loop_
 _symmetry_equiv_pos_site_id
 _symmetry_equiv_pos_as_xyz
  1  'x, y, z'
loop_
 _atom_site_type_symbol
 _atom_site_label
 _atom_site_symmetry_multiplicity
 _atom_site_fract_x
 _atom_site_fract_y
 _atom_site_fract_z
 _atom_site_occupancy
 _atom_site_charge
Er  Er1  1  0.33333333  0.66666667  0.25000000  1.0 1.8046677979
Er  Er2  1  0.66666667  0.33333333  0.25000000  1.0 1.8046677979
Er  Er3  1  0.66666667  0.33333333  0.75000000  1.0 1.8046677979
Er  Er4  1  0.33333333  0.66666667  0.75000000  1.0 1.8046677979
Fe  Fe1  1  0.50000000  0.50000000  0.00000000  1.0 1.1544861467
Fe  Fe2  1  0.00000000  0.50000000  0.00000000  1.0 1.1544861467
Fe  Fe3  1  0.50000000  0.00000000  0.00000000  1.0 1.1588145963
Fe  Fe4  1  0.50000000  0.50000000  0.50000000  1.0 1.1588145963
Fe  Fe5  1  0.00000000  0.50000000  0.50000000  1.0 1.1544861467
Fe  Fe6  1  0.50000000  0.00000000  0.50000000  1.0 1.1588145963
H  H1  1  0.80010000  0.90005000  0.25000000  1.0 0.1031107769
H  H2  1  0.90005000  0.80010000  0.25000000  1.0 0.1031107769
H  H3  1  0.09995000  0.90005000  0.25000000  1.0 0.1031107769
H  H4  1  0.19990000  0.09995000  0.25000000  1.0 0.1031107769
H  H5  1  0.09995000  0.19990000  0.25000000  1.0 0.1031107769
H  H6  1  0.90005000  0.09995000  0.25000000  1.0 0.1031107769
H  H7  1  0.19990000  0.09995000  0.75000000  1.0 0.1031107769
H  H8  1  0.09995000  0.19990000  0.75000000  1.0 0.1031107769
H  H9  1  0.90005000  0.09995000  0.75000000  1.0 0.1031107769
H  H10  1  0.80010000  0.90005000  0.75000000  1.0 0.1031107769
H  H11  1  0.90005000  0.80010000  0.75000000  1.0 0.1031107769
H  H12  1  0.09995000  0.90005000  0.75000000  1.0 0.1031107769
H  H13  1  0.71150000  0.76800000  0.15440000  1.0 0.1327599855
H  H14  1  0.94350000  0.71150000  0.15440000  1.0 0.1327599855
H  H15  1  0.23200000  0.94350000  0.15440000  1.0 0.1327599855
H  H16  1  0.28850000  0.23200000  0.15440000  1.0 0.1327599855
H  H17  1  0.05650000  0.28850000  0.15440000  1.0 0.1327599855
H  H18  1  0.76800000  0.05650000  0.15440000  1.0 0.1327599855
H  H19  1  0.23200000  0.28850000  0.34560000  1.0 0.1327599855
H  H20  1  0.94350000  0.23200000  0.34560000  1.0 0.1327599855
H  H21  1  0.71150000  0.94350000  0.34560000  1.0 0.1327599855
H  H22  1  0.76800000  0.71150000  0.34560000  1.0 0.1327599855
H  H23  1  0.05650000  0.76800000  0.34560000  1.0 0.1327599855
H  H24  1  0.28850000  0.05650000  0.34560000  1.0 0.1327599855
H  H25  1  0.28850000  0.23200000  0.84560000  1.0 0.1327599855
H  H26  1  0.05650000  0.28850000  0.84560000  1.0 0.1327599855
H  H27  1  0.76800000  0.05650000  0.84560000  1.0 0.1327599855
H  H28  1  0.71150000  0.76800000  0.84560000  1.0 0.1327599855
H  H29  1  0.94350000  0.71150000  0.84560000  1.0 0.1327599855
H  H30  1  0.23200000  0.94350000  0.84560000  1.0 0.1327599855
H  H31  1  0.76800000  0.71150000  0.65440000  1.0 0.1327599855
H  H32  1  0.05650000  0.76800000  0.65440000  1.0 0.1327599855
H  H33  1  0.28850000  0.05650000  0.65440000  1.0 0.1327599855
H  H34  1  0.23200000  0.28850000  0.65440000  1.0 0.1327599855
H  H35  1  0.94350000  0.23200000  0.65440000  1.0 0.1327599855
H  H36  1  0.71150000  0.94350000  0.65440000  1.0 0.1327599855
C  C1  1  0.72930000  0.86465000  0.25000000  1.0 -0.0634249675
C  C2  1  0.86465000  0.72930000  0.25000000  1.0 -0.0634249675
C  C3  1  0.13535000  0.86465000  0.25000000  1.0 -0.0634249675
C  C4  1  0.27070000  0.13535000  0.25000000  1.0 -0.0634249675
C  C5  1  0.13535000  0.27070000  0.25000000  1.0 -0.0634249675
C  C6  1  0.86465000  0.13535000  0.25000000  1.0 -0.0634249675
C  C7  1  0.27070000  0.13535000  0.75000000  1.0 -0.0634249675
C  C8  1  0.13535000  0.27070000  0.75000000  1.0 -0.0634249675
C  C9  1  0.86465000  0.13535000  0.75000000  1.0 -0.0634249675
C  C10  1  0.72930000  0.86465000  0.75000000  1.0 -0.0634249675
C  C11  1  0.86465000  0.72930000  0.75000000  1.0 -0.0634249675
C  C12  1  0.13535000  0.86465000  0.75000000  1.0 -0.0634249675
C  C13  1  0.67710000  0.78600000  0.19340000  1.0 -0.1471989183
C  C14  1  0.89110000  0.67710000  0.19340000  1.0 -0.1471989183
C  C15  1  0.21400000  0.89110000  0.19340000  1.0 -0.1471989183
C  C16  1  0.32290000  0.21400000  0.19340000  1.0 -0.1471989183
C  C17  1  0.10890000  0.32290000  0.19340000  1.0 -0.1471989183
C  C18  1  0.78600000  0.10890000  0.19340000  1.0 -0.1471989183
C  C19  1  0.21400000  0.32290000  0.30660000  1.0 -0.1471989183
C  C20  1  0.89110000  0.21400000  0.30660000  1.0 -0.1471989183
C  C21  1  0.67710000  0.89110000  0.30660000  1.0 -0.1471989183
C  C22  1  0.78600000  0.67710000  0.30660000  1.0 -0.1471989183
C  C23  1  0.10890000  0.78600000  0.30660000  1.0 -0.1471989183
C  C24  1  0.32290000  0.10890000  0.30660000  1.0 -0.1471989183
C  C25  1  0.32290000  0.21400000  0.80660000  1.0 -0.1471989183
C  C26  1  0.10890000  0.32290000  0.80660000  1.0 -0.1471989183
C  C27  1  0.78600000  0.10890000  0.80660000  1.0 -0.1471989183
C  C28  1  0.67710000  0.78600000  0.80660000  1.0 -0.1471989183
C  C29  1  0.89110000  0.67710000  0.80660000  1.0 -0.1471989183
C  C30  1  0.21400000  0.89110000  0.80660000  1.0 -0.1471989183
C  C31  1  0.78600000  0.67710000  0.69340000  1.0 -0.1471989183
C  C32  1  0.10890000  0.78600000  0.69340000  1.0 -0.1471989183
C  C33  1  0.32290000  0.10890000  0.69340000  1.0 -0.1471989183
C  C34  1  0.21400000  0.32290000  0.69340000  1.0 -0.1471989183
C  C35  1  0.89110000  0.21400000  0.69340000  1.0 -0.1471989183
C  C36  1  0.67710000  0.89110000  0.69340000  1.0 -0.1471989183
C  C37  1  0.57270000  0.73510000  0.19640000  1.0 0.1106438858
C  C38  1  0.83760000  0.57270000  0.19640000  1.0 0.1106438858
C  C39  1  0.26490000  0.83760000  0.19640000  1.0 0.1106438858
C  C40  1  0.42730000  0.26490000  0.19640000  1.0 0.1106438858
C  C41  1  0.16240000  0.42730000  0.19640000  1.0 0.1106438858
C  C42  1  0.73510000  0.16240000  0.19640000  1.0 0.1106438858
C  C43  1  0.26490000  0.42730000  0.30360000  1.0 0.1106438858
C  C44  1  0.83760000  0.26490000  0.30360000  1.0 0.1106438858
C  C45  1  0.57270000  0.83760000  0.30360000  1.0 0.1106438858
C  C46  1  0.73510000  0.57270000  0.30360000  1.0 0.1106438858
C  C47  1  0.16240000  0.73510000  0.30360000  1.0 0.1106438858
C  C48  1  0.42730000  0.16240000  0.30360000  1.0 0.1106438858
C  C49  1  0.42730000  0.26490000  0.80360000  1.0 0.1106438858
C  C50  1  0.16240000  0.42730000  0.80360000  1.0 0.1106438858
C  C51  1  0.73510000  0.16240000  0.80360000  1.0 0.1106438858
C  C52  1  0.57270000  0.73510000  0.80360000  1.0 0.1106438858
C  C53  1  0.83760000  0.57270000  0.80360000  1.0 0.1106438858
C  C54  1  0.26490000  0.83760000  0.80360000  1.0 0.1106438858
C  C55  1  0.73510000  0.57270000  0.69640000  1.0 0.1106438858
C  C56  1  0.16240000  0.73510000  0.69640000  1.0 0.1106438858
C  C57  1  0.42730000  0.16240000  0.69640000  1.0 0.1106438858
C  C58  1  0.26490000  0.42730000  0.69640000  1.0 0.1106438858
C  C59  1  0.83760000  0.26490000  0.69640000  1.0 0.1106438858
C  C60  1  0.57270000  0.83760000  0.69640000  1.0 0.1106438858
C  C61  1  0.50660000  0.64660000  0.13930000  1.0 0.5433360012
C  C62  1  0.86000000  0.50660000  0.13930000  1.0 0.5433360012
C  C63  1  0.35340000  0.86000000  0.13930000  1.0 0.5433360012
C  C64  1  0.49340000  0.35340000  0.13930000  1.0 0.5433360012
C  C65  1  0.14000000  0.49340000  0.13930000  1.0 0.5433360012
C  C66  1  0.64660000  0.14000000  0.13930000  1.0 0.5433360012
C  C67  1  0.35340000  0.49340000  0.36070000  1.0 0.5433360012
C  C68  1  0.86000000  0.35340000  0.36070000  1.0 0.5433360012
C  C69  1  0.50660000  0.86000000  0.36070000  1.0 0.5433360012
C  C70  1  0.64660000  0.50660000  0.36070000  1.0 0.5433360012
C  C71  1  0.14000000  0.64660000  0.36070000  1.0 0.5433360012
C  C72  1  0.49340000  0.14000000  0.36070000  1.0 0.5433360012
C  C73  1  0.49340000  0.35340000  0.86070000  1.0 0.5433360012
C  C74  1  0.14000000  0.49340000  0.86070000  1.0 0.5433360012
C  C75  1  0.64660000  0.14000000  0.86070000  1.0 0.5433360012
C  C76  1  0.50660000  0.64660000  0.86070000  1.0 0.5433360012
C  C77  1  0.86000000  0.50660000  0.86070000  1.0 0.5433360012
C  C78  1  0.35340000  0.86000000  0.86070000  1.0 0.5433360012
C  C79  1  0.64660000  0.50660000  0.63930000  1.0 0.5433360012
C  C80  1  0.14000000  0.64660000  0.63930000  1.0 0.5433360012
C  C81  1  0.49340000  0.14000000  0.63930000  1.0 0.5433360012
C  C82  1  0.35340000  0.49340000  0.63930000  1.0 0.5433360012
C  C83  1  0.86000000  0.35340000  0.63930000  1.0 0.5433360012
C  C84  1  0.50660000  0.86000000  0.63930000  1.0 0.5433360012
N  N1  1  0.52090000  0.76045000  0.25000000  1.0 -0.334678459
N  N2  1  0.76045000  0.52090000  0.25000000  1.0 -0.334678459
N  N3  1  0.23955000  0.76045000  0.25000000  1.0 -0.334678459
N  N4  1  0.47910000  0.23955000  0.25000000  1.0 -0.334678459
N  N5  1  0.23955000  0.47910000  0.25000000  1.0 -0.334678459
N  N6  1  0.76045000  0.23955000  0.25000000  1.0 -0.334678459
N  N7  1  0.47910000  0.23955000  0.75000000  1.0 -0.334678459
N  N8  1  0.23955000  0.47910000  0.75000000  1.0 -0.334678459
N  N9  1  0.76045000  0.23955000  0.75000000  1.0 -0.334678459
N  N10  1  0.52090000  0.76045000  0.75000000  1.0 -0.334678459
N  N11  1  0.76045000  0.52090000  0.75000000  1.0 -0.334678459
N  N12  1  0.23955000  0.76045000  0.75000000  1.0 -0.334678459
O  O1  1  0.41070000  0.61040000  0.14450000  1.0 -0.5652715625
O  O2  1  0.80030000  0.41070000  0.14450000  1.0 -0.5652715625
O  O3  1  0.38960000  0.80030000  0.14450000  1.0 -0.5583506235
O  O4  1  0.58930000  0.38960000  0.14450000  1.0 -0.5652715625
O  O5  1  0.19970000  0.58930000  0.14450000  1.0 -0.5652715625
O  O6  1  0.61040000  0.19970000  0.14450000  1.0 -0.5652715625
O  O7  1  0.38960000  0.58930000  0.35550000  1.0 -0.5652715625
O  O8  1  0.80030000  0.38960000  0.35550000  1.0 -0.5583506235
O  O9  1  0.41070000  0.80030000  0.35550000  1.0 -0.5652715625
O  O10  1  0.61040000  0.41070000  0.35550000  1.0 -0.5652715625
O  O11  1  0.19970000  0.61040000  0.35550000  1.0 -0.5652715625
O  O12  1  0.58930000  0.19970000  0.35550000  1.0 -0.5583506235
O  O13  1  0.58930000  0.38960000  0.85550000  1.0 -0.5652715625
O  O14  1  0.19970000  0.58930000  0.85550000  1.0 -0.5652715625
O  O15  1  0.61040000  0.19970000  0.85550000  1.0 -0.5652715625
O  O16  1  0.41070000  0.61040000  0.85550000  1.0 -0.5652715625
O  O17  1  0.80030000  0.41070000  0.85550000  1.0 -0.5652715625
O  O18  1  0.38960000  0.80030000  0.85550000  1.0 -0.5652715625
O  O19  1  0.61040000  0.41070000  0.64450000  1.0 -0.5652715625
O  O20  1  0.19970000  0.61040000  0.64450000  1.0 -0.5652715625
O  O21  1  0.58930000  0.19970000  0.64450000  1.0 -0.5583506235
O  O22  1  0.38960000  0.58930000  0.64450000  1.0 -0.5652715625
O  O23  1  0.80030000  0.38960000  0.64450000  1.0 -0.5583506235
O  O24  1  0.41070000  0.80030000  0.64450000  1.0 -0.5583506235
O  O25  1  0.55080000  0.61570000  0.09120000  1.0 -0.5583506235
O  O26  1  0.93510000  0.55080000  0.09120000  1.0 -0.5583506235
O  O27  1  0.38430000  0.93510000  0.09120000  1.0 -0.5583506235
O  O28  1  0.44920000  0.38430000  0.09120000  1.0 -0.5583506235
O  O29  1  0.06490000  0.44920000  0.09120000  1.0 -0.5583506235
O  O30  1  0.61570000  0.06490000  0.09120000  1.0 -0.5583506235
O  O31  1  0.38430000  0.44920000  0.40880000  1.0 -0.5583506235
O  O32  1  0.93510000  0.38430000  0.40880000  1.0 -0.5583506235
O  O33  1  0.55080000  0.93510000  0.40880000  1.0 -0.5583506235
O  O34  1  0.61570000  0.55080000  0.40880000  1.0 -0.5583506235
O  O35  1  0.06490000  0.61570000  0.40880000  1.0 -0.5583506235
O  O36  1  0.44920000  0.06490000  0.40880000  1.0 -0.5583506235
O  O37  1  0.44920000  0.38430000  0.90880000  1.0 -0.5583506235
O  O38  1  0.06490000  0.44920000  0.90880000  1.0 -0.5583506235
O  O39  1  0.61570000  0.06490000  0.90880000  1.0 -0.5583506235
O  O40  1  0.55080000  0.61570000  0.90880000  1.0 -0.5583506235
O  O41  1  0.93510000  0.55080000  0.90880000  1.0 -0.5583506235
O  O42  1  0.38430000  0.93510000  0.90880000  1.0 -0.5583506235
O  O43  1  0.61570000  0.55080000  0.59120000  1.0 -0.5583506235
O  O44  1  0.06490000  0.61570000  0.59120000  1.0 -0.5583506235
O  O45  1  0.44920000  0.06490000  0.59120000  1.0 -0.5583506235
O  O46  1  0.38430000  0.44920000  0.59120000  1.0 -0.5583506235
O  O47  1  0.93510000  0.38430000  0.59120000  1.0 -0.5583506235
O  O48  1  0.55080000  0.93510000  0.59120000  1.0 -0.5583506235
O  O49  1  0.65240000  0.51250000  0.00000000  1.0 0.0788639126
O  O50  1  0.13990000  0.65240000  0.00000000  1.0 0.0788639126
O  O51  1  0.48750000  0.13990000  0.00000000  1.0 0.0788639126
O  O52  1  0.34760000  0.48750000  0.00000000  1.0 0.0788639126
O  O53  1  0.86010000  0.34760000  0.00000000  1.0 0.0788639126
O  O54  1  0.51250000  0.86010000  0.00000000  1.0 0.0788639126
O  O55  1  0.48750000  0.34760000  0.50000000  1.0 0.0902592661
O  O56  1  0.13990000  0.48750000  0.50000000  1.0 0.0788639126
O  O57  1  0.65240000  0.13990000  0.50000000  1.0 0.0788639126
O  O58  1  0.51250000  0.65240000  0.50000000  1.0 0.0788639126
O  O59  1  0.86010000  0.51250000  0.50000000  1.0 0.0788639126
O  O60  1  0.34760000  0.86010000  0.50000000  1.0 0.0788639126
