# DDEC6 charges by PACMAN v1.1 (https://github.com/mtap-research/PACMAN-charge/)
data_ILUGAY_FSR_pacman
_symmetry_space_group_name_H-M   'P 1'
_cell_length_a   15.01440000
_cell_length_b   15.01440000
_cell_length_c   15.61650000
_cell_angle_alpha   90.00000000
_cell_angle_beta   90.00000000
_cell_angle_gamma   120.00000000
_symmetry_Int_Tables_number   1
_chemical_formula_structural   Yb2Co3H42C42(NO5)6
_chemical_formula_sum   'Yb4 Co6 H84 C84 N12 O60'
_cell_volume   3048.80958242
_cell_formula_units_Z   2
loop_
 _symmetry_equiv_pos_site_id
 _symmetry_equiv_pos_as_xyz
  1  'x, y, z'
loop_
 _atom_site_type_symbol
 _atom_site_label
 _atom_site_symmetry_multiplicity
 _atom_site_fract_x
 _atom_site_fract_y
 _atom_site_fract_z
 _atom_site_occupancy
 _atom_site_charge
Yb  Yb1  1  0.33333333  0.66666667  0.75000000  1.0 1.8567650786
Yb  Yb2  1  0.66666667  0.33333333  0.75000000  1.0 1.8567650786
Yb  Yb3  1  0.66666667  0.33333333  0.25000000  1.0 1.8567650786
Yb  Yb4  1  0.33333333  0.66666667  0.25000000  1.0 1.8567650786
Co  Co1  1  0.50000000  0.50000000  0.50000000  1.0 1.0099824241
Co  Co2  1  0.50000000  0.00000000  0.50000000  1.0 1.0099824241
Co  Co3  1  0.00000000  0.50000000  0.50000000  1.0 1.0099824241
Co  Co4  1  0.50000000  0.50000000  0.00000000  1.0 1.0099824241
Co  Co5  1  0.00000000  0.50000000  0.00000000  1.0 1.0099824241
Co  Co6  1  0.50000000  0.00000000  0.00000000  1.0 1.0099824241
H  H1  1  0.09840000  0.19680000  0.75000000  1.0 0.1077101698
H  H2  1  0.80320000  0.90160000  0.75000000  1.0 0.1077101698
H  H3  1  0.09840000  0.90160000  0.75000000  1.0 0.1077101698
H  H4  1  0.90160000  0.80320000  0.75000000  1.0 0.1077101698
H  H5  1  0.19680000  0.09840000  0.75000000  1.0 0.1077101698
H  H6  1  0.90160000  0.09840000  0.75000000  1.0 0.1077101698
H  H7  1  0.90160000  0.80320000  0.25000000  1.0 0.1077101698
H  H8  1  0.19680000  0.09840000  0.25000000  1.0 0.1077101698
H  H9  1  0.90160000  0.09840000  0.25000000  1.0 0.1077101698
H  H10  1  0.09840000  0.19680000  0.25000000  1.0 0.1077101698
H  H11  1  0.80320000  0.90160000  0.25000000  1.0 0.1077101698
H  H12  1  0.09840000  0.90160000  0.25000000  1.0 0.1077101698
H  H13  1  0.23220000  0.28720000  0.65320000  1.0 0.1369612828
H  H14  1  0.71280000  0.94500000  0.65320000  1.0 0.1369612828
H  H15  1  0.05500000  0.76780000  0.65320000  1.0 0.1369612828
H  H16  1  0.76780000  0.71280000  0.65320000  1.0 0.1369612828
H  H17  1  0.28720000  0.05500000  0.65320000  1.0 0.1369612828
H  H18  1  0.94500000  0.23220000  0.65320000  1.0 0.1369612828
H  H19  1  0.28720000  0.23220000  0.84680000  1.0 0.1369612828
H  H20  1  0.94500000  0.71280000  0.84680000  1.0 0.1369612828
H  H21  1  0.76780000  0.05500000  0.84680000  1.0 0.1369612828
H  H22  1  0.71280000  0.76780000  0.84680000  1.0 0.1369612828
H  H23  1  0.05500000  0.28720000  0.84680000  1.0 0.1369612828
H  H24  1  0.23220000  0.94500000  0.84680000  1.0 0.1369612828
H  H25  1  0.76780000  0.71280000  0.34680000  1.0 0.1369612828
H  H26  1  0.28720000  0.05500000  0.34680000  1.0 0.1369612828
H  H27  1  0.94500000  0.23220000  0.34680000  1.0 0.1369612828
H  H28  1  0.23220000  0.28720000  0.34680000  1.0 0.1369612828
H  H29  1  0.71280000  0.94500000  0.34680000  1.0 0.1369612828
H  H30  1  0.05500000  0.76780000  0.34680000  1.0 0.1369612828
H  H31  1  0.71280000  0.76780000  0.15320000  1.0 0.1369612828
H  H32  1  0.05500000  0.28720000  0.15320000  1.0 0.1369612828
H  H33  1  0.23220000  0.94500000  0.15320000  1.0 0.1369612828
H  H34  1  0.28720000  0.23220000  0.15320000  1.0 0.1369612828
H  H35  1  0.94500000  0.71280000  0.15320000  1.0 0.1369612828
H  H36  1  0.76780000  0.05500000  0.15320000  1.0 0.1369612828
H  H37  1  0.55610000  0.69680000  0.46860000  1.0 0.1295201392
H  H38  1  0.30320000  0.85930000  0.46860000  1.0 0.1295201392
H  H39  1  0.14070000  0.44390000  0.46860000  1.0 0.1295201392
H  H40  1  0.44390000  0.30320000  0.46860000  1.0 0.1295201392
H  H41  1  0.69680000  0.14070000  0.46860000  1.0 0.1295201392
H  H42  1  0.85930000  0.55610000  0.46860000  1.0 0.1295201392
H  H43  1  0.69680000  0.55610000  0.03140000  1.0 0.1295201392
H  H44  1  0.85930000  0.30320000  0.03140000  1.0 0.1295201392
H  H45  1  0.44390000  0.14070000  0.03140000  1.0 0.1295201392
H  H46  1  0.30320000  0.44390000  0.03140000  1.0 0.1295201392
H  H47  1  0.14070000  0.69680000  0.03140000  1.0 0.1295201392
H  H48  1  0.55610000  0.85930000  0.03140000  1.0 0.1295201392
H  H49  1  0.44390000  0.30320000  0.53140000  1.0 0.1295201392
H  H50  1  0.69680000  0.14070000  0.53140000  1.0 0.1295201392
H  H51  1  0.85930000  0.55610000  0.53140000  1.0 0.1295201392
H  H52  1  0.55610000  0.69680000  0.53140000  1.0 0.1295201392
H  H53  1  0.30320000  0.85930000  0.53140000  1.0 0.1295201392
H  H54  1  0.14070000  0.44390000  0.53140000  1.0 0.1295201392
H  H55  1  0.30320000  0.44390000  0.96860000  1.0 0.1295201392
H  H56  1  0.14070000  0.69680000  0.96860000  1.0 0.1295201392
H  H57  1  0.55610000  0.85930000  0.96860000  1.0 0.1295201392
H  H58  1  0.69680000  0.55610000  0.96860000  1.0 0.1295201392
H  H59  1  0.85930000  0.30320000  0.96860000  1.0 0.1295201392
H  H60  1  0.44390000  0.14070000  0.96860000  1.0 0.1295201392
H  H61  1  0.47690000  0.66180000  0.53140000  1.0 0.1621174137
H  H62  1  0.33820000  0.81510000  0.53140000  1.0 0.1621174137
H  H63  1  0.18490000  0.52310000  0.53140000  1.0 0.1621174137
H  H64  1  0.52310000  0.33820000  0.53140000  1.0 0.1621174137
H  H65  1  0.66180000  0.18490000  0.53140000  1.0 0.1621174137
H  H66  1  0.81510000  0.47690000  0.53140000  1.0 0.1621174137
H  H67  1  0.66180000  0.47690000  0.96860000  1.0 0.1621174137
H  H68  1  0.81510000  0.33820000  0.96860000  1.0 0.1621174137
H  H69  1  0.52310000  0.18490000  0.96860000  1.0 0.1621174137
H  H70  1  0.33820000  0.52310000  0.96860000  1.0 0.1621174137
H  H71  1  0.18490000  0.66180000  0.96860000  1.0 0.1621174137
H  H72  1  0.47690000  0.81510000  0.96860000  1.0 0.1621174137
H  H73  1  0.52310000  0.33820000  0.46860000  1.0 0.1621174137
H  H74  1  0.66180000  0.18490000  0.46860000  1.0 0.1621174137
H  H75  1  0.81510000  0.47690000  0.46860000  1.0 0.1621174137
H  H76  1  0.47690000  0.66180000  0.46860000  1.0 0.1621174137
H  H77  1  0.33820000  0.81510000  0.46860000  1.0 0.1621174137
H  H78  1  0.18490000  0.52310000  0.46860000  1.0 0.1621174137
H  H79  1  0.33820000  0.52310000  0.03140000  1.0 0.1621174137
H  H80  1  0.18490000  0.66180000  0.03140000  1.0 0.1621174137
H  H81  1  0.47690000  0.81510000  0.03140000  1.0 0.1621174137
H  H82  1  0.66180000  0.47690000  0.03140000  1.0 0.1621174137
H  H83  1  0.81510000  0.33820000  0.03140000  1.0 0.1621174137
H  H84  1  0.52310000  0.18490000  0.03140000  1.0 0.1621174137
C  C1  1  0.13420000  0.26840000  0.75000000  1.0 -0.0630583202
C  C2  1  0.73160000  0.86580000  0.75000000  1.0 -0.0630583202
C  C3  1  0.13420000  0.86580000  0.75000000  1.0 -0.0630583202
C  C4  1  0.86580000  0.73160000  0.75000000  1.0 -0.0630583202
C  C5  1  0.26840000  0.13420000  0.75000000  1.0 -0.0630583202
C  C6  1  0.86580000  0.13420000  0.75000000  1.0 -0.0630583202
C  C7  1  0.86580000  0.73160000  0.25000000  1.0 -0.0630583202
C  C8  1  0.26840000  0.13420000  0.25000000  1.0 -0.0630583202
C  C9  1  0.86580000  0.13420000  0.25000000  1.0 -0.0630583202
C  C10  1  0.13420000  0.26840000  0.25000000  1.0 -0.0630583202
C  C11  1  0.73160000  0.86580000  0.25000000  1.0 -0.0630583202
C  C12  1  0.13420000  0.86580000  0.25000000  1.0 -0.0630583202
C  C13  1  0.21420000  0.32180000  0.69270000  1.0 -0.1419159451
C  C14  1  0.67820000  0.89240000  0.69270000  1.0 -0.1419159451
C  C15  1  0.10760000  0.78580000  0.69270000  1.0 -0.1419159451
C  C16  1  0.78580000  0.67820000  0.69270000  1.0 -0.1419159451
C  C17  1  0.32180000  0.10760000  0.69270000  1.0 -0.1419159451
C  C18  1  0.89240000  0.21420000  0.69270000  1.0 -0.1419159451
C  C19  1  0.32180000  0.21420000  0.80730000  1.0 -0.1419159451
C  C20  1  0.89240000  0.67820000  0.80730000  1.0 -0.1419159451
C  C21  1  0.78580000  0.10760000  0.80730000  1.0 -0.1419159451
C  C22  1  0.67820000  0.78580000  0.80730000  1.0 -0.1419159451
C  C23  1  0.10760000  0.32180000  0.80730000  1.0 -0.1419159451
C  C24  1  0.21420000  0.89240000  0.80730000  1.0 -0.1419159451
C  C25  1  0.78580000  0.67820000  0.30730000  1.0 -0.1419159451
C  C26  1  0.32180000  0.10760000  0.30730000  1.0 -0.1419159451
C  C27  1  0.89240000  0.21420000  0.30730000  1.0 -0.1419159451
C  C28  1  0.21420000  0.32180000  0.30730000  1.0 -0.1419159451
C  C29  1  0.67820000  0.89240000  0.30730000  1.0 -0.1419159451
C  C30  1  0.10760000  0.78580000  0.30730000  1.0 -0.1419159451
C  C31  1  0.67820000  0.78580000  0.19270000  1.0 -0.1419159451
C  C32  1  0.10760000  0.32180000  0.19270000  1.0 -0.1419159451
C  C33  1  0.21420000  0.89240000  0.19270000  1.0 -0.1419159451
C  C34  1  0.32180000  0.21420000  0.19270000  1.0 -0.1419159451
C  C35  1  0.89240000  0.67820000  0.19270000  1.0 -0.1419159451
C  C36  1  0.78580000  0.10760000  0.19270000  1.0 -0.1419159451
C  C37  1  0.26600000  0.42760000  0.69610000  1.0 0.1295201392
C  C38  1  0.57240000  0.83840000  0.69610000  1.0 0.1295201392
C  C39  1  0.16160000  0.73400000  0.69610000  1.0 0.1295201392
C  C40  1  0.73400000  0.57240000  0.69610000  1.0 0.1295201392
C  C41  1  0.42760000  0.16160000  0.69610000  1.0 0.1295201392
C  C42  1  0.83840000  0.26600000  0.69610000  1.0 0.1295201392
C  C43  1  0.42760000  0.26600000  0.80390000  1.0 0.1295201392
C  C44  1  0.83840000  0.57240000  0.80390000  1.0 0.1295201392
C  C45  1  0.73400000  0.16160000  0.80390000  1.0 0.1295201392
C  C46  1  0.57240000  0.73400000  0.80390000  1.0 0.1295201392
C  C47  1  0.16160000  0.42760000  0.80390000  1.0 0.1295201392
C  C48  1  0.26600000  0.83840000  0.80390000  1.0 0.1295201392
C  C49  1  0.73400000  0.57240000  0.30390000  1.0 0.1295201392
C  C50  1  0.42760000  0.16160000  0.30390000  1.0 0.1295201392
C  C51  1  0.83840000  0.26600000  0.30390000  1.0 0.1295201392
C  C52  1  0.26600000  0.42760000  0.30390000  1.0 0.1295201392
C  C53  1  0.57240000  0.83840000  0.30390000  1.0 0.1295201392
C  C54  1  0.16160000  0.73400000  0.30390000  1.0 0.1295201392
C  C55  1  0.57240000  0.73400000  0.19610000  1.0 0.1295201392
C  C56  1  0.16160000  0.42760000  0.19610000  1.0 0.1295201392
C  C57  1  0.26600000  0.83840000  0.19610000  1.0 0.1295201392
C  C58  1  0.42760000  0.26600000  0.19610000  1.0 0.1295201392
C  C59  1  0.83840000  0.57240000  0.19610000  1.0 0.1295201392
C  C60  1  0.73400000  0.16160000  0.19610000  1.0 0.1295201392
C  C61  1  0.35560000  0.49410000  0.63870000  1.0 0.5530151199
C  C62  1  0.50590000  0.86150000  0.63870000  1.0 0.5530151199
C  C63  1  0.13850000  0.64440000  0.63870000  1.0 0.5530151199
C  C64  1  0.64440000  0.50590000  0.63870000  1.0 0.5530151199
C  C65  1  0.49410000  0.13850000  0.63870000  1.0 0.5530151199
C  C66  1  0.86150000  0.35560000  0.63870000  1.0 0.5530151199
C  C67  1  0.49410000  0.35560000  0.86130000  1.0 0.5530151199
C  C68  1  0.86150000  0.50590000  0.86130000  1.0 0.5530151199
C  C69  1  0.64440000  0.13850000  0.86130000  1.0 0.5530151199
C  C70  1  0.50590000  0.64440000  0.86130000  1.0 0.5530151199
C  C71  1  0.13850000  0.49410000  0.86130000  1.0 0.5530151199
C  C72  1  0.35560000  0.86150000  0.86130000  1.0 0.5530151199
C  C73  1  0.64440000  0.50590000  0.36130000  1.0 0.5530151199
C  C74  1  0.49410000  0.13850000  0.36130000  1.0 0.5530151199
C  C75  1  0.86150000  0.35560000  0.36130000  1.0 0.5530151199
C  C76  1  0.35560000  0.49410000  0.36130000  1.0 0.5530151199
C  C77  1  0.50590000  0.86150000  0.36130000  1.0 0.5530151199
C  C78  1  0.13850000  0.64440000  0.36130000  1.0 0.5530151199
C  C79  1  0.50590000  0.64440000  0.13870000  1.0 0.5530151199
C  C80  1  0.13850000  0.49410000  0.13870000  1.0 0.5530151199
C  C81  1  0.35560000  0.86150000  0.13870000  1.0 0.5530151199
C  C82  1  0.49410000  0.35560000  0.13870000  1.0 0.5530151199
C  C83  1  0.86150000  0.50590000  0.13870000  1.0 0.5530151199
C  C84  1  0.64440000  0.13850000  0.13870000  1.0 0.5530151199
N  N1  1  0.24000000  0.48000000  0.75000000  1.0 -0.3642571697
N  N2  1  0.52000000  0.76000000  0.75000000  1.0 -0.3642571697
N  N3  1  0.24000000  0.76000000  0.75000000  1.0 -0.3642571697
N  N4  1  0.76000000  0.52000000  0.75000000  1.0 -0.3642571697
N  N5  1  0.48000000  0.24000000  0.75000000  1.0 -0.3642571697
N  N6  1  0.76000000  0.24000000  0.75000000  1.0 -0.3642571697
N  N7  1  0.76000000  0.52000000  0.25000000  1.0 -0.3642571697
N  N8  1  0.48000000  0.24000000  0.25000000  1.0 -0.3642571697
N  N9  1  0.76000000  0.24000000  0.25000000  1.0 -0.3642571697
N  N10  1  0.24000000  0.48000000  0.25000000  1.0 -0.3642571697
N  N11  1  0.52000000  0.76000000  0.25000000  1.0 -0.3642571697
N  N12  1  0.24000000  0.76000000  0.25000000  1.0 -0.3642571697
O  O1  1  0.39080000  0.59040000  0.64460000  1.0 -0.5956129958
O  O2  1  0.40960000  0.80040000  0.64460000  1.0 -0.5956129958
O  O3  1  0.19960000  0.60920000  0.64460000  1.0 -0.5956129958
O  O4  1  0.60920000  0.40960000  0.64460000  1.0 -0.5956129958
O  O5  1  0.59040000  0.19960000  0.64460000  1.0 -0.5956129958
O  O6  1  0.80040000  0.39080000  0.64460000  1.0 -0.5956129958
O  O7  1  0.59040000  0.39080000  0.85540000  1.0 -0.5956129958
O  O8  1  0.80040000  0.40960000  0.85540000  1.0 -0.5956129958
O  O9  1  0.60920000  0.19960000  0.85540000  1.0 -0.5956129958
O  O10  1  0.40960000  0.60920000  0.85540000  1.0 -0.5956129958
O  O11  1  0.19960000  0.59040000  0.85540000  1.0 -0.5956129958
O  O12  1  0.39080000  0.80040000  0.85540000  1.0 -0.5956129958
O  O13  1  0.60920000  0.40960000  0.35540000  1.0 -0.5956129958
O  O14  1  0.59040000  0.19960000  0.35540000  1.0 -0.5956129958
O  O15  1  0.80040000  0.39080000  0.35540000  1.0 -0.5956129958
O  O16  1  0.39080000  0.59040000  0.35540000  1.0 -0.5956129958
O  O17  1  0.40960000  0.80040000  0.35540000  1.0 -0.5956129958
O  O18  1  0.19960000  0.60920000  0.35540000  1.0 -0.5956129958
O  O19  1  0.40960000  0.60920000  0.14460000  1.0 -0.5956129958
O  O20  1  0.19960000  0.59040000  0.14460000  1.0 -0.5956129958
O  O21  1  0.39080000  0.80040000  0.14460000  1.0 -0.5956129958
O  O22  1  0.59040000  0.39080000  0.14460000  1.0 -0.5956129958
O  O23  1  0.80040000  0.40960000  0.14460000  1.0 -0.5956129958
O  O24  1  0.60920000  0.19960000  0.14460000  1.0 -0.5956129958
O  O25  1  0.38700000  0.44950000  0.59160000  1.0 -0.5352848003
O  O26  1  0.55050000  0.93750000  0.59160000  1.0 -0.5352848003
O  O27  1  0.06250000  0.61300000  0.59160000  1.0 -0.5352848003
O  O28  1  0.61300000  0.55050000  0.59160000  1.0 -0.5352848003
O  O29  1  0.44950000  0.06250000  0.59160000  1.0 -0.5347363779
O  O30  1  0.93750000  0.38700000  0.59160000  1.0 -0.5352848003
O  O31  1  0.44950000  0.38700000  0.90840000  1.0 -0.5347363779
O  O32  1  0.93750000  0.55050000  0.90840000  1.0 -0.5352848003
O  O33  1  0.61300000  0.06250000  0.90840000  1.0 -0.5347363779
O  O34  1  0.55050000  0.61300000  0.90840000  1.0 -0.5347363779
O  O35  1  0.06250000  0.44950000  0.90840000  1.0 -0.5352848003
O  O36  1  0.38700000  0.93750000  0.90840000  1.0 -0.5352848003
O  O37  1  0.61300000  0.55050000  0.40840000  1.0 -0.5352848003
O  O38  1  0.44950000  0.06250000  0.40840000  1.0 -0.5347363779
O  O39  1  0.93750000  0.38700000  0.40840000  1.0 -0.5352848003
O  O40  1  0.38700000  0.44950000  0.40840000  1.0 -0.5352848003
O  O41  1  0.55050000  0.93750000  0.40840000  1.0 -0.5352848003
O  O42  1  0.06250000  0.61300000  0.40840000  1.0 -0.5352848003
O  O43  1  0.55050000  0.61300000  0.09160000  1.0 -0.5352848003
O  O44  1  0.06250000  0.44950000  0.09160000  1.0 -0.5352848003
O  O45  1  0.38700000  0.93750000  0.09160000  1.0 -0.5352848003
O  O46  1  0.44950000  0.38700000  0.09160000  1.0 -0.5352848003
O  O47  1  0.93750000  0.55050000  0.09160000  1.0 -0.5352848003
O  O48  1  0.61300000  0.06250000  0.09160000  1.0 -0.5347363779
O  O49  1  0.51440000  0.65070000  0.50000000  1.0 -0.4812225033
O  O50  1  0.34930000  0.86370000  0.50000000  1.0 -0.4812225033
O  O51  1  0.13630000  0.48560000  0.50000000  1.0 -0.4812225033
O  O52  1  0.48560000  0.34930000  0.50000000  1.0 -0.4812225033
O  O53  1  0.65070000  0.13630000  0.50000000  1.0 -0.4812225033
O  O54  1  0.86370000  0.51440000  0.50000000  1.0 -0.4812225033
O  O55  1  0.65070000  0.51440000  0.00000000  1.0 -0.4812225033
O  O56  1  0.86370000  0.34930000  0.00000000  1.0 -0.4812225033
O  O57  1  0.48560000  0.13630000  0.00000000  1.0 -0.4812225033
O  O58  1  0.34930000  0.48560000  0.00000000  1.0 -0.4812225033
O  O59  1  0.13630000  0.65070000  0.00000000  1.0 -0.4812225033
O  O60  1  0.51440000  0.86370000  0.00000000  1.0 -0.4812225033
