# DDEC6 charges by PACMAN v1.1 (https://github.com/mtap-research/PACMAN-charge/)
data_ILUGAY_ASR_pacman
_symmetry_space_group_name_H-M   'P 1'
_cell_length_a   15.01440000
_cell_length_b   15.01440000
_cell_length_c   15.61650000
_cell_angle_alpha   90.00000000
_cell_angle_beta   90.00000000
_cell_angle_gamma   120.00000000
_symmetry_Int_Tables_number   1
_chemical_formula_structural   Yb2Co3H18C42(NO4)6
_chemical_formula_sum   'Yb4 Co6 H36 C84 N12 O48'
_cell_volume   3048.80958242
_cell_formula_units_Z   2
loop_
 _symmetry_equiv_pos_site_id
 _symmetry_equiv_pos_as_xyz
  1  'x, y, z'
loop_
 _atom_site_type_symbol
 _atom_site_label
 _atom_site_symmetry_multiplicity
 _atom_site_fract_x
 _atom_site_fract_y
 _atom_site_fract_z
 _atom_site_occupancy
 _atom_site_charge
Yb  Yb1  1  0.33333333  0.66666667  0.75000000  1.0 1.8200035861
Yb  Yb2  1  0.66666667  0.33333333  0.75000000  1.0 1.8200035861
Yb  Yb3  1  0.66666667  0.33333333  0.25000000  1.0 1.8200035861
Yb  Yb4  1  0.33333333  0.66666667  0.25000000  1.0 1.8200035861
Co  Co1  1  0.50000000  0.50000000  0.50000000  1.0 1.0621345511
Co  Co2  1  0.50000000  0.00000000  0.50000000  1.0 1.0621345511
Co  Co3  1  0.00000000  0.50000000  0.50000000  1.0 1.0621345511
Co  Co4  1  0.50000000  0.50000000  0.00000000  1.0 1.0621345511
Co  Co5  1  0.00000000  0.50000000  0.00000000  1.0 1.0621345511
Co  Co6  1  0.50000000  0.00000000  0.00000000  1.0 1.0621345511
H  H1  1  0.09840000  0.19680000  0.75000000  1.0 0.1037811099
H  H2  1  0.80320000  0.90160000  0.75000000  1.0 0.1037811099
H  H3  1  0.09840000  0.90160000  0.75000000  1.0 0.1037811099
H  H4  1  0.90160000  0.80320000  0.75000000  1.0 0.1037811099
H  H5  1  0.19680000  0.09840000  0.75000000  1.0 0.1037811099
H  H6  1  0.90160000  0.09840000  0.75000000  1.0 0.1037811099
H  H7  1  0.90160000  0.80320000  0.25000000  1.0 0.1037811099
H  H8  1  0.19680000  0.09840000  0.25000000  1.0 0.1037811099
H  H9  1  0.90160000  0.09840000  0.25000000  1.0 0.1037811099
H  H10  1  0.09840000  0.19680000  0.25000000  1.0 0.1037811099
H  H11  1  0.80320000  0.90160000  0.25000000  1.0 0.1037811099
H  H12  1  0.09840000  0.90160000  0.25000000  1.0 0.1037811099
H  H13  1  0.23220000  0.28720000  0.65320000  1.0 0.1355453005
H  H14  1  0.71280000  0.94500000  0.65320000  1.0 0.1355453005
H  H15  1  0.05500000  0.76780000  0.65320000  1.0 0.1355453005
H  H16  1  0.76780000  0.71280000  0.65320000  1.0 0.1355453005
H  H17  1  0.28720000  0.05500000  0.65320000  1.0 0.1355453005
H  H18  1  0.94500000  0.23220000  0.65320000  1.0 0.1355453005
H  H19  1  0.28720000  0.23220000  0.84680000  1.0 0.1355453005
H  H20  1  0.94500000  0.71280000  0.84680000  1.0 0.1355453005
H  H21  1  0.76780000  0.05500000  0.84680000  1.0 0.1355453005
H  H22  1  0.71280000  0.76780000  0.84680000  1.0 0.1355453005
H  H23  1  0.05500000  0.28720000  0.84680000  1.0 0.1355453005
H  H24  1  0.23220000  0.94500000  0.84680000  1.0 0.1355453005
H  H25  1  0.76780000  0.71280000  0.34680000  1.0 0.1355453005
H  H26  1  0.28720000  0.05500000  0.34680000  1.0 0.1355453005
H  H27  1  0.94500000  0.23220000  0.34680000  1.0 0.1355453005
H  H28  1  0.23220000  0.28720000  0.34680000  1.0 0.1355453005
H  H29  1  0.71280000  0.94500000  0.34680000  1.0 0.1355453005
H  H30  1  0.05500000  0.76780000  0.34680000  1.0 0.1355453005
H  H31  1  0.71280000  0.76780000  0.15320000  1.0 0.1355453005
H  H32  1  0.05500000  0.28720000  0.15320000  1.0 0.1355453005
H  H33  1  0.23220000  0.94500000  0.15320000  1.0 0.1355453005
H  H34  1  0.28720000  0.23220000  0.15320000  1.0 0.1355453005
H  H35  1  0.94500000  0.71280000  0.15320000  1.0 0.1355453005
H  H36  1  0.76780000  0.05500000  0.15320000  1.0 0.1355453005
C  C1  1  0.13420000  0.26840000  0.75000000  1.0 -0.0646733012
C  C2  1  0.73160000  0.86580000  0.75000000  1.0 -0.0646733012
C  C3  1  0.13420000  0.86580000  0.75000000  1.0 -0.0646733012
C  C4  1  0.86580000  0.73160000  0.75000000  1.0 -0.0646733012
C  C5  1  0.26840000  0.13420000  0.75000000  1.0 -0.0646733012
C  C6  1  0.86580000  0.13420000  0.75000000  1.0 -0.0646733012
C  C7  1  0.86580000  0.73160000  0.25000000  1.0 -0.0646733012
C  C8  1  0.26840000  0.13420000  0.25000000  1.0 -0.0646733012
C  C9  1  0.86580000  0.13420000  0.25000000  1.0 -0.0646733012
C  C10  1  0.13420000  0.26840000  0.25000000  1.0 -0.0646733012
C  C11  1  0.73160000  0.86580000  0.25000000  1.0 -0.0646733012
C  C12  1  0.13420000  0.86580000  0.25000000  1.0 -0.0646733012
C  C13  1  0.21420000  0.32180000  0.69270000  1.0 -0.1312930734
C  C14  1  0.67820000  0.89240000  0.69270000  1.0 -0.1312930734
C  C15  1  0.10760000  0.78580000  0.69270000  1.0 -0.1312930734
C  C16  1  0.78580000  0.67820000  0.69270000  1.0 -0.1312930734
C  C17  1  0.32180000  0.10760000  0.69270000  1.0 -0.1312930734
C  C18  1  0.89240000  0.21420000  0.69270000  1.0 -0.1312930734
C  C19  1  0.32180000  0.21420000  0.80730000  1.0 -0.1312930734
C  C20  1  0.89240000  0.67820000  0.80730000  1.0 -0.1312930734
C  C21  1  0.78580000  0.10760000  0.80730000  1.0 -0.1312930734
C  C22  1  0.67820000  0.78580000  0.80730000  1.0 -0.1312930734
C  C23  1  0.10760000  0.32180000  0.80730000  1.0 -0.1312930734
C  C24  1  0.21420000  0.89240000  0.80730000  1.0 -0.1312930734
C  C25  1  0.78580000  0.67820000  0.30730000  1.0 -0.1312930734
C  C26  1  0.32180000  0.10760000  0.30730000  1.0 -0.1312930734
C  C27  1  0.89240000  0.21420000  0.30730000  1.0 -0.1312930734
C  C28  1  0.21420000  0.32180000  0.30730000  1.0 -0.1312930734
C  C29  1  0.67820000  0.89240000  0.30730000  1.0 -0.1312930734
C  C30  1  0.10760000  0.78580000  0.30730000  1.0 -0.1312930734
C  C31  1  0.67820000  0.78580000  0.19270000  1.0 -0.1312930734
C  C32  1  0.10760000  0.32180000  0.19270000  1.0 -0.1312930734
C  C33  1  0.21420000  0.89240000  0.19270000  1.0 -0.1312930734
C  C34  1  0.32180000  0.21420000  0.19270000  1.0 -0.1312930734
C  C35  1  0.89240000  0.67820000  0.19270000  1.0 -0.1312930734
C  C36  1  0.78580000  0.10760000  0.19270000  1.0 -0.1312930734
C  C37  1  0.26600000  0.42760000  0.69610000  1.0 0.1343578432
C  C38  1  0.57240000  0.83840000  0.69610000  1.0 0.1355453005
C  C39  1  0.16160000  0.73400000  0.69610000  1.0 0.1343578432
C  C40  1  0.73400000  0.57240000  0.69610000  1.0 0.1343578432
C  C41  1  0.42760000  0.16160000  0.69610000  1.0 0.1343578432
C  C42  1  0.83840000  0.26600000  0.69610000  1.0 0.1343578432
C  C43  1  0.42760000  0.26600000  0.80390000  1.0 0.1343578432
C  C44  1  0.83840000  0.57240000  0.80390000  1.0 0.1343578432
C  C45  1  0.73400000  0.16160000  0.80390000  1.0 0.1343578432
C  C46  1  0.57240000  0.73400000  0.80390000  1.0 0.1343578432
C  C47  1  0.16160000  0.42760000  0.80390000  1.0 0.1343578432
C  C48  1  0.26600000  0.83840000  0.80390000  1.0 0.1343578432
C  C49  1  0.73400000  0.57240000  0.30390000  1.0 0.1343578432
C  C50  1  0.42760000  0.16160000  0.30390000  1.0 0.1343578432
C  C51  1  0.83840000  0.26600000  0.30390000  1.0 0.1343578432
C  C52  1  0.26600000  0.42760000  0.30390000  1.0 0.1343578432
C  C53  1  0.57240000  0.83840000  0.30390000  1.0 0.1343578432
C  C54  1  0.16160000  0.73400000  0.30390000  1.0 0.1343578432
C  C55  1  0.57240000  0.73400000  0.19610000  1.0 0.1343578432
C  C56  1  0.16160000  0.42760000  0.19610000  1.0 0.1343578432
C  C57  1  0.26600000  0.83840000  0.19610000  1.0 0.1343578432
C  C58  1  0.42760000  0.26600000  0.19610000  1.0 0.1343578432
C  C59  1  0.83840000  0.57240000  0.19610000  1.0 0.1343578432
C  C60  1  0.73400000  0.16160000  0.19610000  1.0 0.1343578432
C  C61  1  0.35560000  0.49410000  0.63870000  1.0 0.5781691468
C  C62  1  0.50590000  0.86150000  0.63870000  1.0 0.5781691468
C  C63  1  0.13850000  0.64440000  0.63870000  1.0 0.5781691468
C  C64  1  0.64440000  0.50590000  0.63870000  1.0 0.5781691468
C  C65  1  0.49410000  0.13850000  0.63870000  1.0 0.5781691468
C  C66  1  0.86150000  0.35560000  0.63870000  1.0 0.5781691468
C  C67  1  0.49410000  0.35560000  0.86130000  1.0 0.5781691468
C  C68  1  0.86150000  0.50590000  0.86130000  1.0 0.5781691468
C  C69  1  0.64440000  0.13850000  0.86130000  1.0 0.5781691468
C  C70  1  0.50590000  0.64440000  0.86130000  1.0 0.5781691468
C  C71  1  0.13850000  0.49410000  0.86130000  1.0 0.5781691468
C  C72  1  0.35560000  0.86150000  0.86130000  1.0 0.5781691468
C  C73  1  0.64440000  0.50590000  0.36130000  1.0 0.5781691468
C  C74  1  0.49410000  0.13850000  0.36130000  1.0 0.5781691468
C  C75  1  0.86150000  0.35560000  0.36130000  1.0 0.5781691468
C  C76  1  0.35560000  0.49410000  0.36130000  1.0 0.5781691468
C  C77  1  0.50590000  0.86150000  0.36130000  1.0 0.5781691468
C  C78  1  0.13850000  0.64440000  0.36130000  1.0 0.5781691468
C  C79  1  0.50590000  0.64440000  0.13870000  1.0 0.5781691468
C  C80  1  0.13850000  0.49410000  0.13870000  1.0 0.5781691468
C  C81  1  0.35560000  0.86150000  0.13870000  1.0 0.5781691468
C  C82  1  0.49410000  0.35560000  0.13870000  1.0 0.5781691468
C  C83  1  0.86150000  0.50590000  0.13870000  1.0 0.5781691468
C  C84  1  0.64440000  0.13850000  0.13870000  1.0 0.5781691468
N  N1  1  0.24000000  0.48000000  0.75000000  1.0 -0.3296418319
N  N2  1  0.52000000  0.76000000  0.75000000  1.0 -0.3296418319
N  N3  1  0.24000000  0.76000000  0.75000000  1.0 -0.3296418319
N  N4  1  0.76000000  0.52000000  0.75000000  1.0 -0.3296418319
N  N5  1  0.48000000  0.24000000  0.75000000  1.0 -0.3296418319
N  N6  1  0.76000000  0.24000000  0.75000000  1.0 -0.3296418319
N  N7  1  0.76000000  0.52000000  0.25000000  1.0 -0.3296418319
N  N8  1  0.48000000  0.24000000  0.25000000  1.0 -0.3296418319
N  N9  1  0.76000000  0.24000000  0.25000000  1.0 -0.3296418319
N  N10  1  0.24000000  0.48000000  0.25000000  1.0 -0.3296418319
N  N11  1  0.52000000  0.76000000  0.25000000  1.0 -0.3296418319
N  N12  1  0.24000000  0.76000000  0.25000000  1.0 -0.3296418319
O  O1  1  0.39080000  0.59040000  0.64460000  1.0 -0.5869740525
O  O2  1  0.40960000  0.80040000  0.64460000  1.0 -0.5869740525
O  O3  1  0.19960000  0.60920000  0.64460000  1.0 -0.5869740525
O  O4  1  0.60920000  0.40960000  0.64460000  1.0 -0.5869740525
O  O5  1  0.59040000  0.19960000  0.64460000  1.0 -0.5869740525
O  O6  1  0.80040000  0.39080000  0.64460000  1.0 -0.5869740525
O  O7  1  0.59040000  0.39080000  0.85540000  1.0 -0.5869740525
O  O8  1  0.80040000  0.40960000  0.85540000  1.0 -0.5869740525
O  O9  1  0.60920000  0.19960000  0.85540000  1.0 -0.5869740525
O  O10  1  0.40960000  0.60920000  0.85540000  1.0 -0.5869740525
O  O11  1  0.19960000  0.59040000  0.85540000  1.0 -0.5869740525
O  O12  1  0.39080000  0.80040000  0.85540000  1.0 -0.5869740525
O  O13  1  0.60920000  0.40960000  0.35540000  1.0 -0.5869740525
O  O14  1  0.59040000  0.19960000  0.35540000  1.0 -0.5869740525
O  O15  1  0.80040000  0.39080000  0.35540000  1.0 -0.5869740525
O  O16  1  0.39080000  0.59040000  0.35540000  1.0 -0.5869740525
O  O17  1  0.40960000  0.80040000  0.35540000  1.0 -0.5869740525
O  O18  1  0.19960000  0.60920000  0.35540000  1.0 -0.5869740525
O  O19  1  0.40960000  0.60920000  0.14460000  1.0 -0.5869740525
O  O20  1  0.19960000  0.59040000  0.14460000  1.0 -0.5869740525
O  O21  1  0.39080000  0.80040000  0.14460000  1.0 -0.5869740525
O  O22  1  0.59040000  0.39080000  0.14460000  1.0 -0.5869740525
O  O23  1  0.80040000  0.40960000  0.14460000  1.0 -0.5869740525
O  O24  1  0.60920000  0.19960000  0.14460000  1.0 -0.5869740525
O  O25  1  0.38700000  0.44950000  0.59160000  1.0 -0.5534551992
O  O26  1  0.55050000  0.93750000  0.59160000  1.0 -0.5534551992
O  O27  1  0.06250000  0.61300000  0.59160000  1.0 -0.5534551992
O  O28  1  0.61300000  0.55050000  0.59160000  1.0 -0.5534551992
O  O29  1  0.44950000  0.06250000  0.59160000  1.0 -0.5534551992
O  O30  1  0.93750000  0.38700000  0.59160000  1.0 -0.5534551992
O  O31  1  0.44950000  0.38700000  0.90840000  1.0 -0.5534551992
O  O32  1  0.93750000  0.55050000  0.90840000  1.0 -0.5534551992
O  O33  1  0.61300000  0.06250000  0.90840000  1.0 -0.5534551992
O  O34  1  0.55050000  0.61300000  0.90840000  1.0 -0.5534551992
O  O35  1  0.06250000  0.44950000  0.90840000  1.0 -0.5534551992
O  O36  1  0.38700000  0.93750000  0.90840000  1.0 -0.5534551992
O  O37  1  0.61300000  0.55050000  0.40840000  1.0 -0.5534551992
O  O38  1  0.44950000  0.06250000  0.40840000  1.0 -0.5534551992
O  O39  1  0.93750000  0.38700000  0.40840000  1.0 -0.5534551992
O  O40  1  0.38700000  0.44950000  0.40840000  1.0 -0.5534551992
O  O41  1  0.55050000  0.93750000  0.40840000  1.0 -0.5534551992
O  O42  1  0.06250000  0.61300000  0.40840000  1.0 -0.5534551992
O  O43  1  0.55050000  0.61300000  0.09160000  1.0 -0.5534551992
O  O44  1  0.06250000  0.44950000  0.09160000  1.0 -0.5534551992
O  O45  1  0.38700000  0.93750000  0.09160000  1.0 -0.5534551992
O  O46  1  0.44950000  0.38700000  0.09160000  1.0 -0.5534551992
O  O47  1  0.93750000  0.55050000  0.09160000  1.0 -0.5534551992
O  O48  1  0.61300000  0.06250000  0.09160000  1.0 -0.5534551992
