# DDEC6 charges by PACMAN v1.1 (https://github.com/mtap-research/PACMAN-charge/)
data_ILUHON_ASR_pacman
_symmetry_space_group_name_H-M   'P 1'
_cell_length_a   15.32900000
_cell_length_b   15.32900000
_cell_length_c   15.40300000
_cell_angle_alpha   90.00000000
_cell_angle_beta   90.00000000
_cell_angle_gamma   120.00000000
_symmetry_Int_Tables_number   1
_chemical_formula_structural   Nd2Fe3H18C42(NO4)6
_chemical_formula_sum   'Nd4 Fe6 H36 C84 N12 O48'
_cell_volume   3134.46623243
_cell_formula_units_Z   2
loop_
 _symmetry_equiv_pos_site_id
 _symmetry_equiv_pos_as_xyz
  1  'x, y, z'
loop_
 _atom_site_type_symbol
 _atom_site_label
 _atom_site_symmetry_multiplicity
 _atom_site_fract_x
 _atom_site_fract_y
 _atom_site_fract_z
 _atom_site_occupancy
 _atom_site_charge
Nd  Nd1  1  0.66666667  0.33333333  0.25000000  1.0 1.8263884173
Nd  Nd2  1  0.33333333  0.66666667  0.25000000  1.0 1.8263884173
Nd  Nd3  1  0.33333333  0.66666667  0.75000000  1.0 1.8263884173
Nd  Nd4  1  0.66666667  0.33333333  0.75000000  1.0 1.8263884173
Fe  Fe1  1  0.00000000  0.50000000  0.00000000  1.0 1.0531067238
Fe  Fe2  1  0.50000000  0.00000000  0.00000000  1.0 1.0589515553
Fe  Fe3  1  0.50000000  0.50000000  0.00000000  1.0 1.0531067238
Fe  Fe4  1  0.50000000  0.00000000  0.50000000  1.0 1.0589515553
Fe  Fe5  1  0.50000000  0.50000000  0.50000000  1.0 1.0531067238
Fe  Fe6  1  0.00000000  0.50000000  0.50000000  1.0 1.0531067238
H  H1  1  0.94593000  0.71363000  0.15550000  1.0 0.1363830534
H  H2  1  0.23230000  0.94593000  0.15550000  1.0 0.1363830534
H  H3  1  0.28637000  0.23230000  0.15550000  1.0 0.1363830534
H  H4  1  0.05407000  0.28637000  0.15550000  1.0 0.1363830534
H  H5  1  0.76770000  0.05407000  0.15550000  1.0 0.1363830534
H  H6  1  0.71363000  0.76770000  0.15550000  1.0 0.1363830534
H  H7  1  0.28637000  0.05407000  0.34450000  1.0 0.1363830534
H  H8  1  0.23230000  0.28637000  0.34450000  1.0 0.1363830534
H  H9  1  0.94593000  0.23230000  0.34450000  1.0 0.1363830534
H  H10  1  0.71363000  0.94593000  0.34450000  1.0 0.1363830534
H  H11  1  0.76770000  0.71363000  0.34450000  1.0 0.1363830534
H  H12  1  0.05407000  0.76770000  0.34450000  1.0 0.1363830534
H  H13  1  0.05407000  0.28637000  0.84450000  1.0 0.1363830534
H  H14  1  0.76770000  0.05407000  0.84450000  1.0 0.1363830534
H  H15  1  0.71363000  0.76770000  0.84450000  1.0 0.1363830534
H  H16  1  0.94593000  0.71363000  0.84450000  1.0 0.1363830534
H  H17  1  0.23230000  0.94593000  0.84450000  1.0 0.1363830534
H  H18  1  0.28637000  0.23230000  0.84450000  1.0 0.1363830534
H  H19  1  0.71363000  0.94593000  0.65550000  1.0 0.1363830534
H  H20  1  0.76770000  0.71363000  0.65550000  1.0 0.1363830534
H  H21  1  0.05407000  0.76770000  0.65550000  1.0 0.1363830534
H  H22  1  0.28637000  0.05407000  0.65550000  1.0 0.1363830534
H  H23  1  0.23230000  0.28637000  0.65550000  1.0 0.1363830534
H  H24  1  0.94593000  0.23230000  0.65550000  1.0 0.1363830534
H  H25  1  0.90072000  0.80143000  0.25000000  1.0 0.1059321598
H  H26  1  0.09928000  0.90072000  0.25000000  1.0 0.1059321598
H  H27  1  0.19857000  0.09928000  0.25000000  1.0 0.1059321598
H  H28  1  0.09928000  0.19857000  0.25000000  1.0 0.1059321598
H  H29  1  0.90072000  0.09928000  0.25000000  1.0 0.1059321598
H  H30  1  0.80143000  0.90072000  0.25000000  1.0 0.1059321598
H  H31  1  0.09928000  0.19857000  0.75000000  1.0 0.1059321598
H  H32  1  0.90072000  0.09928000  0.75000000  1.0 0.1059321598
H  H33  1  0.80143000  0.90072000  0.75000000  1.0 0.1059321598
H  H34  1  0.90072000  0.80143000  0.75000000  1.0 0.1059321598
H  H35  1  0.09928000  0.90072000  0.75000000  1.0 0.1059321598
H  H36  1  0.19857000  0.09928000  0.75000000  1.0 0.1059321598
C  C1  1  0.86343000  0.51223000  0.13870000  1.0 0.5748635516
C  C2  1  0.35120000  0.86343000  0.13870000  1.0 0.5758838043
C  C3  1  0.48777000  0.35120000  0.13870000  1.0 0.5758838043
C  C4  1  0.13657000  0.48777000  0.13870000  1.0 0.5748635516
C  C5  1  0.64880000  0.13657000  0.13870000  1.0 0.5758838043
C  C6  1  0.51223000  0.64880000  0.13870000  1.0 0.5758838043
C  C7  1  0.48777000  0.13657000  0.36130000  1.0 0.5758838043
C  C8  1  0.35120000  0.48777000  0.36130000  1.0 0.5758838043
C  C9  1  0.86343000  0.35120000  0.36130000  1.0 0.5758838043
C  C10  1  0.51223000  0.86343000  0.36130000  1.0 0.5758838043
C  C11  1  0.64880000  0.51223000  0.36130000  1.0 0.5758838043
C  C12  1  0.13657000  0.64880000  0.36130000  1.0 0.5758838043
C  C13  1  0.13657000  0.48777000  0.86130000  1.0 0.5748635516
C  C14  1  0.64880000  0.13657000  0.86130000  1.0 0.5758838043
C  C15  1  0.51223000  0.64880000  0.86130000  1.0 0.5758838043
C  C16  1  0.86343000  0.51223000  0.86130000  1.0 0.5748635516
C  C17  1  0.35120000  0.86343000  0.86130000  1.0 0.5758838043
C  C18  1  0.48777000  0.35120000  0.86130000  1.0 0.5758838043
C  C19  1  0.51223000  0.86343000  0.63870000  1.0 0.5758838043
C  C20  1  0.64880000  0.51223000  0.63870000  1.0 0.5748635516
C  C21  1  0.13657000  0.64880000  0.63870000  1.0 0.5758838043
C  C22  1  0.48777000  0.13657000  0.63870000  1.0 0.5758838043
C  C23  1  0.35120000  0.48777000  0.63870000  1.0 0.5758838043
C  C24  1  0.86343000  0.35120000  0.63870000  1.0 0.5758838043
C  C25  1  0.83993000  0.57683000  0.19610000  1.0 0.1229892961
C  C26  1  0.26310000  0.83993000  0.19610000  1.0 0.1229892961
C  C27  1  0.42317000  0.26310000  0.19610000  1.0 0.1229892961
C  C28  1  0.16007000  0.42317000  0.19610000  1.0 0.1229892961
C  C29  1  0.73690000  0.16007000  0.19610000  1.0 0.1229892961
C  C30  1  0.57683000  0.73690000  0.19610000  1.0 0.1229892961
C  C31  1  0.42317000  0.16007000  0.30390000  1.0 0.1229892961
C  C32  1  0.26310000  0.42317000  0.30390000  1.0 0.1229892961
C  C33  1  0.83993000  0.26310000  0.30390000  1.0 0.1229892961
C  C34  1  0.57683000  0.83993000  0.30390000  1.0 0.1229892961
C  C35  1  0.73690000  0.57683000  0.30390000  1.0 0.1229892961
C  C36  1  0.16007000  0.73690000  0.30390000  1.0 0.1229892961
C  C37  1  0.16007000  0.42317000  0.80390000  1.0 0.1229892961
C  C38  1  0.73690000  0.16007000  0.80390000  1.0 0.1229892961
C  C39  1  0.57683000  0.73690000  0.80390000  1.0 0.1229892961
C  C40  1  0.83993000  0.57683000  0.80390000  1.0 0.1229892961
C  C41  1  0.26310000  0.83993000  0.80390000  1.0 0.1229892961
C  C42  1  0.42317000  0.26310000  0.80390000  1.0 0.1229892961
C  C43  1  0.57683000  0.83993000  0.69610000  1.0 0.1229892961
C  C44  1  0.73690000  0.57683000  0.69610000  1.0 0.1229892961
C  C45  1  0.16007000  0.73690000  0.69610000  1.0 0.1229892961
C  C46  1  0.42317000  0.16007000  0.69610000  1.0 0.1229892961
C  C47  1  0.26310000  0.42317000  0.69610000  1.0 0.1229892961
C  C48  1  0.83993000  0.26310000  0.69610000  1.0 0.1229892961
C  C49  1  0.89273000  0.67953000  0.19410000  1.0 -0.1366969336
C  C50  1  0.21320000  0.89273000  0.19410000  1.0 -0.1366969336
C  C51  1  0.32047000  0.21320000  0.19410000  1.0 -0.1366969336
C  C52  1  0.10727000  0.32047000  0.19410000  1.0 -0.1366969336
C  C53  1  0.78680000  0.10727000  0.19410000  1.0 -0.1366969336
C  C54  1  0.67953000  0.78680000  0.19410000  1.0 -0.1366969336
C  C55  1  0.32047000  0.10727000  0.30590000  1.0 -0.1366969336
C  C56  1  0.21320000  0.32047000  0.30590000  1.0 -0.1366969336
C  C57  1  0.89273000  0.21320000  0.30590000  1.0 -0.1366969336
C  C58  1  0.67953000  0.89273000  0.30590000  1.0 -0.1366969336
C  C59  1  0.78680000  0.67953000  0.30590000  1.0 -0.1366969336
C  C60  1  0.10727000  0.78680000  0.30590000  1.0 -0.1366969336
C  C61  1  0.10727000  0.32047000  0.80590000  1.0 -0.1366969336
C  C62  1  0.78680000  0.10727000  0.80590000  1.0 -0.1366969336
C  C63  1  0.67953000  0.78680000  0.80590000  1.0 -0.1366969336
C  C64  1  0.89273000  0.67953000  0.80590000  1.0 -0.1366969336
C  C65  1  0.21320000  0.89273000  0.80590000  1.0 -0.1366969336
C  C66  1  0.32047000  0.21320000  0.80590000  1.0 -0.1366969336
C  C67  1  0.67953000  0.89273000  0.69410000  1.0 -0.1366969336
C  C68  1  0.78680000  0.67953000  0.69410000  1.0 -0.1366969336
C  C69  1  0.10727000  0.78680000  0.69410000  1.0 -0.1366969336
C  C70  1  0.32047000  0.10727000  0.69410000  1.0 -0.1366969336
C  C71  1  0.21320000  0.32047000  0.69410000  1.0 -0.1366969336
C  C72  1  0.89273000  0.21320000  0.69410000  1.0 -0.1366969336
C  C73  1  0.86572000  0.73143000  0.25000000  1.0 -0.0524811957
C  C74  1  0.13428000  0.86572000  0.25000000  1.0 -0.0524811957
C  C75  1  0.26857000  0.13428000  0.25000000  1.0 -0.0524811957
C  C76  1  0.13428000  0.26857000  0.25000000  1.0 -0.0524811957
C  C77  1  0.86572000  0.13428000  0.25000000  1.0 -0.0524811957
C  C78  1  0.73143000  0.86572000  0.25000000  1.0 -0.0524811957
C  C79  1  0.13428000  0.26857000  0.75000000  1.0 -0.0524811957
C  C80  1  0.86572000  0.13428000  0.75000000  1.0 -0.0524811957
C  C81  1  0.73143000  0.86572000  0.75000000  1.0 -0.0524811957
C  C82  1  0.86572000  0.73143000  0.75000000  1.0 -0.0524811957
C  C83  1  0.13428000  0.86572000  0.75000000  1.0 -0.0524811957
C  C84  1  0.26857000  0.13428000  0.75000000  1.0 -0.0524811957
N  N1  1  0.76277000  0.52553000  0.25000000  1.0 -0.316772969
N  N2  1  0.23723000  0.76277000  0.25000000  1.0 -0.316772969
N  N3  1  0.47447000  0.23723000  0.25000000  1.0 -0.316772969
N  N4  1  0.23723000  0.47447000  0.25000000  1.0 -0.316772969
N  N5  1  0.76277000  0.23723000  0.25000000  1.0 -0.316772969
N  N6  1  0.52553000  0.76277000  0.25000000  1.0 -0.316772969
N  N7  1  0.23723000  0.47447000  0.75000000  1.0 -0.316772969
N  N8  1  0.76277000  0.23723000  0.75000000  1.0 -0.316772969
N  N9  1  0.52553000  0.76277000  0.75000000  1.0 -0.316772969
N  N10  1  0.76277000  0.52553000  0.75000000  1.0 -0.316772969
N  N11  1  0.23723000  0.76277000  0.75000000  1.0 -0.316772969
N  N12  1  0.47447000  0.23723000  0.75000000  1.0 -0.316772969
O  O1  1  0.80363000  0.41823000  0.14190000  1.0 -0.5910825346
O  O2  1  0.38540000  0.80363000  0.14190000  1.0 -0.5910825346
O  O3  1  0.58177000  0.38540000  0.14190000  1.0 -0.5910825346
O  O4  1  0.19637000  0.58177000  0.14190000  1.0 -0.5910825346
O  O5  1  0.61460000  0.19637000  0.14190000  1.0 -0.5910825346
O  O6  1  0.41823000  0.61460000  0.14190000  1.0 -0.5910825346
O  O7  1  0.58177000  0.19637000  0.35810000  1.0 -0.5910825346
O  O8  1  0.38540000  0.58177000  0.35810000  1.0 -0.5910825346
O  O9  1  0.80363000  0.38540000  0.35810000  1.0 -0.5910825346
O  O10  1  0.41823000  0.80363000  0.35810000  1.0 -0.5910825346
O  O11  1  0.61460000  0.41823000  0.35810000  1.0 -0.5910825346
O  O12  1  0.19637000  0.61460000  0.35810000  1.0 -0.5910825346
O  O13  1  0.19637000  0.58177000  0.85810000  1.0 -0.5910825346
O  O14  1  0.61460000  0.19637000  0.85810000  1.0 -0.5910825346
O  O15  1  0.41823000  0.61460000  0.85810000  1.0 -0.5910825346
O  O16  1  0.80363000  0.41823000  0.85810000  1.0 -0.5910825346
O  O17  1  0.38540000  0.80363000  0.85810000  1.0 -0.5910825346
O  O18  1  0.58177000  0.38540000  0.85810000  1.0 -0.5910825346
O  O19  1  0.41823000  0.80363000  0.64190000  1.0 -0.5910825346
O  O20  1  0.61460000  0.41823000  0.64190000  1.0 -0.5910825346
O  O21  1  0.19637000  0.61460000  0.64190000  1.0 -0.5910825346
O  O22  1  0.58177000  0.19637000  0.64190000  1.0 -0.5910825346
O  O23  1  0.38540000  0.58177000  0.64190000  1.0 -0.5910825346
O  O24  1  0.80363000  0.38540000  0.64190000  1.0 -0.5910825346
O  O25  1  0.93963000  0.55573000  0.09270000  1.0 -0.5434759273
O  O26  1  0.38390000  0.93963000  0.09270000  1.0 -0.5452100649
O  O27  1  0.44427000  0.38390000  0.09270000  1.0 -0.5434759273
O  O28  1  0.06037000  0.44427000  0.09270000  1.0 -0.5434759273
O  O29  1  0.61610000  0.06037000  0.09270000  1.0 -0.5434759273
O  O30  1  0.55573000  0.61610000  0.09270000  1.0 -0.5434759273
O  O31  1  0.44427000  0.06037000  0.40730000  1.0 -0.5434759273
O  O32  1  0.38390000  0.44427000  0.40730000  1.0 -0.5434759273
O  O33  1  0.93963000  0.38390000  0.40730000  1.0 -0.5434759273
O  O34  1  0.55573000  0.93963000  0.40730000  1.0 -0.5452100649
O  O35  1  0.61610000  0.55573000  0.40730000  1.0 -0.5434759273
O  O36  1  0.06037000  0.61610000  0.40730000  1.0 -0.5434759273
O  O37  1  0.06037000  0.44427000  0.90730000  1.0 -0.5434759273
O  O38  1  0.61610000  0.06037000  0.90730000  1.0 -0.5434759273
O  O39  1  0.55573000  0.61610000  0.90730000  1.0 -0.5434759273
O  O40  1  0.93963000  0.55573000  0.90730000  1.0 -0.5434759273
O  O41  1  0.38390000  0.93963000  0.90730000  1.0 -0.5452100649
O  O42  1  0.44427000  0.38390000  0.90730000  1.0 -0.5434759273
O  O43  1  0.55573000  0.93963000  0.59270000  1.0 -0.5452100649
O  O44  1  0.61610000  0.55573000  0.59270000  1.0 -0.5434759273
O  O45  1  0.06037000  0.61610000  0.59270000  1.0 -0.5434759273
O  O46  1  0.44427000  0.06037000  0.59270000  1.0 -0.5434759273
O  O47  1  0.38390000  0.44427000  0.59270000  1.0 -0.5434759273
O  O48  1  0.93963000  0.38390000  0.59270000  1.0 -0.5434759273
