# DDEC6 charges by PACMAN v1.1 (https://github.com/mtap-research/PACMAN-charge/)
data_ILUHUT_ASR_pacman
_symmetry_space_group_name_H-M   'P 1'
_cell_length_a   15.49970000
_cell_length_b   15.49970000
_cell_length_c   15.23480000
_cell_angle_alpha   90.00000000
_cell_angle_beta   90.00000000
_cell_angle_gamma   120.00000000
_symmetry_Int_Tables_number   1
_chemical_formula_structural   Pr2Co3H18C42(NO4)6
_chemical_formula_sum   'Pr4 Co6 H36 C84 N12 O48'
_cell_volume   3169.66944769
_cell_formula_units_Z   2
loop_
 _symmetry_equiv_pos_site_id
 _symmetry_equiv_pos_as_xyz
  1  'x, y, z'
loop_
 _atom_site_type_symbol
 _atom_site_label
 _atom_site_symmetry_multiplicity
 _atom_site_fract_x
 _atom_site_fract_y
 _atom_site_fract_z
 _atom_site_occupancy
 _atom_site_charge
Pr  Pr1  1  0.66666667  0.33333333  0.75000000  1.0 1.8560079089
Pr  Pr2  1  0.33333333  0.66666667  0.75000000  1.0 1.8560079089
Pr  Pr3  1  0.33333333  0.66666667  0.25000000  1.0 1.8560079089
Pr  Pr4  1  0.66666667  0.33333333  0.25000000  1.0 1.8560079089
Co  Co1  1  0.00000000  0.50000000  0.50000000  1.0 1.0585548035
Co  Co2  1  0.50000000  0.50000000  0.50000000  1.0 1.0585548035
Co  Co3  1  0.50000000  0.00000000  0.50000000  1.0 1.0585548035
Co  Co4  1  0.50000000  0.00000000  0.00000000  1.0 1.0585548035
Co  Co5  1  0.50000000  0.50000000  0.00000000  1.0 1.0585548035
Co  Co6  1  0.00000000  0.50000000  0.00000000  1.0 1.0585548035
H  H1  1  0.94650000  0.71300000  0.65570000  1.0 0.1364275119
H  H2  1  0.28700000  0.23350000  0.65570000  1.0 0.1364275119
H  H3  1  0.76650000  0.05350000  0.65570000  1.0 0.1364275119
H  H4  1  0.05350000  0.28700000  0.65570000  1.0 0.1364275119
H  H5  1  0.71300000  0.76650000  0.65570000  1.0 0.1364275119
H  H6  1  0.23350000  0.94650000  0.65570000  1.0 0.1364275119
H  H7  1  0.71300000  0.94650000  0.84430000  1.0 0.1364275119
H  H8  1  0.23350000  0.28700000  0.84430000  1.0 0.1364275119
H  H9  1  0.05350000  0.76650000  0.84430000  1.0 0.1364275119
H  H10  1  0.28700000  0.05350000  0.84430000  1.0 0.1364275119
H  H11  1  0.76650000  0.71300000  0.84430000  1.0 0.1364275119
H  H12  1  0.94650000  0.23350000  0.84430000  1.0 0.1364275119
H  H13  1  0.05350000  0.28700000  0.34430000  1.0 0.1364275119
H  H14  1  0.71300000  0.76650000  0.34430000  1.0 0.1364275119
H  H15  1  0.23350000  0.94650000  0.34430000  1.0 0.1364275119
H  H16  1  0.94650000  0.71300000  0.34430000  1.0 0.1364275119
H  H17  1  0.28700000  0.23350000  0.34430000  1.0 0.1364275119
H  H18  1  0.76650000  0.05350000  0.34430000  1.0 0.1364275119
H  H19  1  0.28700000  0.05350000  0.15570000  1.0 0.1364275119
H  H20  1  0.76650000  0.71300000  0.15570000  1.0 0.1364275119
H  H21  1  0.94650000  0.23350000  0.15570000  1.0 0.1364275119
H  H22  1  0.71300000  0.94650000  0.15570000  1.0 0.1364275119
H  H23  1  0.23350000  0.28700000  0.15570000  1.0 0.1364275119
H  H24  1  0.05350000  0.76650000  0.15570000  1.0 0.1364275119
H  H25  1  0.89960000  0.79920000  0.75000000  1.0 0.1068346465
H  H26  1  0.20080000  0.10040000  0.75000000  1.0 0.1068346465
H  H27  1  0.89960000  0.10040000  0.75000000  1.0 0.1068346465
H  H28  1  0.10040000  0.20080000  0.75000000  1.0 0.1068346465
H  H29  1  0.79920000  0.89960000  0.75000000  1.0 0.1068346465
H  H30  1  0.10040000  0.89960000  0.75000000  1.0 0.1068346465
H  H31  1  0.10040000  0.20080000  0.25000000  1.0 0.1068346465
H  H32  1  0.79920000  0.89960000  0.25000000  1.0 0.1068346465
H  H33  1  0.10040000  0.89960000  0.25000000  1.0 0.1068346465
H  H34  1  0.89960000  0.79920000  0.25000000  1.0 0.1068346465
H  H35  1  0.20080000  0.10040000  0.25000000  1.0 0.1068346465
H  H36  1  0.89960000  0.10040000  0.25000000  1.0 0.1068346465
C  C1  1  0.86550000  0.51230000  0.63880000  1.0 0.5740859858
C  C2  1  0.48770000  0.35320000  0.63880000  1.0 0.5740859858
C  C3  1  0.64680000  0.13450000  0.63880000  1.0 0.5740859858
C  C4  1  0.13450000  0.48770000  0.63880000  1.0 0.5740859858
C  C5  1  0.51230000  0.64680000  0.63880000  1.0 0.5740859858
C  C6  1  0.35320000  0.86550000  0.63880000  1.0 0.5740859858
C  C7  1  0.51230000  0.86550000  0.86120000  1.0 0.5740859858
C  C8  1  0.35320000  0.48770000  0.86120000  1.0 0.5740859858
C  C9  1  0.13450000  0.64680000  0.86120000  1.0 0.5740859858
C  C10  1  0.48770000  0.13450000  0.86120000  1.0 0.5740859858
C  C11  1  0.64680000  0.51230000  0.86120000  1.0 0.5740859858
C  C12  1  0.86550000  0.35320000  0.86120000  1.0 0.5740859858
C  C13  1  0.13450000  0.48770000  0.36120000  1.0 0.5740859858
C  C14  1  0.51230000  0.64680000  0.36120000  1.0 0.5740859858
C  C15  1  0.35320000  0.86550000  0.36120000  1.0 0.5740859858
C  C16  1  0.86550000  0.51230000  0.36120000  1.0 0.5740859858
C  C17  1  0.48770000  0.35320000  0.36120000  1.0 0.5740859858
C  C18  1  0.64680000  0.13450000  0.36120000  1.0 0.5740859858
C  C19  1  0.48770000  0.13450000  0.13880000  1.0 0.5740859858
C  C20  1  0.64680000  0.51230000  0.13880000  1.0 0.5740859858
C  C21  1  0.86550000  0.35320000  0.13880000  1.0 0.5740859858
C  C22  1  0.51230000  0.86550000  0.13880000  1.0 0.5740859858
C  C23  1  0.35320000  0.48770000  0.13880000  1.0 0.5740859858
C  C24  1  0.13450000  0.64680000  0.13880000  1.0 0.5740859858
C  C25  1  0.84080000  0.57640000  0.69630000  1.0 0.1364275119
C  C26  1  0.42360000  0.26440000  0.69630000  1.0 0.1364275119
C  C27  1  0.73560000  0.15920000  0.69630000  1.0 0.1364275119
C  C28  1  0.15920000  0.42360000  0.69630000  1.0 0.1364275119
C  C29  1  0.57640000  0.73560000  0.69630000  1.0 0.1364275119
C  C30  1  0.26440000  0.84080000  0.69630000  1.0 0.1364275119
C  C31  1  0.57640000  0.84080000  0.80370000  1.0 0.1364275119
C  C32  1  0.26440000  0.42360000  0.80370000  1.0 0.1364275119
C  C33  1  0.15920000  0.73560000  0.80370000  1.0 0.1364275119
C  C34  1  0.42360000  0.15920000  0.80370000  1.0 0.1364275119
C  C35  1  0.73560000  0.57640000  0.80370000  1.0 0.1364275119
C  C36  1  0.84080000  0.26440000  0.80370000  1.0 0.1364275119
C  C37  1  0.15920000  0.42360000  0.30370000  1.0 0.1364275119
C  C38  1  0.57640000  0.73560000  0.30370000  1.0 0.1364275119
C  C39  1  0.26440000  0.84080000  0.30370000  1.0 0.1364275119
C  C40  1  0.84080000  0.57640000  0.30370000  1.0 0.1364275119
C  C41  1  0.42360000  0.26440000  0.30370000  1.0 0.1364275119
C  C42  1  0.73560000  0.15920000  0.30370000  1.0 0.1364275119
C  C43  1  0.42360000  0.15920000  0.19630000  1.0 0.1364275119
C  C44  1  0.73560000  0.57640000  0.19630000  1.0 0.1364275119
C  C45  1  0.84080000  0.26440000  0.19630000  1.0 0.1364275119
C  C46  1  0.57640000  0.84080000  0.19630000  1.0 0.1364275119
C  C47  1  0.26440000  0.42360000  0.19630000  1.0 0.1364275119
C  C48  1  0.15920000  0.73560000  0.19630000  1.0 0.1364275119
C  C49  1  0.89330000  0.67900000  0.69410000  1.0 -0.1365290233
C  C50  1  0.32100000  0.21430000  0.69410000  1.0 -0.1365290233
C  C51  1  0.78570000  0.10670000  0.69410000  1.0 -0.1365290233
C  C52  1  0.10670000  0.32100000  0.69410000  1.0 -0.1365290233
C  C53  1  0.67900000  0.78570000  0.69410000  1.0 -0.1365290233
C  C54  1  0.21430000  0.89330000  0.69410000  1.0 -0.1365290233
C  C55  1  0.67900000  0.89330000  0.80590000  1.0 -0.1365290233
C  C56  1  0.21430000  0.32100000  0.80590000  1.0 -0.1365290233
C  C57  1  0.10670000  0.78570000  0.80590000  1.0 -0.1365290233
C  C58  1  0.32100000  0.10670000  0.80590000  1.0 -0.1365290233
C  C59  1  0.78570000  0.67900000  0.80590000  1.0 -0.1365290233
C  C60  1  0.89330000  0.21430000  0.80590000  1.0 -0.1365290233
C  C61  1  0.10670000  0.32100000  0.30590000  1.0 -0.1365290233
C  C62  1  0.67900000  0.78570000  0.30590000  1.0 -0.1365290233
C  C63  1  0.21430000  0.89330000  0.30590000  1.0 -0.1365290233
C  C64  1  0.89330000  0.67900000  0.30590000  1.0 -0.1365290233
C  C65  1  0.32100000  0.21430000  0.30590000  1.0 -0.1365290233
C  C66  1  0.78570000  0.10670000  0.30590000  1.0 -0.1365290233
C  C67  1  0.32100000  0.10670000  0.19410000  1.0 -0.1365290233
C  C68  1  0.78570000  0.67900000  0.19410000  1.0 -0.1365290233
C  C69  1  0.89330000  0.21430000  0.19410000  1.0 -0.1365290233
C  C70  1  0.67900000  0.89330000  0.19410000  1.0 -0.1365290233
C  C71  1  0.21430000  0.32100000  0.19410000  1.0 -0.1365290233
C  C72  1  0.10670000  0.78570000  0.19410000  1.0 -0.1365290233
C  C73  1  0.86495000  0.72990000  0.75000000  1.0 -0.0571526213
C  C74  1  0.27010000  0.13505000  0.75000000  1.0 -0.0571526213
C  C75  1  0.86495000  0.13505000  0.75000000  1.0 -0.0571526213
C  C76  1  0.13505000  0.27010000  0.75000000  1.0 -0.0571526213
C  C77  1  0.72990000  0.86495000  0.75000000  1.0 -0.0571526213
C  C78  1  0.13505000  0.86495000  0.75000000  1.0 -0.0571526213
C  C79  1  0.13505000  0.27010000  0.25000000  1.0 -0.0571526213
C  C80  1  0.72990000  0.86495000  0.25000000  1.0 -0.0571526213
C  C81  1  0.13505000  0.86495000  0.25000000  1.0 -0.0571526213
C  C82  1  0.86495000  0.72990000  0.25000000  1.0 -0.0571526213
C  C83  1  0.27010000  0.13505000  0.25000000  1.0 -0.0571526213
C  C84  1  0.86495000  0.13505000  0.25000000  1.0 -0.0571526213
N  N1  1  0.76290000  0.52580000  0.75000000  1.0 -0.3270555286
N  N2  1  0.47420000  0.23710000  0.75000000  1.0 -0.3270555286
N  N3  1  0.76290000  0.23710000  0.75000000  1.0 -0.3270555286
N  N4  1  0.23710000  0.47420000  0.75000000  1.0 -0.3270555286
N  N5  1  0.52580000  0.76290000  0.75000000  1.0 -0.3270555286
N  N6  1  0.23710000  0.76290000  0.75000000  1.0 -0.3270555286
N  N7  1  0.23710000  0.47420000  0.25000000  1.0 -0.3270555286
N  N8  1  0.52580000  0.76290000  0.25000000  1.0 -0.3270555286
N  N9  1  0.23710000  0.76290000  0.25000000  1.0 -0.3270555286
N  N10  1  0.76290000  0.52580000  0.25000000  1.0 -0.3270555286
N  N11  1  0.47420000  0.23710000  0.25000000  1.0 -0.3270555286
N  N12  1  0.76290000  0.23710000  0.25000000  1.0 -0.3270555286
O  O1  1  0.80470000  0.41871000  0.64083000  1.0 -0.602197036
O  O2  1  0.58129000  0.38599000  0.64083000  1.0 -0.602197036
O  O3  1  0.61401000  0.19530000  0.64083000  1.0 -0.602197036
O  O4  1  0.19530000  0.58129000  0.64083000  1.0 -0.602197036
O  O5  1  0.41871000  0.61401000  0.64083000  1.0 -0.602197036
O  O6  1  0.38599000  0.80470000  0.64083000  1.0 -0.602197036
O  O7  1  0.41871000  0.80470000  0.85917000  1.0 -0.602197036
O  O8  1  0.38599000  0.58129000  0.85917000  1.0 -0.602197036
O  O9  1  0.19530000  0.61401000  0.85917000  1.0 -0.602197036
O  O10  1  0.58129000  0.19530000  0.85917000  1.0 -0.602197036
O  O11  1  0.61401000  0.41871000  0.85917000  1.0 -0.602197036
O  O12  1  0.80470000  0.38599000  0.85917000  1.0 -0.602197036
O  O13  1  0.19530000  0.58129000  0.35917000  1.0 -0.602197036
O  O14  1  0.41871000  0.61401000  0.35917000  1.0 -0.602197036
O  O15  1  0.38599000  0.80470000  0.35917000  1.0 -0.602197036
O  O16  1  0.80470000  0.41871000  0.35917000  1.0 -0.602197036
O  O17  1  0.58129000  0.38599000  0.35917000  1.0 -0.602197036
O  O18  1  0.61401000  0.19530000  0.35917000  1.0 -0.602197036
O  O19  1  0.58129000  0.19530000  0.14083000  1.0 -0.602197036
O  O20  1  0.61401000  0.41871000  0.14083000  1.0 -0.602197036
O  O21  1  0.80470000  0.38599000  0.14083000  1.0 -0.602197036
O  O22  1  0.41871000  0.80470000  0.14083000  1.0 -0.602197036
O  O23  1  0.38599000  0.58129000  0.14083000  1.0 -0.602197036
O  O24  1  0.19530000  0.61401000  0.14083000  1.0 -0.602197036
O  O25  1  0.94240000  0.55500000  0.59420000  1.0 -0.5435015509
O  O26  1  0.44500000  0.38740000  0.59420000  1.0 -0.5435015509
O  O27  1  0.61260000  0.05760000  0.59420000  1.0 -0.5435015509
O  O28  1  0.05760000  0.44500000  0.59420000  1.0 -0.5435015509
O  O29  1  0.55500000  0.61260000  0.59420000  1.0 -0.5435015509
O  O30  1  0.38740000  0.94240000  0.59420000  1.0 -0.5435015509
O  O31  1  0.55500000  0.94240000  0.90580000  1.0 -0.5435015509
O  O32  1  0.38740000  0.44500000  0.90580000  1.0 -0.5435015509
O  O33  1  0.05760000  0.61260000  0.90580000  1.0 -0.5435015509
O  O34  1  0.44500000  0.05760000  0.90580000  1.0 -0.5435015509
O  O35  1  0.61260000  0.55500000  0.90580000  1.0 -0.5435015509
O  O36  1  0.94240000  0.38740000  0.90580000  1.0 -0.5435015509
O  O37  1  0.05760000  0.44500000  0.40580000  1.0 -0.5435015509
O  O38  1  0.55500000  0.61260000  0.40580000  1.0 -0.5435015509
O  O39  1  0.38740000  0.94240000  0.40580000  1.0 -0.5435015509
O  O40  1  0.94240000  0.55500000  0.40580000  1.0 -0.5435015509
O  O41  1  0.44500000  0.38740000  0.40580000  1.0 -0.5435015509
O  O42  1  0.61260000  0.05760000  0.40580000  1.0 -0.5435015509
O  O43  1  0.44500000  0.05760000  0.09420000  1.0 -0.5435015509
O  O44  1  0.61260000  0.55500000  0.09420000  1.0 -0.5435015509
O  O45  1  0.94240000  0.38740000  0.09420000  1.0 -0.5435015509
O  O46  1  0.55500000  0.94240000  0.09420000  1.0 -0.5435015509
O  O47  1  0.38740000  0.44500000  0.09420000  1.0 -0.5435015509
O  O48  1  0.05760000  0.61260000  0.09420000  1.0 -0.5435015509
