# DDEC6 charges by PACMAN v1.1 (https://github.com/mtap-research/PACMAN-charge/)
data_ILUJIJ_FSR_pacman
_symmetry_space_group_name_H-M   'P 1'
_cell_length_a   15.40500000
_cell_length_b   15.40500000
_cell_length_c   15.45600000
_cell_angle_alpha   90.00000000
_cell_angle_beta   90.00000000
_cell_angle_gamma   120.00000000
_symmetry_Int_Tables_number   1
_chemical_formula_structural   Sm2Fe3H18C42(NO5)6
_chemical_formula_sum   'Sm4 Fe6 H36 C84 N12 O60'
_cell_volume   3176.51672316
_cell_formula_units_Z   2
loop_
 _symmetry_equiv_pos_site_id
 _symmetry_equiv_pos_as_xyz
  1  'x, y, z'
loop_
 _atom_site_type_symbol
 _atom_site_label
 _atom_site_symmetry_multiplicity
 _atom_site_fract_x
 _atom_site_fract_y
 _atom_site_fract_z
 _atom_site_occupancy
 _atom_site_charge
Sm  Sm1  1  0.66666667  0.33333333  0.25000000  1.0 1.8146918017
Sm  Sm2  1  0.33333333  0.66666667  0.25000000  1.0 1.8146918017
Sm  Sm3  1  0.33333333  0.66666667  0.75000000  1.0 1.8146918017
Sm  Sm4  1  0.66666667  0.33333333  0.75000000  1.0 1.8146918017
Fe  Fe1  1  0.50000000  0.50000000  0.00000000  1.0 1.1463816363
Fe  Fe2  1  0.50000000  0.00000000  0.00000000  1.0 1.1463816363
Fe  Fe3  1  0.00000000  0.50000000  0.00000000  1.0 1.1463816363
Fe  Fe4  1  0.50000000  0.50000000  0.50000000  1.0 1.1463816363
Fe  Fe5  1  0.00000000  0.50000000  0.50000000  1.0 1.1463816363
Fe  Fe6  1  0.50000000  0.00000000  0.50000000  1.0 1.1463816363
H  H1  1  0.28720000  0.23350000  0.15550000  1.0 0.1314861375
H  H2  1  0.76650000  0.05370000  0.15550000  1.0 0.1314861375
H  H3  1  0.94630000  0.71280000  0.15550000  1.0 0.1314861375
H  H4  1  0.71280000  0.76650000  0.15550000  1.0 0.1314861375
H  H5  1  0.23350000  0.94630000  0.15550000  1.0 0.1314861375
H  H6  1  0.05370000  0.28720000  0.15550000  1.0 0.1314861375
H  H7  1  0.23350000  0.28720000  0.34450000  1.0 0.1314861375
H  H8  1  0.05370000  0.76650000  0.34450000  1.0 0.1314861375
H  H9  1  0.71280000  0.94630000  0.34450000  1.0 0.1314861375
H  H10  1  0.76650000  0.71280000  0.34450000  1.0 0.1314861375
H  H11  1  0.94630000  0.23350000  0.34450000  1.0 0.1314861375
H  H12  1  0.28720000  0.05370000  0.34450000  1.0 0.1314861375
H  H13  1  0.71280000  0.76650000  0.84450000  1.0 0.1314861375
H  H14  1  0.23350000  0.94630000  0.84450000  1.0 0.1314861375
H  H15  1  0.05370000  0.28720000  0.84450000  1.0 0.1314861375
H  H16  1  0.28720000  0.23350000  0.84450000  1.0 0.1314861375
H  H17  1  0.76650000  0.05370000  0.84450000  1.0 0.1314861375
H  H18  1  0.94630000  0.71280000  0.84450000  1.0 0.1314861375
H  H19  1  0.76650000  0.71280000  0.65550000  1.0 0.1314861375
H  H20  1  0.94630000  0.23350000  0.65550000  1.0 0.1314861375
H  H21  1  0.28720000  0.05370000  0.65550000  1.0 0.1314861375
H  H22  1  0.23350000  0.28720000  0.65550000  1.0 0.1314861375
H  H23  1  0.05370000  0.76650000  0.65550000  1.0 0.1314861375
H  H24  1  0.71280000  0.94630000  0.65550000  1.0 0.1314861375
H  H25  1  0.19990000  0.09995000  0.25000000  1.0 0.1039429049
H  H26  1  0.90005000  0.09995000  0.25000000  1.0 0.1039429049
H  H27  1  0.90005000  0.80010000  0.25000000  1.0 0.1039429049
H  H28  1  0.80010000  0.90005000  0.25000000  1.0 0.1039429049
H  H29  1  0.09995000  0.90005000  0.25000000  1.0 0.1039429049
H  H30  1  0.09995000  0.19990000  0.25000000  1.0 0.1039429049
H  H31  1  0.80010000  0.90005000  0.75000000  1.0 0.1039429049
H  H32  1  0.09995000  0.90005000  0.75000000  1.0 0.1039429049
H  H33  1  0.09995000  0.19990000  0.75000000  1.0 0.1039429049
H  H34  1  0.19990000  0.09995000  0.75000000  1.0 0.1039429049
H  H35  1  0.90005000  0.09995000  0.75000000  1.0 0.1039429049
H  H36  1  0.90005000  0.80010000  0.75000000  1.0 0.1039429049
C  C1  1  0.49000000  0.35400000  0.13840000  1.0 0.539615472
C  C2  1  0.64600000  0.13600000  0.13840000  1.0 0.539615472
C  C3  1  0.86400000  0.51000000  0.13840000  1.0 0.539615472
C  C4  1  0.51000000  0.64600000  0.13840000  1.0 0.539615472
C  C5  1  0.35400000  0.86400000  0.13840000  1.0 0.539615472
C  C6  1  0.13600000  0.49000000  0.13840000  1.0 0.539615472
C  C7  1  0.35400000  0.49000000  0.36160000  1.0 0.539615472
C  C8  1  0.13600000  0.64600000  0.36160000  1.0 0.539615472
C  C9  1  0.51000000  0.86400000  0.36160000  1.0 0.539615472
C  C10  1  0.64600000  0.51000000  0.36160000  1.0 0.539615472
C  C11  1  0.86400000  0.35400000  0.36160000  1.0 0.539615472
C  C12  1  0.49000000  0.13600000  0.36160000  1.0 0.539615472
C  C13  1  0.51000000  0.64600000  0.86160000  1.0 0.539615472
C  C14  1  0.35400000  0.86400000  0.86160000  1.0 0.539615472
C  C15  1  0.13600000  0.49000000  0.86160000  1.0 0.539615472
C  C16  1  0.49000000  0.35400000  0.86160000  1.0 0.539615472
C  C17  1  0.64600000  0.13600000  0.86160000  1.0 0.539615472
C  C18  1  0.86400000  0.51000000  0.86160000  1.0 0.539615472
C  C19  1  0.64600000  0.51000000  0.63840000  1.0 0.539615472
C  C20  1  0.86400000  0.35400000  0.63840000  1.0 0.539615472
C  C21  1  0.49000000  0.13600000  0.63840000  1.0 0.539615472
C  C22  1  0.35400000  0.49000000  0.63840000  1.0 0.539615472
C  C23  1  0.13600000  0.64600000  0.63840000  1.0 0.539615472
C  C24  1  0.51000000  0.86400000  0.63840000  1.0 0.539615472
C  C25  1  0.42470000  0.26480000  0.19650000  1.0 0.1202167196
C  C26  1  0.73520000  0.15990000  0.19650000  1.0 0.1202167196
C  C27  1  0.84010000  0.57530000  0.19650000  1.0 0.1202167196
C  C28  1  0.57530000  0.73520000  0.19650000  1.0 0.1202167196
C  C29  1  0.26480000  0.84010000  0.19650000  1.0 0.1202167196
C  C30  1  0.15990000  0.42470000  0.19650000  1.0 0.1202167196
C  C31  1  0.26480000  0.42470000  0.30350000  1.0 0.1202167196
C  C32  1  0.15990000  0.73520000  0.30350000  1.0 0.1202167196
C  C33  1  0.57530000  0.84010000  0.30350000  1.0 0.1202167196
C  C34  1  0.73520000  0.57530000  0.30350000  1.0 0.1202167196
C  C35  1  0.84010000  0.26480000  0.30350000  1.0 0.1202167196
C  C36  1  0.42470000  0.15990000  0.30350000  1.0 0.1202167196
C  C37  1  0.57530000  0.73520000  0.80350000  1.0 0.1202167196
C  C38  1  0.26480000  0.84010000  0.80350000  1.0 0.1202167196
C  C39  1  0.15990000  0.42470000  0.80350000  1.0 0.1202167196
C  C40  1  0.42470000  0.26480000  0.80350000  1.0 0.1202167196
C  C41  1  0.73520000  0.15990000  0.80350000  1.0 0.1202167196
C  C42  1  0.84010000  0.57530000  0.80350000  1.0 0.1202167196
C  C43  1  0.73520000  0.57530000  0.69650000  1.0 0.1202167196
C  C44  1  0.84010000  0.26480000  0.69650000  1.0 0.1202167196
C  C45  1  0.42470000  0.15990000  0.69650000  1.0 0.1202167196
C  C46  1  0.26480000  0.42470000  0.69650000  1.0 0.1202167196
C  C47  1  0.15990000  0.73520000  0.69650000  1.0 0.1202167196
C  C48  1  0.57530000  0.84010000  0.69650000  1.0 0.1202167196
C  C49  1  0.32120000  0.21440000  0.19380000  1.0 -0.1499293386
C  C50  1  0.78560000  0.10680000  0.19380000  1.0 -0.1499293386
C  C51  1  0.89320000  0.67880000  0.19380000  1.0 -0.1499293386
C  C52  1  0.67880000  0.78560000  0.19380000  1.0 -0.1499293386
C  C53  1  0.21440000  0.89320000  0.19380000  1.0 -0.1499293386
C  C54  1  0.10680000  0.32120000  0.19380000  1.0 -0.1499293386
C  C55  1  0.21440000  0.32120000  0.30620000  1.0 -0.1499293386
C  C56  1  0.10680000  0.78560000  0.30620000  1.0 -0.1499293386
C  C57  1  0.67880000  0.89320000  0.30620000  1.0 -0.1499293386
C  C58  1  0.78560000  0.67880000  0.30620000  1.0 -0.1499293386
C  C59  1  0.89320000  0.21440000  0.30620000  1.0 -0.1499293386
C  C60  1  0.32120000  0.10680000  0.30620000  1.0 -0.1499293386
C  C61  1  0.67880000  0.78560000  0.80620000  1.0 -0.1499293386
C  C62  1  0.21440000  0.89320000  0.80620000  1.0 -0.1499293386
C  C63  1  0.10680000  0.32120000  0.80620000  1.0 -0.1499293386
C  C64  1  0.32120000  0.21440000  0.80620000  1.0 -0.1499293386
C  C65  1  0.78560000  0.10680000  0.80620000  1.0 -0.1499293386
C  C66  1  0.89320000  0.67880000  0.80620000  1.0 -0.1499293386
C  C67  1  0.78560000  0.67880000  0.69380000  1.0 -0.1499293386
C  C68  1  0.89320000  0.21440000  0.69380000  1.0 -0.1499293386
C  C69  1  0.32120000  0.10680000  0.69380000  1.0 -0.1499293386
C  C70  1  0.21440000  0.32120000  0.69380000  1.0 -0.1499293386
C  C71  1  0.10680000  0.78560000  0.69380000  1.0 -0.1499293386
C  C72  1  0.67880000  0.89320000  0.69380000  1.0 -0.1499293386
C  C73  1  0.26960000  0.13480000  0.25000000  1.0 -0.0640974407
C  C74  1  0.86520000  0.13480000  0.25000000  1.0 -0.0663749614
C  C75  1  0.86520000  0.73040000  0.25000000  1.0 -0.0663749614
C  C76  1  0.73040000  0.86520000  0.25000000  1.0 -0.0663749614
C  C77  1  0.13480000  0.86520000  0.25000000  1.0 -0.0663749614
C  C78  1  0.13480000  0.26960000  0.25000000  1.0 -0.0663749614
C  C79  1  0.73040000  0.86520000  0.75000000  1.0 -0.0663749614
C  C80  1  0.13480000  0.86520000  0.75000000  1.0 -0.0663749614
C  C81  1  0.13480000  0.26960000  0.75000000  1.0 -0.0663749614
C  C82  1  0.26960000  0.13480000  0.75000000  1.0 -0.0640974407
C  C83  1  0.86520000  0.13480000  0.75000000  1.0 -0.0663749614
C  C84  1  0.86520000  0.73040000  0.75000000  1.0 -0.0663749614
N  N1  1  0.47570000  0.23785000  0.25000000  1.0 -0.3378612351
N  N2  1  0.76215000  0.23785000  0.25000000  1.0 -0.3378612351
N  N3  1  0.76215000  0.52430000  0.25000000  1.0 -0.3378612351
N  N4  1  0.52430000  0.76215000  0.25000000  1.0 -0.3378612351
N  N5  1  0.23785000  0.76215000  0.25000000  1.0 -0.3378612351
N  N6  1  0.23785000  0.47570000  0.25000000  1.0 -0.3378612351
N  N7  1  0.52430000  0.76215000  0.75000000  1.0 -0.3378612351
N  N8  1  0.23785000  0.76215000  0.75000000  1.0 -0.3378612351
N  N9  1  0.23785000  0.47570000  0.75000000  1.0 -0.3378612351
N  N10  1  0.47570000  0.23785000  0.75000000  1.0 -0.3378612351
N  N11  1  0.76215000  0.23785000  0.75000000  1.0 -0.3378612351
N  N12  1  0.76215000  0.52430000  0.75000000  1.0 -0.3378612351
O  O1  1  0.44660000  0.38720000  0.09340000  1.0 -0.5546408099
O  O2  1  0.61280000  0.05940000  0.09340000  1.0 -0.5546408099
O  O3  1  0.94060000  0.55340000  0.09340000  1.0 -0.5559965686
O  O4  1  0.55340000  0.61280000  0.09340000  1.0 -0.5546408099
O  O5  1  0.38720000  0.94060000  0.09340000  1.0 -0.5546408099
O  O6  1  0.05940000  0.44660000  0.09340000  1.0 -0.5559965686
O  O7  1  0.38720000  0.44660000  0.40660000  1.0 -0.5559965686
O  O8  1  0.05940000  0.61280000  0.40660000  1.0 -0.5559965686
O  O9  1  0.55340000  0.94060000  0.40660000  1.0 -0.5559965686
O  O10  1  0.61280000  0.55340000  0.40660000  1.0 -0.5559965686
O  O11  1  0.94060000  0.38720000  0.40660000  1.0 -0.5559965686
O  O12  1  0.44660000  0.05940000  0.40660000  1.0 -0.5546408099
O  O13  1  0.55340000  0.61280000  0.90660000  1.0 -0.5546408099
O  O14  1  0.38720000  0.94060000  0.90660000  1.0 -0.5546408099
O  O15  1  0.05940000  0.44660000  0.90660000  1.0 -0.5559965686
O  O16  1  0.44660000  0.38720000  0.90660000  1.0 -0.5546408099
O  O17  1  0.61280000  0.05940000  0.90660000  1.0 -0.5546408099
O  O18  1  0.94060000  0.55340000  0.90660000  1.0 -0.5559965686
O  O19  1  0.61280000  0.55340000  0.59340000  1.0 -0.5559965686
O  O20  1  0.94060000  0.38720000  0.59340000  1.0 -0.5559965686
O  O21  1  0.44660000  0.05940000  0.59340000  1.0 -0.5546408099
O  O22  1  0.38720000  0.44660000  0.59340000  1.0 -0.5559965686
O  O23  1  0.05940000  0.61280000  0.59340000  1.0 -0.5559965686
O  O24  1  0.55340000  0.94060000  0.59340000  1.0 -0.5559965686
O  O25  1  0.58460000  0.38790000  0.14290000  1.0 -0.5790120887
O  O26  1  0.61210000  0.19670000  0.14290000  1.0 -0.5790120887
O  O27  1  0.80330000  0.41540000  0.14290000  1.0 -0.5790120887
O  O28  1  0.41540000  0.61210000  0.14290000  1.0 -0.5790120887
O  O29  1  0.38790000  0.80330000  0.14290000  1.0 -0.5790120887
O  O30  1  0.19670000  0.58460000  0.14290000  1.0 -0.5790120887
O  O31  1  0.38790000  0.58460000  0.35710000  1.0 -0.5790120887
O  O32  1  0.19670000  0.61210000  0.35710000  1.0 -0.5790120887
O  O33  1  0.41540000  0.80330000  0.35710000  1.0 -0.5790120887
O  O34  1  0.61210000  0.41540000  0.35710000  1.0 -0.5790120887
O  O35  1  0.80330000  0.38790000  0.35710000  1.0 -0.5790120887
O  O36  1  0.58460000  0.19670000  0.35710000  1.0 -0.5790120887
O  O37  1  0.41540000  0.61210000  0.85710000  1.0 -0.5790120887
O  O38  1  0.38790000  0.80330000  0.85710000  1.0 -0.5790120887
O  O39  1  0.19670000  0.58460000  0.85710000  1.0 -0.5790120887
O  O40  1  0.58460000  0.38790000  0.85710000  1.0 -0.5790120887
O  O41  1  0.61210000  0.19670000  0.85710000  1.0 -0.5790120887
O  O42  1  0.80330000  0.41540000  0.85710000  1.0 -0.5790120887
O  O43  1  0.61210000  0.41540000  0.64290000  1.0 -0.5790120887
O  O44  1  0.80330000  0.38790000  0.64290000  1.0 -0.5790120887
O  O45  1  0.58460000  0.19670000  0.64290000  1.0 -0.5790120887
O  O46  1  0.38790000  0.58460000  0.64290000  1.0 -0.5790120887
O  O47  1  0.19670000  0.61210000  0.64290000  1.0 -0.5790120887
O  O48  1  0.41540000  0.80330000  0.64290000  1.0 -0.5790120887
O  O49  1  0.64700000  0.51250000  0.00000000  1.0 0.1039429049
O  O50  1  0.48750000  0.13450000  0.00000000  1.0 0.1039429049
O  O51  1  0.86550000  0.35300000  0.00000000  1.0 0.1135243031
O  O52  1  0.35300000  0.48750000  0.00000000  1.0 0.1039429049
O  O53  1  0.51250000  0.86550000  0.00000000  1.0 0.1039429049
O  O54  1  0.13450000  0.64700000  0.00000000  1.0 0.1135243031
O  O55  1  0.51250000  0.64700000  0.50000000  1.0 0.1135243031
O  O56  1  0.13450000  0.48750000  0.50000000  1.0 0.1135243031
O  O57  1  0.35300000  0.86550000  0.50000000  1.0 0.1039429049
O  O58  1  0.48750000  0.35300000  0.50000000  1.0 0.1039429049
O  O59  1  0.86550000  0.51250000  0.50000000  1.0 0.1135243031
O  O60  1  0.64700000  0.13450000  0.50000000  1.0 0.1039429049
