# DDEC6 charges by PACMAN v1.1 (https://github.com/mtap-research/PACMAN-charge/)
data_ILUJEF_FSR_pacman
_symmetry_space_group_name_H-M   'P 1'
_cell_length_a   15.30920000
_cell_length_b   15.30920000
_cell_length_c   15.34600000
_cell_angle_alpha   90.00000000
_cell_angle_beta   90.00000000
_cell_angle_gamma   120.00000000
_symmetry_Int_Tables_number   1
_chemical_formula_structural   Sm2Co3H42C42(NO5)6
_chemical_formula_sum   'Sm4 Co6 H84 C84 N12 O60'
_cell_volume   3114.80468335
_cell_formula_units_Z   2
loop_
 _symmetry_equiv_pos_site_id
 _symmetry_equiv_pos_as_xyz
  1  'x, y, z'
loop_
 _atom_site_type_symbol
 _atom_site_label
 _atom_site_symmetry_multiplicity
 _atom_site_fract_x
 _atom_site_fract_y
 _atom_site_fract_z
 _atom_site_occupancy
 _atom_site_charge
Sm  Sm1  1  0.66666667  0.33333333  0.25000000  1.0 1.8791281605
Sm  Sm2  1  0.33333333  0.66666667  0.25000000  1.0 1.8791281605
Sm  Sm3  1  0.33333333  0.66666667  0.75000000  1.0 1.8791281605
Sm  Sm4  1  0.66666667  0.33333333  0.75000000  1.0 1.8791281605
Co  Co1  1  0.50000000  0.00000000  0.50000000  1.0 1.0233171208
Co  Co2  1  0.00000000  0.50000000  0.50000000  1.0 1.0233171208
Co  Co3  1  0.50000000  0.50000000  0.50000000  1.0 1.0233171208
Co  Co4  1  0.00000000  0.50000000  0.00000000  1.0 1.0233171208
Co  Co5  1  0.50000000  0.00000000  0.00000000  1.0 1.0233171208
Co  Co6  1  0.50000000  0.50000000  0.00000000  1.0 1.0233171208
H  H1  1  0.76640000  0.05350000  0.34470000  1.0 0.1401235634
H  H2  1  0.94650000  0.71290000  0.34470000  1.0 0.1401235634
H  H3  1  0.28710000  0.23360000  0.34470000  1.0 0.1401235634
H  H4  1  0.23360000  0.94650000  0.34470000  1.0 0.1401235634
H  H5  1  0.05350000  0.28710000  0.34470000  1.0 0.1401235634
H  H6  1  0.71290000  0.76640000  0.34470000  1.0 0.1401235634
H  H7  1  0.05350000  0.76640000  0.15530000  1.0 0.1401235634
H  H8  1  0.71290000  0.94650000  0.15530000  1.0 0.1401235634
H  H9  1  0.23360000  0.28710000  0.15530000  1.0 0.1401235634
H  H10  1  0.94650000  0.23360000  0.15530000  1.0 0.1401235634
H  H11  1  0.28710000  0.05350000  0.15530000  1.0 0.1401235634
H  H12  1  0.76640000  0.71290000  0.15530000  1.0 0.1401235634
H  H13  1  0.23360000  0.94650000  0.65530000  1.0 0.1401235634
H  H14  1  0.05350000  0.28710000  0.65530000  1.0 0.1401235634
H  H15  1  0.71290000  0.76640000  0.65530000  1.0 0.1401235634
H  H16  1  0.76640000  0.05350000  0.65530000  1.0 0.1401235634
H  H17  1  0.94650000  0.71290000  0.65530000  1.0 0.1401235634
H  H18  1  0.28710000  0.23360000  0.65530000  1.0 0.1401235634
H  H19  1  0.94650000  0.23360000  0.84470000  1.0 0.1401235634
H  H20  1  0.28710000  0.05350000  0.84470000  1.0 0.1401235634
H  H21  1  0.76640000  0.71290000  0.84470000  1.0 0.1401235634
H  H22  1  0.05350000  0.76640000  0.84470000  1.0 0.1401235634
H  H23  1  0.71290000  0.94650000  0.84470000  1.0 0.1401235634
H  H24  1  0.23360000  0.28710000  0.84470000  1.0 0.1401235634
H  H25  1  0.89985000  0.10015000  0.25000000  1.0 0.1105524158
H  H26  1  0.89985000  0.79970000  0.25000000  1.0 0.1105524158
H  H27  1  0.20030000  0.10015000  0.25000000  1.0 0.1105524158
H  H28  1  0.10015000  0.89985000  0.25000000  1.0 0.1105524158
H  H29  1  0.10015000  0.20030000  0.25000000  1.0 0.1105524158
H  H30  1  0.79970000  0.89985000  0.25000000  1.0 0.1105524158
H  H31  1  0.10015000  0.89985000  0.75000000  1.0 0.1105524158
H  H32  1  0.10015000  0.20030000  0.75000000  1.0 0.1105524158
H  H33  1  0.79970000  0.89985000  0.75000000  1.0 0.1105524158
H  H34  1  0.89985000  0.10015000  0.75000000  1.0 0.1105524158
H  H35  1  0.89985000  0.79970000  0.75000000  1.0 0.1105524158
H  H36  1  0.20030000  0.10015000  0.75000000  1.0 0.1105524158
H  H37  1  0.47480000  0.81780000  0.46670000  1.0 0.1629108357
H  H38  1  0.18220000  0.65700000  0.46670000  1.0 0.1629108357
H  H39  1  0.34300000  0.52520000  0.46670000  1.0 0.1629108357
H  H40  1  0.52520000  0.18220000  0.46670000  1.0 0.1629108357
H  H41  1  0.81780000  0.34300000  0.46670000  1.0 0.1629108357
H  H42  1  0.65700000  0.47480000  0.46670000  1.0 0.1629108357
H  H43  1  0.81780000  0.47480000  0.03330000  1.0 0.1629108357
H  H44  1  0.65700000  0.18220000  0.03330000  1.0 0.1629108357
H  H45  1  0.52520000  0.34300000  0.03330000  1.0 0.1629108357
H  H46  1  0.18220000  0.52520000  0.03330000  1.0 0.1629108357
H  H47  1  0.34300000  0.81780000  0.03330000  1.0 0.1629108357
H  H48  1  0.47480000  0.65700000  0.03330000  1.0 0.1629108357
H  H49  1  0.52520000  0.18220000  0.53330000  1.0 0.1629108357
H  H50  1  0.81780000  0.34300000  0.53330000  1.0 0.1629108357
H  H51  1  0.65700000  0.47480000  0.53330000  1.0 0.1629108357
H  H52  1  0.47480000  0.81780000  0.53330000  1.0 0.1629108357
H  H53  1  0.18220000  0.65700000  0.53330000  1.0 0.1629108357
H  H54  1  0.34300000  0.52520000  0.53330000  1.0 0.1629108357
H  H55  1  0.18220000  0.52520000  0.96670000  1.0 0.1629108357
H  H56  1  0.34300000  0.81780000  0.96670000  1.0 0.1629108357
H  H57  1  0.47480000  0.65700000  0.96670000  1.0 0.1629108357
H  H58  1  0.81780000  0.47480000  0.96670000  1.0 0.1629108357
H  H59  1  0.65700000  0.18220000  0.96670000  1.0 0.1629108357
H  H60  1  0.52520000  0.34300000  0.96670000  1.0 0.1629108357
H  H61  1  0.55430000  0.86230000  0.53330000  1.0 0.1302411431
H  H62  1  0.13770000  0.69200000  0.53330000  1.0 0.1302411431
H  H63  1  0.30800000  0.44570000  0.53330000  1.0 0.1302411431
H  H64  1  0.44570000  0.13770000  0.53330000  1.0 0.1302411431
H  H65  1  0.86230000  0.30800000  0.53330000  1.0 0.1302411431
H  H66  1  0.69200000  0.55430000  0.53330000  1.0 0.1302411431
H  H67  1  0.86230000  0.55430000  0.96670000  1.0 0.1302411431
H  H68  1  0.69200000  0.13770000  0.96670000  1.0 0.1302411431
H  H69  1  0.44570000  0.30800000  0.96670000  1.0 0.1302411431
H  H70  1  0.13770000  0.44570000  0.96670000  1.0 0.1302411431
H  H71  1  0.30800000  0.86230000  0.96670000  1.0 0.1302411431
H  H72  1  0.55430000  0.69200000  0.96670000  1.0 0.1302411431
H  H73  1  0.44570000  0.13770000  0.46670000  1.0 0.1302411431
H  H74  1  0.86230000  0.30800000  0.46670000  1.0 0.1302411431
H  H75  1  0.69200000  0.55430000  0.46670000  1.0 0.1302411431
H  H76  1  0.55430000  0.86230000  0.46670000  1.0 0.1302411431
H  H77  1  0.13770000  0.69200000  0.46670000  1.0 0.1302411431
H  H78  1  0.30800000  0.44570000  0.46670000  1.0 0.1302411431
H  H79  1  0.13770000  0.44570000  0.03330000  1.0 0.1302411431
H  H80  1  0.30800000  0.86230000  0.03330000  1.0 0.1302411431
H  H81  1  0.55430000  0.69200000  0.03330000  1.0 0.1302411431
H  H82  1  0.86230000  0.55430000  0.03330000  1.0 0.1302411431
H  H83  1  0.69200000  0.13770000  0.03330000  1.0 0.1302411431
H  H84  1  0.44570000  0.30800000  0.03330000  1.0 0.1302411431
C  C1  1  0.64590000  0.13590000  0.36160000  1.0 0.5550796413
C  C2  1  0.86410000  0.51000000  0.36160000  1.0 0.5550796413
C  C3  1  0.49000000  0.35410000  0.36160000  1.0 0.5550796413
C  C4  1  0.35410000  0.86410000  0.36160000  1.0 0.5550796413
C  C5  1  0.13590000  0.49000000  0.36160000  1.0 0.5550796413
C  C6  1  0.51000000  0.64590000  0.36160000  1.0 0.5550796413
C  C7  1  0.13590000  0.64590000  0.13840000  1.0 0.5550796413
C  C8  1  0.51000000  0.86410000  0.13840000  1.0 0.5550796413
C  C9  1  0.35410000  0.49000000  0.13840000  1.0 0.5550796413
C  C10  1  0.86410000  0.35410000  0.13840000  1.0 0.5550796413
C  C11  1  0.49000000  0.13590000  0.13840000  1.0 0.5550796413
C  C12  1  0.64590000  0.51000000  0.13840000  1.0 0.5550796413
C  C13  1  0.35410000  0.86410000  0.63840000  1.0 0.5550796413
C  C14  1  0.13590000  0.49000000  0.63840000  1.0 0.5550796413
C  C15  1  0.51000000  0.64590000  0.63840000  1.0 0.5550796413
C  C16  1  0.64590000  0.13590000  0.63840000  1.0 0.5550796413
C  C17  1  0.86410000  0.51000000  0.63840000  1.0 0.5550796413
C  C18  1  0.49000000  0.35410000  0.63840000  1.0 0.5550796413
C  C19  1  0.86410000  0.35410000  0.86160000  1.0 0.5550796413
C  C20  1  0.49000000  0.13590000  0.86160000  1.0 0.5550796413
C  C21  1  0.64590000  0.51000000  0.86160000  1.0 0.5550796413
C  C22  1  0.13590000  0.64590000  0.86160000  1.0 0.5550796413
C  C23  1  0.51000000  0.86410000  0.86160000  1.0 0.5550796413
C  C24  1  0.35410000  0.49000000  0.86160000  1.0 0.5550796413
C  C25  1  0.73520000  0.16000000  0.30360000  1.0 0.1238020092
C  C26  1  0.84000000  0.57520000  0.30360000  1.0 0.1238020092
C  C27  1  0.42480000  0.26480000  0.30360000  1.0 0.1238020092
C  C28  1  0.26480000  0.84000000  0.30360000  1.0 0.1238020092
C  C29  1  0.16000000  0.42480000  0.30360000  1.0 0.1238020092
C  C30  1  0.57520000  0.73520000  0.30360000  1.0 0.1238020092
C  C31  1  0.16000000  0.73520000  0.19640000  1.0 0.1238020092
C  C32  1  0.57520000  0.84000000  0.19640000  1.0 0.1238020092
C  C33  1  0.26480000  0.42480000  0.19640000  1.0 0.1238020092
C  C34  1  0.84000000  0.26480000  0.19640000  1.0 0.1238020092
C  C35  1  0.42480000  0.16000000  0.19640000  1.0 0.1238020092
C  C36  1  0.73520000  0.57520000  0.19640000  1.0 0.1238020092
C  C37  1  0.26480000  0.84000000  0.69640000  1.0 0.1238020092
C  C38  1  0.16000000  0.42480000  0.69640000  1.0 0.1238020092
C  C39  1  0.57520000  0.73520000  0.69640000  1.0 0.1238020092
C  C40  1  0.73520000  0.16000000  0.69640000  1.0 0.1238020092
C  C41  1  0.84000000  0.57520000  0.69640000  1.0 0.1238020092
C  C42  1  0.42480000  0.26480000  0.69640000  1.0 0.1238020092
C  C43  1  0.84000000  0.26480000  0.80360000  1.0 0.1238020092
C  C44  1  0.42480000  0.16000000  0.80360000  1.0 0.1238020092
C  C45  1  0.73520000  0.57520000  0.80360000  1.0 0.1238020092
C  C46  1  0.16000000  0.73520000  0.80360000  1.0 0.1238020092
C  C47  1  0.57520000  0.84000000  0.80360000  1.0 0.1238020092
C  C48  1  0.26480000  0.42480000  0.80360000  1.0 0.1238020092
C  C49  1  0.78550000  0.10690000  0.30610000  1.0 -0.14485654
C  C50  1  0.89310000  0.67860000  0.30610000  1.0 -0.14485654
C  C51  1  0.32140000  0.21450000  0.30610000  1.0 -0.14485654
C  C52  1  0.21450000  0.89310000  0.30610000  1.0 -0.14485654
C  C53  1  0.10690000  0.32140000  0.30610000  1.0 -0.14485654
C  C54  1  0.67860000  0.78550000  0.30610000  1.0 -0.14485654
C  C55  1  0.10690000  0.78550000  0.19390000  1.0 -0.14485654
C  C56  1  0.67860000  0.89310000  0.19390000  1.0 -0.14485654
C  C57  1  0.21450000  0.32140000  0.19390000  1.0 -0.14485654
C  C58  1  0.89310000  0.21450000  0.19390000  1.0 -0.14485654
C  C59  1  0.32140000  0.10690000  0.19390000  1.0 -0.14485654
C  C60  1  0.78550000  0.67860000  0.19390000  1.0 -0.14485654
C  C61  1  0.21450000  0.89310000  0.69390000  1.0 -0.14485654
C  C62  1  0.10690000  0.32140000  0.69390000  1.0 -0.14485654
C  C63  1  0.67860000  0.78550000  0.69390000  1.0 -0.14485654
C  C64  1  0.78550000  0.10690000  0.69390000  1.0 -0.14485654
C  C65  1  0.89310000  0.67860000  0.69390000  1.0 -0.14485654
C  C66  1  0.32140000  0.21450000  0.69390000  1.0 -0.14485654
C  C67  1  0.89310000  0.21450000  0.80610000  1.0 -0.14485654
C  C68  1  0.32140000  0.10690000  0.80610000  1.0 -0.145413754
C  C69  1  0.78550000  0.67860000  0.80610000  1.0 -0.14485654
C  C70  1  0.10690000  0.78550000  0.80610000  1.0 -0.14485654
C  C71  1  0.67860000  0.89310000  0.80610000  1.0 -0.14485654
C  C72  1  0.21450000  0.32140000  0.80610000  1.0 -0.14485654
C  C73  1  0.86510000  0.13490000  0.25000000  1.0 -0.0588867492
C  C74  1  0.86510000  0.73020000  0.25000000  1.0 -0.0588867492
C  C75  1  0.26980000  0.13490000  0.25000000  1.0 -0.0588867492
C  C76  1  0.13490000  0.86510000  0.25000000  1.0 -0.0588867492
C  C77  1  0.13490000  0.26980000  0.25000000  1.0 -0.0588867492
C  C78  1  0.73020000  0.86510000  0.25000000  1.0 -0.0588867492
C  C79  1  0.13490000  0.86510000  0.75000000  1.0 -0.0588867492
C  C80  1  0.13490000  0.26980000  0.75000000  1.0 -0.0588867492
C  C81  1  0.73020000  0.86510000  0.75000000  1.0 -0.0588867492
C  C82  1  0.86510000  0.13490000  0.75000000  1.0 -0.0588867492
C  C83  1  0.86510000  0.73020000  0.75000000  1.0 -0.0588867492
C  C84  1  0.26980000  0.13490000  0.75000000  1.0 -0.0588867492
N  N1  1  0.76210000  0.23790000  0.25000000  1.0 -0.3598878807
N  N2  1  0.76210000  0.52420000  0.25000000  1.0 -0.3598878807
N  N3  1  0.47580000  0.23790000  0.25000000  1.0 -0.3598878807
N  N4  1  0.23790000  0.76210000  0.25000000  1.0 -0.3598878807
N  N5  1  0.23790000  0.47580000  0.25000000  1.0 -0.3598878807
N  N6  1  0.52420000  0.76210000  0.25000000  1.0 -0.3598878807
N  N7  1  0.23790000  0.76210000  0.75000000  1.0 -0.3598878807
N  N8  1  0.23790000  0.47580000  0.75000000  1.0 -0.3598878807
N  N9  1  0.52420000  0.76210000  0.75000000  1.0 -0.3598878807
N  N10  1  0.76210000  0.23790000  0.75000000  1.0 -0.3598878807
N  N11  1  0.76210000  0.52420000  0.75000000  1.0 -0.3598878807
N  N12  1  0.47580000  0.23790000  0.75000000  1.0 -0.3598878807
O  O1  1  0.61230000  0.19690000  0.35740000  1.0 -0.6053574217
O  O2  1  0.80310000  0.41540000  0.35740000  1.0 -0.6053574217
O  O3  1  0.58460000  0.38770000  0.35740000  1.0 -0.6053574217
O  O4  1  0.38770000  0.80310000  0.35740000  1.0 -0.6053574217
O  O5  1  0.19690000  0.58460000  0.35740000  1.0 -0.6053574217
O  O6  1  0.41540000  0.61230000  0.35740000  1.0 -0.6053574217
O  O7  1  0.19690000  0.61230000  0.14260000  1.0 -0.6053574217
O  O8  1  0.41540000  0.80310000  0.14260000  1.0 -0.6053574217
O  O9  1  0.38770000  0.58460000  0.14260000  1.0 -0.6053574217
O  O10  1  0.80310000  0.38770000  0.14260000  1.0 -0.6053574217
O  O11  1  0.58460000  0.19690000  0.14260000  1.0 -0.6053574217
O  O12  1  0.61230000  0.41540000  0.14260000  1.0 -0.6053574217
O  O13  1  0.38770000  0.80310000  0.64260000  1.0 -0.6053574217
O  O14  1  0.19690000  0.58460000  0.64260000  1.0 -0.6053574217
O  O15  1  0.41540000  0.61230000  0.64260000  1.0 -0.6053574217
O  O16  1  0.61230000  0.19690000  0.64260000  1.0 -0.6053574217
O  O17  1  0.80310000  0.41540000  0.64260000  1.0 -0.6053574217
O  O18  1  0.58460000  0.38770000  0.64260000  1.0 -0.6053574217
O  O19  1  0.80310000  0.38770000  0.85740000  1.0 -0.6053574217
O  O20  1  0.58460000  0.19690000  0.85740000  1.0 -0.6042741514
O  O21  1  0.61230000  0.41540000  0.85740000  1.0 -0.6053574217
O  O22  1  0.19690000  0.61230000  0.85740000  1.0 -0.6053574217
O  O23  1  0.41540000  0.80310000  0.85740000  1.0 -0.6053574217
O  O24  1  0.38770000  0.58460000  0.85740000  1.0 -0.6053574217
O  O25  1  0.61300000  0.05930000  0.40690000  1.0 -0.5271218396
O  O26  1  0.94070000  0.55370000  0.40690000  1.0 -0.5271218396
O  O27  1  0.44630000  0.38700000  0.40690000  1.0 -0.5271218396
O  O28  1  0.38700000  0.94070000  0.40690000  1.0 -0.5271218396
O  O29  1  0.05930000  0.44630000  0.40690000  1.0 -0.5271218396
O  O30  1  0.55370000  0.61300000  0.40690000  1.0 -0.5271218396
O  O31  1  0.05930000  0.61300000  0.09310000  1.0 -0.5271218396
O  O32  1  0.55370000  0.94070000  0.09310000  1.0 -0.5271218396
O  O33  1  0.38700000  0.44630000  0.09310000  1.0 -0.5271218396
O  O34  1  0.94070000  0.38700000  0.09310000  1.0 -0.5271218396
O  O35  1  0.44630000  0.05930000  0.09310000  1.0 -0.5271218396
O  O36  1  0.61300000  0.55370000  0.09310000  1.0 -0.5271218396
O  O37  1  0.38700000  0.94070000  0.59310000  1.0 -0.5271218396
O  O38  1  0.05930000  0.44630000  0.59310000  1.0 -0.5271218396
O  O39  1  0.55370000  0.61300000  0.59310000  1.0 -0.5271218396
O  O40  1  0.61300000  0.05930000  0.59310000  1.0 -0.5271218396
O  O41  1  0.94070000  0.55370000  0.59310000  1.0 -0.5271218396
O  O42  1  0.44630000  0.38700000  0.59310000  1.0 -0.5271218396
O  O43  1  0.94070000  0.38700000  0.90690000  1.0 -0.5271218396
O  O44  1  0.44630000  0.05930000  0.90690000  1.0 -0.5271218396
O  O45  1  0.61300000  0.55370000  0.90690000  1.0 -0.5271218396
O  O46  1  0.05930000  0.61300000  0.90690000  1.0 -0.5271218396
O  O47  1  0.55370000  0.94070000  0.90690000  1.0 -0.5271218396
O  O48  1  0.38700000  0.44630000  0.90690000  1.0 -0.5271218396
O  O49  1  0.51230000  0.86640000  0.50000000  1.0 -0.4994990206
O  O50  1  0.13360000  0.64590000  0.50000000  1.0 -0.4994990206
O  O51  1  0.35410000  0.48770000  0.50000000  1.0 -0.4994990206
O  O52  1  0.48770000  0.13360000  0.50000000  1.0 -0.4994990206
O  O53  1  0.86640000  0.35410000  0.50000000  1.0 -0.4994990206
O  O54  1  0.64590000  0.51230000  0.50000000  1.0 -0.4994990206
O  O55  1  0.86640000  0.51230000  0.00000000  1.0 -0.4994990206
O  O56  1  0.64590000  0.13360000  0.00000000  1.0 -0.4994990206
O  O57  1  0.48770000  0.35410000  0.00000000  1.0 -0.4994990206
O  O58  1  0.13360000  0.48770000  0.00000000  1.0 -0.4994990206
O  O59  1  0.35410000  0.86640000  0.00000000  1.0 -0.4994990206
O  O60  1  0.51230000  0.64590000  0.00000000  1.0 -0.4994990206
