# DDEC6 charges by PACMAN v1.1 (https://github.com/mtap-research/PACMAN-charge/)
data_IMAXOL_ASR_pacman
_symmetry_space_group_name_H-M   'P 1'
_cell_length_a   18.99000000
_cell_length_b   18.99000000
_cell_length_c   19.97300000
_cell_angle_alpha   90.00000000
_cell_angle_beta   90.00000000
_cell_angle_gamma   90.00000000
_symmetry_Int_Tables_number   1
_chemical_formula_structural   Cu3H40C48N9O8
_chemical_formula_sum   'Cu12 H160 C192 N36 O32'
_cell_volume   7202.66525730
_cell_formula_units_Z   4
loop_
 _symmetry_equiv_pos_site_id
 _symmetry_equiv_pos_as_xyz
  1  'x, y, z'
loop_
 _atom_site_type_symbol
 _atom_site_label
 _atom_site_symmetry_multiplicity
 _atom_site_fract_x
 _atom_site_fract_y
 _atom_site_fract_z
 _atom_site_occupancy
 _atom_site_charge
Cu  Cu1  1  0.37117000  0.62883000  0.50000000  1.0 0.6131942788
Cu  Cu2  1  0.62883000  0.37117000  0.50000000  1.0 0.6131942788
Cu  Cu3  1  0.27258000  0.72742000  0.50000000  1.0 0.7649243592
Cu  Cu4  1  0.72742000  0.27258000  0.50000000  1.0 0.7658281146
Cu  Cu5  1  0.50000000  0.00000000  0.00000000  1.0 0.2555336772
Cu  Cu6  1  0.00000000  0.50000000  0.00000000  1.0 0.2555336772
Cu  Cu7  1  0.12883000  0.12883000  0.00000000  1.0 0.6131942788
Cu  Cu8  1  0.87117000  0.87117000  0.00000000  1.0 0.6161967038
Cu  Cu9  1  0.22742000  0.22742000  0.00000000  1.0 0.7649243592
Cu  Cu10  1  0.77258000  0.77258000  0.00000000  1.0 0.7658281146
Cu  Cu11  1  0.50000000  0.00000000  0.50000000  1.0 0.2555336772
Cu  Cu12  1  0.00000000  0.50000000  0.50000000  1.0 0.2555336772
H  H1  1  0.60770000  0.80800000  0.00000000  1.0 0.1416180401
H  H2  1  0.39230000  0.19200000  0.00000000  1.0 0.1416180401
H  H3  1  0.80800000  0.60770000  0.00000000  1.0 0.1416180401
H  H4  1  0.19200000  0.39230000  0.00000000  1.0 0.1416180401
H  H5  1  0.62260000  0.89110000  0.00000000  1.0 0.1459862261
H  H6  1  0.37740000  0.10890000  0.00000000  1.0 0.1459862261
H  H7  1  0.89110000  0.62260000  0.00000000  1.0 0.1459862261
H  H8  1  0.10890000  0.37740000  0.00000000  1.0 0.1459862261
H  H9  1  0.44510000  0.95210000  0.85180000  1.0 0.1185185059
H  H10  1  0.55490000  0.04790000  0.85180000  1.0 0.1185185059
H  H11  1  0.95210000  0.44510000  0.14820000  1.0 0.1185185059
H  H12  1  0.04790000  0.55490000  0.14820000  1.0 0.1185185059
H  H13  1  0.55490000  0.04790000  0.14820000  1.0 0.1185185059
H  H14  1  0.44510000  0.95210000  0.14820000  1.0 0.1185185059
H  H15  1  0.04790000  0.55490000  0.85180000  1.0 0.1185185059
H  H16  1  0.95210000  0.44510000  0.85180000  1.0 0.1185185059
H  H17  1  0.54910000  0.77150000  0.88610000  1.0 0.1279889882
H  H18  1  0.45090000  0.22850000  0.88610000  1.0 0.1279889882
H  H19  1  0.77150000  0.54910000  0.11390000  1.0 0.1279889882
H  H20  1  0.22850000  0.45090000  0.11390000  1.0 0.1279889882
H  H21  1  0.45090000  0.22850000  0.11390000  1.0 0.1279889882
H  H22  1  0.54910000  0.77150000  0.11390000  1.0 0.1279889882
H  H23  1  0.22850000  0.45090000  0.88610000  1.0 0.1279889882
H  H24  1  0.77150000  0.54910000  0.88610000  1.0 0.1279889882
H  H25  1  0.54170000  0.75410000  0.76360000  1.0 0.1082600936
H  H26  1  0.45830000  0.24590000  0.76360000  1.0 0.1082600936
H  H27  1  0.75410000  0.54170000  0.23640000  1.0 0.1082600936
H  H28  1  0.24590000  0.45830000  0.23640000  1.0 0.1082600936
H  H29  1  0.45830000  0.24590000  0.23640000  1.0 0.1082600936
H  H30  1  0.54170000  0.75410000  0.23640000  1.0 0.1082600936
H  H31  1  0.24590000  0.45830000  0.76360000  1.0 0.1082600936
H  H32  1  0.75410000  0.54170000  0.76360000  1.0 0.1082600936
H  H33  1  0.49810000  0.70790000  0.66360000  1.0 0.1279889882
H  H34  1  0.50190000  0.29210000  0.66360000  1.0 0.1279889882
H  H35  1  0.70790000  0.49810000  0.33640000  1.0 0.1279889882
H  H36  1  0.29210000  0.50190000  0.33640000  1.0 0.1279889882
H  H37  1  0.50190000  0.29210000  0.33640000  1.0 0.1279889882
H  H38  1  0.49810000  0.70790000  0.33640000  1.0 0.1279889882
H  H39  1  0.29210000  0.50190000  0.66360000  1.0 0.1279889882
H  H40  1  0.70790000  0.49810000  0.66360000  1.0 0.1279889882
H  H41  1  0.33630000  0.84360000  0.67190000  1.0 0.1082600936
H  H42  1  0.66370000  0.15640000  0.67190000  1.0 0.1082600936
H  H43  1  0.84360000  0.33630000  0.32810000  1.0 0.1082600936
H  H44  1  0.15640000  0.66370000  0.32810000  1.0 0.1082600936
H  H45  1  0.66370000  0.15640000  0.32810000  1.0 0.1082600936
H  H46  1  0.33630000  0.84360000  0.32810000  1.0 0.1082600936
H  H47  1  0.15640000  0.66370000  0.67190000  1.0 0.1082600936
H  H48  1  0.84360000  0.33630000  0.67190000  1.0 0.1082600936
H  H49  1  0.37670000  0.88700000  0.77330000  1.0 0.1082600936
H  H50  1  0.62330000  0.11300000  0.77330000  1.0 0.1082600936
H  H51  1  0.88700000  0.37670000  0.22670000  1.0 0.1082600936
H  H52  1  0.11300000  0.62330000  0.22670000  1.0 0.1082600936
H  H53  1  0.62330000  0.11300000  0.22670000  1.0 0.1082600936
H  H54  1  0.37670000  0.88700000  0.22670000  1.0 0.1082600936
H  H55  1  0.11300000  0.62330000  0.77330000  1.0 0.1082600936
H  H56  1  0.88700000  0.37670000  0.77330000  1.0 0.1082600936
H  H57  1  0.39140000  0.47080000  0.45990000  1.0 0.0709495085
H  H58  1  0.60860000  0.52920000  0.45990000  1.0 0.0709495085
H  H59  1  0.47080000  0.39140000  0.54010000  1.0 0.0709495085
H  H60  1  0.52920000  0.60860000  0.54010000  1.0 0.0709495085
H  H61  1  0.60860000  0.52920000  0.54010000  1.0 0.0709495085
H  H62  1  0.39140000  0.47080000  0.54010000  1.0 0.0709495085
H  H63  1  0.52920000  0.60860000  0.45990000  1.0 0.0709495085
H  H64  1  0.47080000  0.39140000  0.45990000  1.0 0.0709495085
H  H65  1  0.46410000  0.54520000  0.59920000  1.0 0.1037021472
H  H66  1  0.53590000  0.45480000  0.59920000  1.0 0.1037021472
H  H67  1  0.54520000  0.46410000  0.40080000  1.0 0.1037021472
H  H68  1  0.45480000  0.53590000  0.40080000  1.0 0.1037021472
H  H69  1  0.53590000  0.45480000  0.40080000  1.0 0.1037021472
H  H70  1  0.46410000  0.54520000  0.40080000  1.0 0.1037021472
H  H71  1  0.45480000  0.53590000  0.59920000  1.0 0.1037021472
H  H72  1  0.54520000  0.46410000  0.59920000  1.0 0.1037021472
H  H73  1  0.51700000  0.59810000  0.56230000  1.0 0.0709495085
H  H74  1  0.48300000  0.40190000  0.56230000  1.0 0.0709495085
H  H75  1  0.59810000  0.51700000  0.43770000  1.0 0.0709495085
H  H76  1  0.40190000  0.48300000  0.43770000  1.0 0.0709495085
H  H77  1  0.48300000  0.40190000  0.43770000  1.0 0.0709495085
H  H78  1  0.51700000  0.59810000  0.43770000  1.0 0.0709495085
H  H79  1  0.40190000  0.48300000  0.56230000  1.0 0.0709495085
H  H80  1  0.59810000  0.51700000  0.56230000  1.0 0.0709495085
H  H81  1  0.30800000  0.89230000  0.50000000  1.0 0.1416180401
H  H82  1  0.69200000  0.10770000  0.50000000  1.0 0.1416180401
H  H83  1  0.89230000  0.30800000  0.50000000  1.0 0.1416180401
H  H84  1  0.10770000  0.69200000  0.50000000  1.0 0.1416180401
H  H85  1  0.39110000  0.87740000  0.50000000  1.0 0.1459862261
H  H86  1  0.60890000  0.12260000  0.50000000  1.0 0.1459862261
H  H87  1  0.87740000  0.39110000  0.50000000  1.0 0.1459862261
H  H88  1  0.12260000  0.60890000  0.50000000  1.0 0.1459862261
H  H89  1  0.45210000  0.05490000  0.35180000  1.0 0.1185185059
H  H90  1  0.54790000  0.94510000  0.35180000  1.0 0.1185185059
H  H91  1  0.05490000  0.45210000  0.64820000  1.0 0.1185185059
H  H92  1  0.94510000  0.54790000  0.64820000  1.0 0.1185185059
H  H93  1  0.54790000  0.94510000  0.64820000  1.0 0.1185185059
H  H94  1  0.45210000  0.05490000  0.64820000  1.0 0.1185185059
H  H95  1  0.94510000  0.54790000  0.35180000  1.0 0.1185185059
H  H96  1  0.05490000  0.45210000  0.35180000  1.0 0.1185185059
H  H97  1  0.27150000  0.95090000  0.38610000  1.0 0.1279889882
H  H98  1  0.72850000  0.04910000  0.38610000  1.0 0.1279889882
H  H99  1  0.95090000  0.27150000  0.61390000  1.0 0.1279889882
H  H100  1  0.04910000  0.72850000  0.61390000  1.0 0.1279889882
H  H101  1  0.72850000  0.04910000  0.61390000  1.0 0.1279889882
H  H102  1  0.27150000  0.95090000  0.61390000  1.0 0.1279889882
H  H103  1  0.04910000  0.72850000  0.38610000  1.0 0.1279889882
H  H104  1  0.95090000  0.27150000  0.38610000  1.0 0.1279889882
H  H105  1  0.25410000  0.95830000  0.26360000  1.0 0.1082600936
H  H106  1  0.74590000  0.04170000  0.26360000  1.0 0.1082600936
H  H107  1  0.95830000  0.25410000  0.73640000  1.0 0.1082600936
H  H108  1  0.04170000  0.74590000  0.73640000  1.0 0.1082600936
H  H109  1  0.74590000  0.04170000  0.73640000  1.0 0.1082600936
H  H110  1  0.25410000  0.95830000  0.73640000  1.0 0.1082600936
H  H111  1  0.04170000  0.74590000  0.26360000  1.0 0.1082600936
H  H112  1  0.95830000  0.25410000  0.26360000  1.0 0.1082600936
H  H113  1  0.20790000  0.00190000  0.16360000  1.0 0.1279889882
H  H114  1  0.79210000  0.99810000  0.16360000  1.0 0.1279889882
H  H115  1  0.00190000  0.20790000  0.83640000  1.0 0.1279889882
H  H116  1  0.99810000  0.79210000  0.83640000  1.0 0.1279889882
H  H117  1  0.79210000  0.99810000  0.83640000  1.0 0.1279889882
H  H118  1  0.20790000  0.00190000  0.83640000  1.0 0.1279889882
H  H119  1  0.99810000  0.79210000  0.16360000  1.0 0.1279889882
H  H120  1  0.00190000  0.20790000  0.16360000  1.0 0.1279889882
H  H121  1  0.34360000  0.16370000  0.17190000  1.0 0.1082600936
H  H122  1  0.65640000  0.83630000  0.17190000  1.0 0.1082600936
H  H123  1  0.16370000  0.34360000  0.82810000  1.0 0.1082600936
H  H124  1  0.83630000  0.65640000  0.82810000  1.0 0.1082600936
H  H125  1  0.65640000  0.83630000  0.82810000  1.0 0.1082600936
H  H126  1  0.34360000  0.16370000  0.82810000  1.0 0.1082600936
H  H127  1  0.83630000  0.65640000  0.17190000  1.0 0.1082600936
H  H128  1  0.16370000  0.34360000  0.17190000  1.0 0.1082600936
H  H129  1  0.38700000  0.12330000  0.27330000  1.0 0.1082600936
H  H130  1  0.61300000  0.87670000  0.27330000  1.0 0.1082600936
H  H131  1  0.12330000  0.38700000  0.72670000  1.0 0.1082600936
H  H132  1  0.87670000  0.61300000  0.72670000  1.0 0.1082600936
H  H133  1  0.61300000  0.87670000  0.72670000  1.0 0.1082600936
H  H134  1  0.38700000  0.12330000  0.72670000  1.0 0.1082600936
H  H135  1  0.87670000  0.61300000  0.27330000  1.0 0.1082600936
H  H136  1  0.12330000  0.38700000  0.27330000  1.0 0.1082600936
H  H137  1  0.97080000  0.10860000  0.95990000  1.0 0.0709495085
H  H138  1  0.02920000  0.89140000  0.95990000  1.0 0.0709495085
H  H139  1  0.10860000  0.97080000  0.04010000  1.0 0.0709495085
H  H140  1  0.89140000  0.02920000  0.04010000  1.0 0.0709495085
H  H141  1  0.02920000  0.89140000  0.04010000  1.0 0.0709495085
H  H142  1  0.97080000  0.10860000  0.04010000  1.0 0.0709495085
H  H143  1  0.89140000  0.02920000  0.95990000  1.0 0.0709495085
H  H144  1  0.10860000  0.97080000  0.95990000  1.0 0.0709495085
H  H145  1  0.04520000  0.03590000  0.09920000  1.0 0.1037021472
H  H146  1  0.95480000  0.96410000  0.09920000  1.0 0.1037021472
H  H147  1  0.03590000  0.04520000  0.90080000  1.0 0.1037021472
H  H148  1  0.96410000  0.95480000  0.90080000  1.0 0.1037021472
H  H149  1  0.95480000  0.96410000  0.90080000  1.0 0.1037021472
H  H150  1  0.04520000  0.03590000  0.90080000  1.0 0.1037021472
H  H151  1  0.96410000  0.95480000  0.09920000  1.0 0.1037021472
H  H152  1  0.03590000  0.04520000  0.09920000  1.0 0.1037021472
H  H153  1  0.09810000  0.98300000  0.06230000  1.0 0.0709495085
H  H154  1  0.90190000  0.01700000  0.06230000  1.0 0.0709495085
H  H155  1  0.98300000  0.09810000  0.93770000  1.0 0.0709495085
H  H156  1  0.01700000  0.90190000  0.93770000  1.0 0.0709495085
H  H157  1  0.90190000  0.01700000  0.93770000  1.0 0.0709495085
H  H158  1  0.09810000  0.98300000  0.93770000  1.0 0.0709495085
H  H159  1  0.01700000  0.90190000  0.06230000  1.0 0.0709495085
H  H160  1  0.98300000  0.09810000  0.06230000  1.0 0.0709495085
C  C1  1  0.58510000  0.85500000  0.00000000  1.0 -0.092139154
C  C2  1  0.41490000  0.14500000  0.00000000  1.0 -0.092139154
C  C3  1  0.85500000  0.58510000  0.00000000  1.0 -0.092139154
C  C4  1  0.14500000  0.41490000  0.00000000  1.0 -0.092139154
C  C5  1  0.47430000  0.91740000  0.87190000  1.0 -0.0498445848
C  C6  1  0.52570000  0.08260000  0.87190000  1.0 -0.0498445848
C  C7  1  0.91740000  0.47430000  0.12810000  1.0 -0.0498445848
C  C8  1  0.08260000  0.52570000  0.12810000  1.0 -0.0498445848
C  C9  1  0.52570000  0.08260000  0.12810000  1.0 -0.0498445848
C  C10  1  0.47430000  0.91740000  0.12810000  1.0 -0.0498445848
C  C11  1  0.08260000  0.52570000  0.87190000  1.0 -0.0498445848
C  C12  1  0.91740000  0.47430000  0.87190000  1.0 -0.0498445848
C  C13  1  0.48790000  0.85020000  0.84440000  1.0 -0.0335657034
C  C14  1  0.51210000  0.14980000  0.84440000  1.0 -0.0335657034
C  C15  1  0.85020000  0.48790000  0.15560000  1.0 -0.0335657034
C  C16  1  0.14980000  0.51210000  0.15560000  1.0 -0.0335657034
C  C17  1  0.51210000  0.14980000  0.15560000  1.0 -0.0335657034
C  C18  1  0.48790000  0.85020000  0.15560000  1.0 -0.0335657034
C  C19  1  0.14980000  0.51210000  0.84440000  1.0 -0.0335657034
C  C20  1  0.85020000  0.48790000  0.84440000  1.0 -0.0335657034
C  C21  1  0.53060000  0.81780000  0.88970000  1.0 -0.1202463477
C  C22  1  0.46940000  0.18220000  0.88970000  1.0 -0.1202463477
C  C23  1  0.81780000  0.53060000  0.11030000  1.0 -0.1202463477
C  C24  1  0.18220000  0.46940000  0.11030000  1.0 -0.1202463477
C  C25  1  0.46940000  0.18220000  0.11030000  1.0 -0.1202463477
C  C26  1  0.53060000  0.81780000  0.11030000  1.0 -0.1202463477
C  C27  1  0.18220000  0.46940000  0.88970000  1.0 -0.1202463477
C  C28  1  0.81780000  0.53060000  0.88970000  1.0 -0.1202463477
C  C29  1  0.46280000  0.82340000  0.77950000  1.0 0.0879083273
C  C30  1  0.53720000  0.17660000  0.77950000  1.0 0.0879083273
C  C31  1  0.82340000  0.46280000  0.22050000  1.0 0.0879083273
C  C32  1  0.17660000  0.53720000  0.22050000  1.0 0.0879083273
C  C33  1  0.53720000  0.17660000  0.22050000  1.0 0.0879083273
C  C34  1  0.46280000  0.82340000  0.22050000  1.0 0.0879083273
C  C35  1  0.17660000  0.53720000  0.77950000  1.0 0.0879083273
C  C36  1  0.82340000  0.46280000  0.77950000  1.0 0.0879083273
C  C37  1  0.49890000  0.77170000  0.74570000  1.0 -0.1653140218
C  C38  1  0.50110000  0.22830000  0.74570000  1.0 -0.1653140218
C  C39  1  0.77170000  0.49890000  0.25430000  1.0 -0.1653140218
C  C40  1  0.22830000  0.50110000  0.25430000  1.0 -0.1653140218
C  C41  1  0.50110000  0.22830000  0.25430000  1.0 -0.1653140218
C  C42  1  0.49890000  0.77170000  0.25430000  1.0 -0.1653140218
C  C43  1  0.22830000  0.50110000  0.74570000  1.0 -0.1653140218
C  C44  1  0.77170000  0.49890000  0.74570000  1.0 -0.1653140218
C  C45  1  0.47350000  0.74490000  0.68550000  1.0 -0.1071845851
C  C46  1  0.52650000  0.25510000  0.68550000  1.0 -0.1071845851
C  C47  1  0.74490000  0.47350000  0.31450000  1.0 -0.1071845851
C  C48  1  0.25510000  0.52650000  0.31450000  1.0 -0.1071845851
C  C49  1  0.52650000  0.25510000  0.31450000  1.0 -0.1071845851
C  C50  1  0.47350000  0.74490000  0.31450000  1.0 -0.1071845851
C  C51  1  0.25510000  0.52650000  0.68550000  1.0 -0.1071845851
C  C52  1  0.74490000  0.47350000  0.68550000  1.0 -0.1071845851
C  C53  1  0.41270000  0.77190000  0.65760000  1.0 -0.0154435724
C  C54  1  0.58730000  0.22810000  0.65760000  1.0 -0.0154435724
C  C55  1  0.77190000  0.41270000  0.34240000  1.0 -0.0154435724
C  C56  1  0.22810000  0.58730000  0.34240000  1.0 -0.0154435724
C  C57  1  0.58730000  0.22810000  0.34240000  1.0 -0.0154435724
C  C58  1  0.41270000  0.77190000  0.34240000  1.0 -0.0154435724
C  C59  1  0.22810000  0.58730000  0.65760000  1.0 -0.0154435724
C  C60  1  0.77190000  0.41270000  0.65760000  1.0 -0.0154435724
C  C61  1  0.37800000  0.82450000  0.69090000  1.0 -0.1071845851
C  C62  1  0.62200000  0.17550000  0.69090000  1.0 -0.1071845851
C  C63  1  0.82450000  0.37800000  0.30910000  1.0 -0.1071845851
C  C64  1  0.17550000  0.62200000  0.30910000  1.0 -0.1071845851
C  C65  1  0.62200000  0.17550000  0.30910000  1.0 -0.1071845851
C  C66  1  0.37800000  0.82450000  0.30910000  1.0 -0.1071845851
C  C67  1  0.17550000  0.62200000  0.69090000  1.0 -0.1071845851
C  C68  1  0.82450000  0.37800000  0.69090000  1.0 -0.1071845851
C  C69  1  0.40190000  0.85060000  0.75120000  1.0 -0.1631067948
C  C70  1  0.59810000  0.14940000  0.75120000  1.0 -0.1631067948
C  C71  1  0.85060000  0.40190000  0.24880000  1.0 -0.1631067948
C  C72  1  0.14940000  0.59810000  0.24880000  1.0 -0.1631067948
C  C73  1  0.59810000  0.14940000  0.24880000  1.0 -0.1631067948
C  C74  1  0.40190000  0.85060000  0.24880000  1.0 -0.1631067948
C  C75  1  0.14940000  0.59810000  0.75120000  1.0 -0.1631067948
C  C76  1  0.85060000  0.40190000  0.75120000  1.0 -0.1631067948
C  C77  1  0.38360000  0.74170000  0.59390000  1.0 0.5426167442
C  C78  1  0.61640000  0.25830000  0.59390000  1.0 0.5426167442
C  C79  1  0.74170000  0.38360000  0.40610000  1.0 0.5426167442
C  C80  1  0.25830000  0.61640000  0.40610000  1.0 0.5426167442
C  C81  1  0.61640000  0.25830000  0.40610000  1.0 0.5426167442
C  C82  1  0.38360000  0.74170000  0.40610000  1.0 0.5426167442
C  C83  1  0.25830000  0.61640000  0.59390000  1.0 0.5426167442
C  C84  1  0.74170000  0.38360000  0.59390000  1.0 0.5426167442
C  C85  1  0.49440000  0.55120000  0.55930000  1.0 -0.1071845851
C  C86  1  0.50560000  0.44880000  0.55930000  1.0 -0.1071845851
C  C87  1  0.55120000  0.49440000  0.44070000  1.0 -0.1071845851
C  C88  1  0.44880000  0.50560000  0.44070000  1.0 -0.1071845851
C  C89  1  0.50560000  0.44880000  0.44070000  1.0 -0.1071845851
C  C90  1  0.49440000  0.55120000  0.44070000  1.0 -0.1071845851
C  C91  1  0.44880000  0.50560000  0.55930000  1.0 -0.1071845851
C  C92  1  0.55120000  0.49440000  0.55930000  1.0 -0.1071845851
C  C93  1  0.42150000  0.47670000  0.50000000  1.0 -0.1202463477
C  C94  1  0.57850000  0.52330000  0.50000000  1.0 -0.1202463477
C  C95  1  0.47670000  0.42150000  0.50000000  1.0 -0.1202463477
C  C96  1  0.52330000  0.57850000  0.50000000  1.0 -0.1202463477
C  C97  1  0.35500000  0.91490000  0.50000000  1.0 -0.092139154
C  C98  1  0.64500000  0.08510000  0.50000000  1.0 -0.092139154
C  C99  1  0.91490000  0.35500000  0.50000000  1.0 -0.092139154
C  C100  1  0.08510000  0.64500000  0.50000000  1.0 -0.092139154
C  C101  1  0.41740000  0.02570000  0.37190000  1.0 -0.0498445848
C  C102  1  0.58260000  0.97430000  0.37190000  1.0 -0.0498445848
C  C103  1  0.02570000  0.41740000  0.62810000  1.0 -0.0498445848
C  C104  1  0.97430000  0.58260000  0.62810000  1.0 -0.0498445848
C  C105  1  0.58260000  0.97430000  0.62810000  1.0 -0.0498445848
C  C106  1  0.41740000  0.02570000  0.62810000  1.0 -0.0498445848
C  C107  1  0.97430000  0.58260000  0.37190000  1.0 -0.0498445848
C  C108  1  0.02570000  0.41740000  0.37190000  1.0 -0.0498445848
C  C109  1  0.35020000  0.01210000  0.34440000  1.0 -0.0335657034
C  C110  1  0.64980000  0.98790000  0.34440000  1.0 -0.0335657034
C  C111  1  0.01210000  0.35020000  0.65560000  1.0 -0.0335657034
C  C112  1  0.98790000  0.64980000  0.65560000  1.0 -0.0335657034
C  C113  1  0.64980000  0.98790000  0.65560000  1.0 -0.0335657034
C  C114  1  0.35020000  0.01210000  0.65560000  1.0 -0.0335657034
C  C115  1  0.98790000  0.64980000  0.34440000  1.0 -0.0335657034
C  C116  1  0.01210000  0.35020000  0.34440000  1.0 -0.0335657034
C  C117  1  0.31780000  0.96940000  0.38970000  1.0 -0.1202463477
C  C118  1  0.68220000  0.03060000  0.38970000  1.0 -0.1202463477
C  C119  1  0.96940000  0.31780000  0.61030000  1.0 -0.1202463477
C  C120  1  0.03060000  0.68220000  0.61030000  1.0 -0.1202463477
C  C121  1  0.68220000  0.03060000  0.61030000  1.0 -0.1202463477
C  C122  1  0.31780000  0.96940000  0.61030000  1.0 -0.1202463477
C  C123  1  0.03060000  0.68220000  0.38970000  1.0 -0.1202463477
C  C124  1  0.96940000  0.31780000  0.38970000  1.0 -0.1202463477
C  C125  1  0.32340000  0.03720000  0.27950000  1.0 0.0879083273
C  C126  1  0.67660000  0.96280000  0.27950000  1.0 0.0879083273
C  C127  1  0.03720000  0.32340000  0.72050000  1.0 0.0879083273
C  C128  1  0.96280000  0.67660000  0.72050000  1.0 0.0879083273
C  C129  1  0.67660000  0.96280000  0.72050000  1.0 0.0879083273
C  C130  1  0.32340000  0.03720000  0.72050000  1.0 0.0879083273
C  C131  1  0.96280000  0.67660000  0.27950000  1.0 0.0879083273
C  C132  1  0.03720000  0.32340000  0.27950000  1.0 0.0879083273
C  C133  1  0.27170000  0.00110000  0.24570000  1.0 -0.1653140218
C  C134  1  0.72830000  0.99890000  0.24570000  1.0 -0.1653140218
C  C135  1  0.00110000  0.27170000  0.75430000  1.0 -0.1653140218
C  C136  1  0.99890000  0.72830000  0.75430000  1.0 -0.1653140218
C  C137  1  0.72830000  0.99890000  0.75430000  1.0 -0.1653140218
C  C138  1  0.27170000  0.00110000  0.75430000  1.0 -0.1653140218
C  C139  1  0.99890000  0.72830000  0.24570000  1.0 -0.1653140218
C  C140  1  0.00110000  0.27170000  0.24570000  1.0 -0.1653140218
C  C141  1  0.24490000  0.02650000  0.18550000  1.0 -0.1071845851
C  C142  1  0.75510000  0.97350000  0.18550000  1.0 -0.1071845851
C  C143  1  0.02650000  0.24490000  0.81450000  1.0 -0.1071845851
C  C144  1  0.97350000  0.75510000  0.81450000  1.0 -0.1071845851
C  C145  1  0.75510000  0.97350000  0.81450000  1.0 -0.1071845851
C  C146  1  0.24490000  0.02650000  0.81450000  1.0 -0.1071845851
C  C147  1  0.97350000  0.75510000  0.18550000  1.0 -0.1071845851
C  C148  1  0.02650000  0.24490000  0.18550000  1.0 -0.1071845851
C  C149  1  0.27190000  0.08730000  0.15760000  1.0 -0.0154435724
C  C150  1  0.72810000  0.91270000  0.15760000  1.0 -0.0154435724
C  C151  1  0.08730000  0.27190000  0.84240000  1.0 -0.0154435724
C  C152  1  0.91270000  0.72810000  0.84240000  1.0 -0.0154435724
C  C153  1  0.72810000  0.91270000  0.84240000  1.0 -0.0154435724
C  C154  1  0.27190000  0.08730000  0.84240000  1.0 -0.0154435724
C  C155  1  0.91270000  0.72810000  0.15760000  1.0 -0.0154435724
C  C156  1  0.08730000  0.27190000  0.15760000  1.0 -0.0154435724
C  C157  1  0.32450000  0.12200000  0.19090000  1.0 -0.1071845851
C  C158  1  0.67550000  0.87800000  0.19090000  1.0 -0.1071845851
C  C159  1  0.12200000  0.32450000  0.80910000  1.0 -0.1071845851
C  C160  1  0.87800000  0.67550000  0.80910000  1.0 -0.1071845851
C  C161  1  0.67550000  0.87800000  0.80910000  1.0 -0.1071845851
C  C162  1  0.32450000  0.12200000  0.80910000  1.0 -0.1071845851
C  C163  1  0.87800000  0.67550000  0.19090000  1.0 -0.1071845851
C  C164  1  0.12200000  0.32450000  0.19090000  1.0 -0.1071845851
C  C165  1  0.35060000  0.09810000  0.25120000  1.0 -0.1631067948
C  C166  1  0.64940000  0.90190000  0.25120000  1.0 -0.1631067948
C  C167  1  0.09810000  0.35060000  0.74880000  1.0 -0.1631067948
C  C168  1  0.90190000  0.64940000  0.74880000  1.0 -0.1631067948
C  C169  1  0.64940000  0.90190000  0.74880000  1.0 -0.1631067948
C  C170  1  0.35060000  0.09810000  0.74880000  1.0 -0.1631067948
C  C171  1  0.90190000  0.64940000  0.25120000  1.0 -0.1631067948
C  C172  1  0.09810000  0.35060000  0.25120000  1.0 -0.1631067948
C  C173  1  0.24170000  0.11640000  0.09390000  1.0 0.5426167442
C  C174  1  0.75830000  0.88360000  0.09390000  1.0 0.5426167442
C  C175  1  0.11640000  0.24170000  0.90610000  1.0 0.5426167442
C  C176  1  0.88360000  0.75830000  0.90610000  1.0 0.5426167442
C  C177  1  0.75830000  0.88360000  0.90610000  1.0 0.5426167442
C  C178  1  0.24170000  0.11640000  0.90610000  1.0 0.5426167442
C  C179  1  0.88360000  0.75830000  0.09390000  1.0 0.5426167442
C  C180  1  0.11640000  0.24170000  0.09390000  1.0 0.5426167442
C  C181  1  0.05120000  0.00560000  0.05930000  1.0 -0.1071845851
C  C182  1  0.94880000  0.99440000  0.05930000  1.0 -0.1071845851
C  C183  1  0.00560000  0.05120000  0.94070000  1.0 -0.1071845851
C  C184  1  0.99440000  0.94880000  0.94070000  1.0 -0.1071845851
C  C185  1  0.94880000  0.99440000  0.94070000  1.0 -0.1071845851
C  C186  1  0.05120000  0.00560000  0.94070000  1.0 -0.1071845851
C  C187  1  0.99440000  0.94880000  0.05930000  1.0 -0.1071845851
C  C188  1  0.00560000  0.05120000  0.05930000  1.0 -0.1071845851
C  C189  1  0.97670000  0.07850000  0.00000000  1.0 -0.1202463477
C  C190  1  0.02330000  0.92150000  0.00000000  1.0 -0.1202463477
C  C191  1  0.07850000  0.97670000  0.00000000  1.0 -0.1202463477
C  C192  1  0.92150000  0.02330000  0.00000000  1.0 -0.1202463477
N  N1  1  0.54180000  0.86270000  0.94047000  1.0 0.1416180401
N  N2  1  0.45820000  0.13730000  0.94047000  1.0 0.1459862261
N  N3  1  0.86270000  0.54180000  0.05953000  1.0 0.1416180401
N  N4  1  0.13730000  0.45820000  0.05953000  1.0 0.1416180401
N  N5  1  0.45820000  0.13730000  0.05953000  1.0 0.1459862261
N  N6  1  0.54180000  0.86270000  0.05953000  1.0 0.1416180401
N  N7  1  0.13730000  0.45820000  0.94047000  1.0 0.1459862261
N  N8  1  0.86270000  0.54180000  0.94047000  1.0 0.1459862261
N  N9  1  0.50740000  0.92540000  0.92942000  1.0 -0.2008098041
N  N10  1  0.49260000  0.07460000  0.92942000  1.0 -0.2008098041
N  N11  1  0.92540000  0.50740000  0.07058000  1.0 -0.2008098041
N  N12  1  0.07460000  0.49260000  0.07058000  1.0 -0.2008098041
N  N13  1  0.49260000  0.07460000  0.07058000  1.0 -0.2008098041
N  N14  1  0.50740000  0.92540000  0.07058000  1.0 -0.2008098041
N  N15  1  0.07460000  0.49260000  0.92942000  1.0 -0.2008098041
N  N16  1  0.92540000  0.50740000  0.92942000  1.0 -0.2008098041
N  N17  1  0.45160000  0.54840000  0.50000000  1.0 -0.0960218267
N  N18  1  0.54840000  0.45160000  0.50000000  1.0 -0.0960218267
N  N19  1  0.36270000  0.95820000  0.44047000  1.0 0.1416180401
N  N20  1  0.63730000  0.04180000  0.44047000  1.0 0.1459862261
N  N21  1  0.95820000  0.36270000  0.55953000  1.0 0.1459862261
N  N22  1  0.04180000  0.63730000  0.55953000  1.0 0.1416180401
N  N23  1  0.63730000  0.04180000  0.55953000  1.0 0.1459862261
N  N24  1  0.36270000  0.95820000  0.55953000  1.0 0.1416180401
N  N25  1  0.04180000  0.63730000  0.44047000  1.0 0.1416180401
N  N26  1  0.95820000  0.36270000  0.44047000  1.0 0.1459862261
N  N27  1  0.42540000  0.99260000  0.42942000  1.0 -0.2008098041
N  N28  1  0.57460000  0.00740000  0.42942000  1.0 -0.2008098041
N  N29  1  0.99260000  0.42540000  0.57058000  1.0 -0.2008098041
N  N30  1  0.00740000  0.57460000  0.57058000  1.0 -0.2008098041
N  N31  1  0.57460000  0.00740000  0.57058000  1.0 -0.2008098041
N  N32  1  0.42540000  0.99260000  0.57058000  1.0 -0.2008098041
N  N33  1  0.00740000  0.57460000  0.42942000  1.0 -0.2008098041
N  N34  1  0.99260000  0.42540000  0.42942000  1.0 -0.2008098041
N  N35  1  0.04840000  0.04840000  0.00000000  1.0 -0.0960218267
N  N36  1  0.95160000  0.95160000  0.00000000  1.0 -0.0960218267
O  O1  1  0.41350000  0.68760000  0.57032000  1.0 -0.5359862754
O  O2  1  0.58650000  0.31240000  0.57032000  1.0 -0.5359862754
O  O3  1  0.68760000  0.41350000  0.42968000  1.0 -0.5359862754
O  O4  1  0.31240000  0.58650000  0.42968000  1.0 -0.5359862754
O  O5  1  0.58650000  0.31240000  0.42968000  1.0 -0.5359862754
O  O6  1  0.41350000  0.68760000  0.42968000  1.0 -0.5359862754
O  O7  1  0.31240000  0.58650000  0.57032000  1.0 -0.5359862754
O  O8  1  0.68760000  0.41350000  0.57032000  1.0 -0.5359862754
O  O9  1  0.32960000  0.77135000  0.57030000  1.0 -0.5359862754
O  O10  1  0.67040000  0.22865000  0.57030000  1.0 -0.5359862754
O  O11  1  0.77135000  0.32960000  0.42970000  1.0 -0.5359862754
O  O12  1  0.22865000  0.67040000  0.42970000  1.0 -0.5359862754
O  O13  1  0.67040000  0.22865000  0.42970000  1.0 -0.5359862754
O  O14  1  0.32960000  0.77135000  0.42970000  1.0 -0.5359862754
O  O15  1  0.22865000  0.67040000  0.57030000  1.0 -0.5359862754
O  O16  1  0.77135000  0.32960000  0.57030000  1.0 -0.5359862754
O  O17  1  0.18760000  0.08650000  0.07032000  1.0 -0.5346487642
O  O18  1  0.81240000  0.91350000  0.07032000  1.0 -0.5359862754
O  O19  1  0.08650000  0.18760000  0.92968000  1.0 -0.5346487642
O  O20  1  0.91350000  0.81240000  0.92968000  1.0 -0.5359862754
O  O21  1  0.81240000  0.91350000  0.92968000  1.0 -0.5359862754
O  O22  1  0.18760000  0.08650000  0.92968000  1.0 -0.5346487642
O  O23  1  0.91350000  0.81240000  0.07032000  1.0 -0.5359862754
O  O24  1  0.08650000  0.18760000  0.07032000  1.0 -0.5346487642
O  O25  1  0.27135000  0.17040000  0.07030000  1.0 -0.5359862754
O  O26  1  0.72865000  0.82960000  0.07030000  1.0 -0.5359862754
O  O27  1  0.17040000  0.27135000  0.92970000  1.0 -0.5359862754
O  O28  1  0.82960000  0.72865000  0.92970000  1.0 -0.5359862754
O  O29  1  0.72865000  0.82960000  0.92970000  1.0 -0.5359862754
O  O30  1  0.27135000  0.17040000  0.92970000  1.0 -0.5359862754
O  O31  1  0.82960000  0.72865000  0.07030000  1.0 -0.5359862754
O  O32  1  0.17040000  0.27135000  0.07030000  1.0 -0.5359862754
