# DDEC6 charges by PACMAN v1.1 (https://github.com/mtap-research/PACMAN-charge/)
data_IMAXUR_ASR_pacman
_symmetry_space_group_name_H-M   'P 1'
_cell_length_a   19.11100000
_cell_length_b   19.11100000
_cell_length_c   19.91500000
_cell_angle_alpha   90.00000000
_cell_angle_beta   90.00000000
_cell_angle_gamma   90.00000000
_symmetry_Int_Tables_number   1
_chemical_formula_structural   Cu3H32C46N9O8
_chemical_formula_sum   'Cu12 H128 C184 N36 O32'
_cell_volume   7273.56184271
_cell_formula_units_Z   4
loop_
 _symmetry_equiv_pos_site_id
 _symmetry_equiv_pos_as_xyz
  1  'x, y, z'
loop_
 _atom_site_type_symbol
 _atom_site_label
 _atom_site_symmetry_multiplicity
 _atom_site_fract_x
 _atom_site_fract_y
 _atom_site_fract_z
 _atom_site_occupancy
 _atom_site_charge
Cu  Cu1  1  0.86874000  0.13126000  0.00000000  1.0 0.7303287456
Cu  Cu2  1  0.13126000  0.86874000  0.00000000  1.0 0.7303287456
Cu  Cu3  1  0.77153000  0.22847000  0.00000000  1.0 0.7369645456
Cu  Cu4  1  0.22847000  0.77153000  0.00000000  1.0 0.7369645456
Cu  Cu5  1  0.50000000  0.00000000  0.50000000  1.0 0.2457099328
Cu  Cu6  1  0.00000000  0.50000000  0.50000000  1.0 0.2457099328
Cu  Cu7  1  0.63126000  0.63126000  0.50000000  1.0 0.7303287456
Cu  Cu8  1  0.36874000  0.36874000  0.50000000  1.0 0.7303287456
Cu  Cu9  1  0.72847000  0.72847000  0.50000000  1.0 0.7369645456
Cu  Cu10  1  0.27153000  0.27153000  0.50000000  1.0 0.7369645456
Cu  Cu11  1  0.50000000  0.00000000  0.00000000  1.0 0.2457099328
Cu  Cu12  1  0.00000000  0.50000000  0.00000000  1.0 0.2457099328
H  H1  1  0.61160000  0.87650000  0.50000000  1.0 0.1402068878
H  H2  1  0.38840000  0.12350000  0.50000000  1.0 0.1402068878
H  H3  1  0.87650000  0.61160000  0.50000000  1.0 0.1402068878
H  H4  1  0.12350000  0.38840000  0.50000000  1.0 0.1402068878
H  H5  1  0.69350000  0.89510000  0.50000000  1.0 0.1402068878
H  H6  1  0.30650000  0.10490000  0.50000000  1.0 0.1402068878
H  H7  1  0.89510000  0.69350000  0.50000000  1.0 0.1402068878
H  H8  1  0.10490000  0.30650000  0.50000000  1.0 0.1402068878
H  H9  1  0.54800000  0.05490000  0.35200000  1.0 0.1186578177
H  H10  1  0.45200000  0.94510000  0.35200000  1.0 0.1186578177
H  H11  1  0.05490000  0.54800000  0.64800000  1.0 0.1186578177
H  H12  1  0.94510000  0.45200000  0.64800000  1.0 0.1186578177
H  H13  1  0.45200000  0.94510000  0.64800000  1.0 0.1186578177
H  H14  1  0.54800000  0.05490000  0.64800000  1.0 0.1186578177
H  H15  1  0.94510000  0.45200000  0.35200000  1.0 0.1186578177
H  H16  1  0.05490000  0.54800000  0.35200000  1.0 0.1186578177
H  H17  1  0.72690000  0.95070000  0.38600000  1.0 0.1250170538
H  H18  1  0.27310000  0.04930000  0.38600000  1.0 0.1250170538
H  H19  1  0.95070000  0.72690000  0.61400000  1.0 0.1250170538
H  H20  1  0.04930000  0.27310000  0.61400000  1.0 0.1250170538
H  H21  1  0.27310000  0.04930000  0.61400000  1.0 0.1250170538
H  H22  1  0.72690000  0.95070000  0.61400000  1.0 0.1250170538
H  H23  1  0.04930000  0.27310000  0.38600000  1.0 0.1250170538
H  H24  1  0.95070000  0.72690000  0.38600000  1.0 0.1250170538
H  H25  1  0.74300000  0.95690000  0.26160000  1.0 0.1034538144
H  H26  1  0.25700000  0.04310000  0.26160000  1.0 0.1034538144
H  H27  1  0.95690000  0.74300000  0.73840000  1.0 0.1034538144
H  H28  1  0.04310000  0.25700000  0.73840000  1.0 0.1034538144
H  H29  1  0.25700000  0.04310000  0.73840000  1.0 0.1034538144
H  H30  1  0.74300000  0.95690000  0.73840000  1.0 0.1034538144
H  H31  1  0.04310000  0.25700000  0.26160000  1.0 0.1034538144
H  H32  1  0.95690000  0.74300000  0.26160000  1.0 0.1034538144
H  H33  1  0.78600000  0.99850000  0.16000000  1.0 0.1186578177
H  H34  1  0.21400000  0.00150000  0.16000000  1.0 0.1186578177
H  H35  1  0.99850000  0.78600000  0.84000000  1.0 0.1186578177
H  H36  1  0.00150000  0.21400000  0.84000000  1.0 0.1186578177
H  H37  1  0.21400000  0.00150000  0.84000000  1.0 0.1186578177
H  H38  1  0.78600000  0.99850000  0.84000000  1.0 0.1186578177
H  H39  1  0.00150000  0.21400000  0.16000000  1.0 0.1186578177
H  H40  1  0.99850000  0.78600000  0.16000000  1.0 0.1186578177
H  H41  1  0.65950000  0.16710000  0.17360000  1.0 0.1052957991
H  H42  1  0.34050000  0.83290000  0.17360000  1.0 0.1052957991
H  H43  1  0.16710000  0.65950000  0.82640000  1.0 0.1052957991
H  H44  1  0.83290000  0.34050000  0.82640000  1.0 0.1052957991
H  H45  1  0.34050000  0.83290000  0.82640000  1.0 0.1052957991
H  H46  1  0.65950000  0.16710000  0.82640000  1.0 0.1052957991
H  H47  1  0.83290000  0.34050000  0.17360000  1.0 0.1052957991
H  H48  1  0.16710000  0.65950000  0.17360000  1.0 0.1052957991
H  H49  1  0.61600000  0.12510000  0.27530000  1.0 0.1034538144
H  H50  1  0.38400000  0.87490000  0.27530000  1.0 0.1034538144
H  H51  1  0.12510000  0.61600000  0.72470000  1.0 0.1034538144
H  H52  1  0.87490000  0.38400000  0.72470000  1.0 0.1034538144
H  H53  1  0.38400000  0.87490000  0.72470000  1.0 0.1034538144
H  H54  1  0.61600000  0.12510000  0.72470000  1.0 0.1034538144
H  H55  1  0.87490000  0.38400000  0.27530000  1.0 0.1034538144
H  H56  1  0.12510000  0.61600000  0.27530000  1.0 0.1034538144
H  H57  1  0.00590000  0.08940000  0.92570000  1.0 0.1186578177
H  H58  1  0.99410000  0.91060000  0.92570000  1.0 0.1186578177
H  H59  1  0.08940000  0.00590000  0.07430000  1.0 0.1186578177
H  H60  1  0.91060000  0.99410000  0.07430000  1.0 0.1186578177
H  H61  1  0.99410000  0.91060000  0.07430000  1.0 0.1186578177
H  H62  1  0.00590000  0.08940000  0.07430000  1.0 0.1186578177
H  H63  1  0.91060000  0.99410000  0.92570000  1.0 0.1186578177
H  H64  1  0.08940000  0.00590000  0.92570000  1.0 0.1186578177
H  H65  1  0.37650000  0.88840000  0.00000000  1.0 0.1402068878
H  H66  1  0.62350000  0.11160000  0.00000000  1.0 0.1402068878
H  H67  1  0.88840000  0.37650000  0.00000000  1.0 0.1402068878
H  H68  1  0.11160000  0.62350000  0.00000000  1.0 0.1402068878
H  H69  1  0.39510000  0.80650000  0.00000000  1.0 0.1402068878
H  H70  1  0.60490000  0.19350000  0.00000000  1.0 0.1402068878
H  H71  1  0.80650000  0.39510000  0.00000000  1.0 0.1402068878
H  H72  1  0.19350000  0.60490000  0.00000000  1.0 0.1402068878
H  H73  1  0.55490000  0.95200000  0.85200000  1.0 0.1186578177
H  H74  1  0.44510000  0.04800000  0.85200000  1.0 0.1186578177
H  H75  1  0.95200000  0.55490000  0.14800000  1.0 0.1186578177
H  H76  1  0.04800000  0.44510000  0.14800000  1.0 0.1186578177
H  H77  1  0.44510000  0.04800000  0.14800000  1.0 0.1186578177
H  H78  1  0.55490000  0.95200000  0.14800000  1.0 0.1186578177
H  H79  1  0.04800000  0.44510000  0.85200000  1.0 0.1186578177
H  H80  1  0.95200000  0.55490000  0.85200000  1.0 0.1186578177
H  H81  1  0.45070000  0.77310000  0.88600000  1.0 0.1250170538
H  H82  1  0.54930000  0.22690000  0.88600000  1.0 0.1250170538
H  H83  1  0.77310000  0.45070000  0.11400000  1.0 0.1250170538
H  H84  1  0.22690000  0.54930000  0.11400000  1.0 0.1250170538
H  H85  1  0.54930000  0.22690000  0.11400000  1.0 0.1250170538
H  H86  1  0.45070000  0.77310000  0.11400000  1.0 0.1250170538
H  H87  1  0.22690000  0.54930000  0.88600000  1.0 0.1250170538
H  H88  1  0.77310000  0.45070000  0.88600000  1.0 0.1250170538
H  H89  1  0.45690000  0.75700000  0.76160000  1.0 0.1034538144
H  H90  1  0.54310000  0.24300000  0.76160000  1.0 0.1034538144
H  H91  1  0.75700000  0.45690000  0.23840000  1.0 0.1034538144
H  H92  1  0.24300000  0.54310000  0.23840000  1.0 0.1034538144
H  H93  1  0.54310000  0.24300000  0.23840000  1.0 0.1034538144
H  H94  1  0.45690000  0.75700000  0.23840000  1.0 0.1034538144
H  H95  1  0.24300000  0.54310000  0.76160000  1.0 0.1034538144
H  H96  1  0.75700000  0.45690000  0.76160000  1.0 0.1034538144
H  H97  1  0.49850000  0.71400000  0.66000000  1.0 0.1186578177
H  H98  1  0.50150000  0.28600000  0.66000000  1.0 0.1186578177
H  H99  1  0.71400000  0.49850000  0.34000000  1.0 0.1186578177
H  H100  1  0.28600000  0.50150000  0.34000000  1.0 0.1186578177
H  H101  1  0.50150000  0.28600000  0.34000000  1.0 0.1186578177
H  H102  1  0.49850000  0.71400000  0.34000000  1.0 0.1186578177
H  H103  1  0.28600000  0.50150000  0.66000000  1.0 0.1186578177
H  H104  1  0.71400000  0.49850000  0.66000000  1.0 0.1186578177
H  H105  1  0.66710000  0.84050000  0.67360000  1.0 0.1052957991
H  H106  1  0.33290000  0.15950000  0.67360000  1.0 0.1052957991
H  H107  1  0.84050000  0.66710000  0.32640000  1.0 0.1052957991
H  H108  1  0.15950000  0.33290000  0.32640000  1.0 0.1052957991
H  H109  1  0.33290000  0.15950000  0.32640000  1.0 0.1052957991
H  H110  1  0.66710000  0.84050000  0.32640000  1.0 0.1052957991
H  H111  1  0.15950000  0.33290000  0.67360000  1.0 0.1052957991
H  H112  1  0.84050000  0.66710000  0.67360000  1.0 0.1052957991
H  H113  1  0.62510000  0.88400000  0.77530000  1.0 0.1034538144
H  H114  1  0.37490000  0.11600000  0.77530000  1.0 0.1034538144
H  H115  1  0.88400000  0.62510000  0.22470000  1.0 0.1034538144
H  H116  1  0.11600000  0.37490000  0.22470000  1.0 0.1034538144
H  H117  1  0.37490000  0.11600000  0.22470000  1.0 0.1034538144
H  H118  1  0.62510000  0.88400000  0.22470000  1.0 0.1034538144
H  H119  1  0.11600000  0.37490000  0.77530000  1.0 0.1034538144
H  H120  1  0.88400000  0.62510000  0.77530000  1.0 0.1034538144
H  H121  1  0.58940000  0.49410000  0.42570000  1.0 0.1186578177
H  H122  1  0.41060000  0.50590000  0.42570000  1.0 0.1186578177
H  H123  1  0.49410000  0.58940000  0.57430000  1.0 0.1186578177
H  H124  1  0.50590000  0.41060000  0.57430000  1.0 0.1186578177
H  H125  1  0.41060000  0.50590000  0.57430000  1.0 0.1186578177
H  H126  1  0.58940000  0.49410000  0.57430000  1.0 0.1186578177
H  H127  1  0.50590000  0.41060000  0.42570000  1.0 0.1186578177
H  H128  1  0.49410000  0.58940000  0.42570000  1.0 0.1186578177
C  C1  1  0.64580000  0.91540000  0.50000000  1.0 -0.1010725839
C  C2  1  0.35420000  0.08460000  0.50000000  1.0 -0.1010725839
C  C3  1  0.91540000  0.64580000  0.50000000  1.0 -0.1010725839
C  C4  1  0.08460000  0.35420000  0.50000000  1.0 -0.1010725839
C  C5  1  0.58240000  0.02560000  0.37190000  1.0 -0.058540844
C  C6  1  0.41760000  0.97440000  0.37190000  1.0 -0.058540844
C  C7  1  0.02560000  0.58240000  0.62810000  1.0 -0.058540844
C  C8  1  0.97440000  0.41760000  0.62810000  1.0 -0.058540844
C  C9  1  0.41760000  0.97440000  0.62810000  1.0 -0.058540844
C  C10  1  0.58240000  0.02560000  0.62810000  1.0 -0.058540844
C  C11  1  0.97440000  0.41760000  0.37190000  1.0 -0.058540844
C  C12  1  0.02560000  0.58240000  0.37190000  1.0 -0.058540844
C  C13  1  0.64820000  0.01180000  0.34440000  1.0 -0.0337329374
C  C14  1  0.35180000  0.98820000  0.34440000  1.0 -0.0337329374
C  C15  1  0.01180000  0.64820000  0.65560000  1.0 -0.0337329374
C  C16  1  0.98820000  0.35180000  0.65560000  1.0 -0.0337329374
C  C17  1  0.35180000  0.98820000  0.65560000  1.0 -0.0337329374
C  C18  1  0.64820000  0.01180000  0.65560000  1.0 -0.0337329374
C  C19  1  0.98820000  0.35180000  0.34440000  1.0 -0.0337329374
C  C20  1  0.01180000  0.64820000  0.34440000  1.0 -0.0337329374
C  C21  1  0.68090000  0.96910000  0.38980000  1.0 -0.1231687667
C  C22  1  0.31910000  0.03090000  0.38980000  1.0 -0.1231687667
C  C23  1  0.96910000  0.68090000  0.61020000  1.0 -0.1231687667
C  C24  1  0.03090000  0.31910000  0.61020000  1.0 -0.1231687667
C  C25  1  0.31910000  0.03090000  0.61020000  1.0 -0.1231687667
C  C26  1  0.68090000  0.96910000  0.61020000  1.0 -0.1231687667
C  C27  1  0.03090000  0.31910000  0.38980000  1.0 -0.1231687667
C  C28  1  0.96910000  0.68090000  0.38980000  1.0 -0.1231687667
C  C29  1  0.67530000  0.03730000  0.27910000  1.0 0.0866936696
C  C30  1  0.32470000  0.96270000  0.27910000  1.0 0.0866936696
C  C31  1  0.03730000  0.67530000  0.72090000  1.0 0.0866936696
C  C32  1  0.96270000  0.32470000  0.72090000  1.0 0.0866936696
C  C33  1  0.32470000  0.96270000  0.72090000  1.0 0.0866936696
C  C34  1  0.67530000  0.03730000  0.72090000  1.0 0.0866936696
C  C35  1  0.96270000  0.32470000  0.27910000  1.0 0.0866936696
C  C36  1  0.03730000  0.67530000  0.27910000  1.0 0.0866936696
C  C37  1  0.72600000  0.99980000  0.24400000  1.0 -0.1630655737
C  C38  1  0.27400000  0.00020000  0.24400000  1.0 -0.1630655737
C  C39  1  0.99980000  0.72600000  0.75600000  1.0 -0.1630655737
C  C40  1  0.00020000  0.27400000  0.75600000  1.0 -0.1630655737
C  C41  1  0.27400000  0.00020000  0.75600000  1.0 -0.1630655737
C  C42  1  0.72600000  0.99980000  0.75600000  1.0 -0.1630655737
C  C43  1  0.00020000  0.27400000  0.24400000  1.0 -0.1630655737
C  C44  1  0.99980000  0.72600000  0.24400000  1.0 -0.1630655737
C  C45  1  0.75170000  0.02470000  0.18370000  1.0 -0.1108747885
C  C46  1  0.24830000  0.97530000  0.18370000  1.0 -0.1108747885
C  C47  1  0.02470000  0.75170000  0.81630000  1.0 -0.1108747885
C  C48  1  0.97530000  0.24830000  0.81630000  1.0 -0.1108747885
C  C49  1  0.24830000  0.97530000  0.81630000  1.0 -0.1108747885
C  C50  1  0.75170000  0.02470000  0.81630000  1.0 -0.1108747885
C  C51  1  0.97530000  0.24830000  0.18370000  1.0 -0.1108747885
C  C52  1  0.02470000  0.75170000  0.18370000  1.0 -0.1108747885
C  C53  1  0.72780000  0.08740000  0.15760000  1.0 -0.0229953725
C  C54  1  0.27220000  0.91260000  0.15760000  1.0 -0.0229953725
C  C55  1  0.08740000  0.72780000  0.84240000  1.0 -0.0229953725
C  C56  1  0.91260000  0.27220000  0.84240000  1.0 -0.0229953725
C  C57  1  0.27220000  0.91260000  0.84240000  1.0 -0.0229953725
C  C58  1  0.72780000  0.08740000  0.84240000  1.0 -0.0229953725
C  C59  1  0.91260000  0.27220000  0.15760000  1.0 -0.0229953725
C  C60  1  0.08740000  0.72780000  0.15760000  1.0 -0.0229953725
C  C61  1  0.67680000  0.12450000  0.19160000  1.0 -0.1108747885
C  C62  1  0.32320000  0.87550000  0.19160000  1.0 -0.1108747885
C  C63  1  0.12450000  0.67680000  0.80840000  1.0 -0.1108747885
C  C64  1  0.87550000  0.32320000  0.80840000  1.0 -0.1108747885
C  C65  1  0.32320000  0.87550000  0.80840000  1.0 -0.1108747885
C  C66  1  0.67680000  0.12450000  0.80840000  1.0 -0.1108747885
C  C67  1  0.87550000  0.32320000  0.19160000  1.0 -0.1108747885
C  C68  1  0.12450000  0.67680000  0.19160000  1.0 -0.1108747885
C  C69  1  0.65100000  0.09930000  0.25210000  1.0 -0.1630655737
C  C70  1  0.34900000  0.90070000  0.25210000  1.0 -0.1630655737
C  C71  1  0.09930000  0.65100000  0.74790000  1.0 -0.1630655737
C  C72  1  0.90070000  0.34900000  0.74790000  1.0 -0.1630655737
C  C73  1  0.34900000  0.90070000  0.74790000  1.0 -0.1630655737
C  C74  1  0.65100000  0.09930000  0.74790000  1.0 -0.1630655737
C  C75  1  0.90070000  0.34900000  0.25210000  1.0 -0.1630655737
C  C76  1  0.09930000  0.65100000  0.25210000  1.0 -0.1630655737
C  C77  1  0.75750000  0.11750000  0.09420000  1.0 0.5493502686
C  C78  1  0.24250000  0.88250000  0.09420000  1.0 0.5493502686
C  C79  1  0.11750000  0.75750000  0.90580000  1.0 0.5493502686
C  C80  1  0.88250000  0.24250000  0.90580000  1.0 0.5493502686
C  C81  1  0.24250000  0.88250000  0.90580000  1.0 0.5493502686
C  C82  1  0.75750000  0.11750000  0.90580000  1.0 0.5493502686
C  C83  1  0.88250000  0.24250000  0.09420000  1.0 0.5493502686
C  C84  1  0.11750000  0.75750000  0.09420000  1.0 0.5493502686
C  C85  1  0.00270000  0.05220000  0.95720000  1.0 -0.0337329374
C  C86  1  0.99730000  0.94780000  0.95720000  1.0 -0.0337329374
C  C87  1  0.05220000  0.00270000  0.04280000  1.0 -0.0337329374
C  C88  1  0.94780000  0.99730000  0.04280000  1.0 -0.0337329374
C  C89  1  0.99730000  0.94780000  0.04280000  1.0 -0.0337329374
C  C90  1  0.00270000  0.05220000  0.04280000  1.0 -0.0337329374
C  C91  1  0.94780000  0.99730000  0.95720000  1.0 -0.0337329374
C  C92  1  0.05220000  0.00270000  0.95720000  1.0 -0.0337329374
C  C93  1  0.41540000  0.85420000  0.00000000  1.0 -0.1010725839
C  C94  1  0.58460000  0.14580000  0.00000000  1.0 -0.1010725839
C  C95  1  0.85420000  0.41540000  0.00000000  1.0 -0.1010725839
C  C96  1  0.14580000  0.58460000  0.00000000  1.0 -0.1010725839
C  C97  1  0.52560000  0.91760000  0.87190000  1.0 -0.058540844
C  C98  1  0.47440000  0.08240000  0.87190000  1.0 -0.058540844
C  C99  1  0.91760000  0.52560000  0.12810000  1.0 -0.058540844
C  C100  1  0.08240000  0.47440000  0.12810000  1.0 -0.058540844
C  C101  1  0.47440000  0.08240000  0.12810000  1.0 -0.058540844
C  C102  1  0.52560000  0.91760000  0.12810000  1.0 -0.058540844
C  C103  1  0.08240000  0.47440000  0.87190000  1.0 -0.058540844
C  C104  1  0.91760000  0.52560000  0.87190000  1.0 -0.058540844
C  C105  1  0.51180000  0.85180000  0.84440000  1.0 -0.0337329374
C  C106  1  0.48820000  0.14820000  0.84440000  1.0 -0.0337329374
C  C107  1  0.85180000  0.51180000  0.15560000  1.0 -0.0337329374
C  C108  1  0.14820000  0.48820000  0.15560000  1.0 -0.0337329374
C  C109  1  0.48820000  0.14820000  0.15560000  1.0 -0.0337329374
C  C110  1  0.51180000  0.85180000  0.15560000  1.0 -0.0337329374
C  C111  1  0.14820000  0.48820000  0.84440000  1.0 -0.0337329374
C  C112  1  0.85180000  0.51180000  0.84440000  1.0 -0.0337329374
C  C113  1  0.46910000  0.81910000  0.88980000  1.0 -0.1231687667
C  C114  1  0.53090000  0.18090000  0.88980000  1.0 -0.1231687667
C  C115  1  0.81910000  0.46910000  0.11020000  1.0 -0.1231687667
C  C116  1  0.18090000  0.53090000  0.11020000  1.0 -0.1231687667
C  C117  1  0.53090000  0.18090000  0.11020000  1.0 -0.1231687667
C  C118  1  0.46910000  0.81910000  0.11020000  1.0 -0.1231687667
C  C119  1  0.18090000  0.53090000  0.88980000  1.0 -0.1231687667
C  C120  1  0.81910000  0.46910000  0.88980000  1.0 -0.1231687667
C  C121  1  0.53730000  0.82470000  0.77910000  1.0 0.0866936696
C  C122  1  0.46270000  0.17530000  0.77910000  1.0 0.0866936696
C  C123  1  0.82470000  0.53730000  0.22090000  1.0 0.0866936696
C  C124  1  0.17530000  0.46270000  0.22090000  1.0 0.0866936696
C  C125  1  0.46270000  0.17530000  0.22090000  1.0 0.0866936696
C  C126  1  0.53730000  0.82470000  0.22090000  1.0 0.0866936696
C  C127  1  0.17530000  0.46270000  0.77910000  1.0 0.0866936696
C  C128  1  0.82470000  0.53730000  0.77910000  1.0 0.0866936696
C  C129  1  0.49980000  0.77400000  0.74400000  1.0 -0.1630655737
C  C130  1  0.50020000  0.22600000  0.74400000  1.0 -0.1630655737
C  C131  1  0.77400000  0.49980000  0.25600000  1.0 -0.1630655737
C  C132  1  0.22600000  0.50020000  0.25600000  1.0 -0.1630655737
C  C133  1  0.50020000  0.22600000  0.25600000  1.0 -0.1630655737
C  C134  1  0.49980000  0.77400000  0.25600000  1.0 -0.1630655737
C  C135  1  0.22600000  0.50020000  0.74400000  1.0 -0.1630655737
C  C136  1  0.77400000  0.49980000  0.74400000  1.0 -0.1630655737
C  C137  1  0.52470000  0.74830000  0.68370000  1.0 -0.1108747885
C  C138  1  0.47530000  0.25170000  0.68370000  1.0 -0.1108747885
C  C139  1  0.74830000  0.52470000  0.31630000  1.0 -0.1108747885
C  C140  1  0.25170000  0.47530000  0.31630000  1.0 -0.1108747885
C  C141  1  0.47530000  0.25170000  0.31630000  1.0 -0.1108747885
C  C142  1  0.52470000  0.74830000  0.31630000  1.0 -0.1108747885
C  C143  1  0.25170000  0.47530000  0.68370000  1.0 -0.1108747885
C  C144  1  0.74830000  0.52470000  0.68370000  1.0 -0.1108747885
C  C145  1  0.58740000  0.77220000  0.65760000  1.0 -0.0229953725
C  C146  1  0.41260000  0.22780000  0.65760000  1.0 -0.0229953725
C  C147  1  0.77220000  0.58740000  0.34240000  1.0 -0.0229953725
C  C148  1  0.22780000  0.41260000  0.34240000  1.0 -0.0229953725
C  C149  1  0.41260000  0.22780000  0.34240000  1.0 -0.0229953725
C  C150  1  0.58740000  0.77220000  0.34240000  1.0 -0.0229953725
C  C151  1  0.22780000  0.41260000  0.65760000  1.0 -0.0229953725
C  C152  1  0.77220000  0.58740000  0.65760000  1.0 -0.0229953725
C  C153  1  0.62450000  0.82320000  0.69160000  1.0 -0.1108747885
C  C154  1  0.37550000  0.17680000  0.69160000  1.0 -0.1108747885
C  C155  1  0.82320000  0.62450000  0.30840000  1.0 -0.1108747885
C  C156  1  0.17680000  0.37550000  0.30840000  1.0 -0.1108747885
C  C157  1  0.37550000  0.17680000  0.30840000  1.0 -0.1108747885
C  C158  1  0.62450000  0.82320000  0.30840000  1.0 -0.1108747885
C  C159  1  0.17680000  0.37550000  0.69160000  1.0 -0.1108747885
C  C160  1  0.82320000  0.62450000  0.69160000  1.0 -0.1108747885
C  C161  1  0.59930000  0.84900000  0.75210000  1.0 -0.1630655737
C  C162  1  0.40070000  0.15100000  0.75210000  1.0 -0.1630655737
C  C163  1  0.84900000  0.59930000  0.24790000  1.0 -0.1630655737
C  C164  1  0.15100000  0.40070000  0.24790000  1.0 -0.1630655737
C  C165  1  0.40070000  0.15100000  0.24790000  1.0 -0.1630655737
C  C166  1  0.59930000  0.84900000  0.24790000  1.0 -0.1630655737
C  C167  1  0.15100000  0.40070000  0.75210000  1.0 -0.1630655737
C  C168  1  0.84900000  0.59930000  0.75210000  1.0 -0.1630655737
C  C169  1  0.61750000  0.74250000  0.59420000  1.0 0.5493502686
C  C170  1  0.38250000  0.25750000  0.59420000  1.0 0.5493502686
C  C171  1  0.74250000  0.61750000  0.40580000  1.0 0.5493502686
C  C172  1  0.25750000  0.38250000  0.40580000  1.0 0.5493502686
C  C173  1  0.38250000  0.25750000  0.40580000  1.0 0.5493502686
C  C174  1  0.61750000  0.74250000  0.40580000  1.0 0.5493502686
C  C175  1  0.25750000  0.38250000  0.59420000  1.0 0.5493502686
C  C176  1  0.74250000  0.61750000  0.59420000  1.0 0.5493502686
C  C177  1  0.55220000  0.49730000  0.45720000  1.0 -0.0337329374
C  C178  1  0.44780000  0.50270000  0.45720000  1.0 -0.0337329374
C  C179  1  0.49730000  0.55220000  0.54280000  1.0 -0.0337329374
C  C180  1  0.50270000  0.44780000  0.54280000  1.0 -0.0337329374
C  C181  1  0.44780000  0.50270000  0.54280000  1.0 -0.0337329374
C  C182  1  0.55220000  0.49730000  0.54280000  1.0 -0.0337329374
C  C183  1  0.50270000  0.44780000  0.45720000  1.0 -0.0337329374
C  C184  1  0.49730000  0.55220000  0.45720000  1.0 -0.0337329374
N  N1  1  0.63610000  0.95800000  0.44051000  1.0 0.1557864039
N  N2  1  0.36390000  0.04200000  0.44051000  1.0 0.1557864039
N  N3  1  0.95800000  0.63610000  0.55949000  1.0 0.1557864039
N  N4  1  0.04200000  0.36390000  0.55949000  1.0 0.1557864039
N  N5  1  0.36390000  0.04200000  0.55949000  1.0 0.1557864039
N  N6  1  0.63610000  0.95800000  0.55949000  1.0 0.1557864039
N  N7  1  0.04200000  0.36390000  0.44051000  1.0 0.1557864039
N  N8  1  0.95800000  0.63610000  0.44051000  1.0 0.1557864039
N  N9  1  0.57470000  0.99200000  0.42965000  1.0 -0.1944574943
N  N10  1  0.42530000  0.00800000  0.42965000  1.0 -0.1944574943
N  N11  1  0.99200000  0.57470000  0.57035000  1.0 -0.1944574943
N  N12  1  0.00800000  0.42530000  0.57035000  1.0 -0.1944574943
N  N13  1  0.42530000  0.00800000  0.57035000  1.0 -0.1944574943
N  N14  1  0.57470000  0.99200000  0.57035000  1.0 -0.1944574943
N  N15  1  0.00800000  0.42530000  0.42965000  1.0 -0.1944574943
N  N16  1  0.99200000  0.57470000  0.42965000  1.0 -0.1944574943
N  N17  1  0.94890000  0.05110000  0.00000000  1.0 -0.1231687667
N  N18  1  0.05110000  0.94890000  0.00000000  1.0 -0.1108747885
N  N19  1  0.45800000  0.86390000  0.94051000  1.0 0.1557864039
N  N20  1  0.54200000  0.13610000  0.94051000  1.0 0.1557864039
N  N21  1  0.86390000  0.45800000  0.05949000  1.0 0.1557864039
N  N22  1  0.13610000  0.54200000  0.05949000  1.0 0.1557864039
N  N23  1  0.54200000  0.13610000  0.05949000  1.0 0.1557864039
N  N24  1  0.45800000  0.86390000  0.05949000  1.0 0.1557864039
N  N25  1  0.13610000  0.54200000  0.94051000  1.0 0.1557864039
N  N26  1  0.86390000  0.45800000  0.94051000  1.0 0.1557864039
N  N27  1  0.49200000  0.92530000  0.92965000  1.0 -0.1944574943
N  N28  1  0.50800000  0.07470000  0.92965000  1.0 -0.1944574943
N  N29  1  0.92530000  0.49200000  0.07035000  1.0 -0.1944574943
N  N30  1  0.07470000  0.50800000  0.07035000  1.0 -0.1944574943
N  N31  1  0.50800000  0.07470000  0.07035000  1.0 -0.1944574943
N  N32  1  0.49200000  0.92530000  0.07035000  1.0 -0.1944574943
N  N33  1  0.07470000  0.50800000  0.92965000  1.0 -0.1944574943
N  N34  1  0.92530000  0.49200000  0.92965000  1.0 -0.1944574943
N  N35  1  0.55110000  0.55110000  0.50000000  1.0 -0.1231687667
N  N36  1  0.44890000  0.44890000  0.50000000  1.0 -0.1231687667
O  O1  1  0.81202000  0.08776000  0.07055000  1.0 -0.5247949293
O  O2  1  0.18798000  0.91224000  0.07055000  1.0 -0.5247949293
O  O3  1  0.08776000  0.81202000  0.92945000  1.0 -0.5247949293
O  O4  1  0.91224000  0.18798000  0.92945000  1.0 -0.5247949293
O  O5  1  0.18798000  0.91224000  0.92945000  1.0 -0.5247949293
O  O6  1  0.81202000  0.08776000  0.92945000  1.0 -0.533098859
O  O7  1  0.91224000  0.18798000  0.07055000  1.0 -0.5247949293
O  O8  1  0.08776000  0.81202000  0.07055000  1.0 -0.5247949293
O  O9  1  0.72846000  0.17092000  0.07040000  1.0 -0.533098859
O  O10  1  0.27154000  0.82908000  0.07040000  1.0 -0.533098859
O  O11  1  0.17092000  0.72846000  0.92960000  1.0 -0.533098859
O  O12  1  0.82908000  0.27154000  0.92960000  1.0 -0.533098859
O  O13  1  0.27154000  0.82908000  0.92960000  1.0 -0.533098859
O  O14  1  0.72846000  0.17092000  0.92960000  1.0 -0.533098859
O  O15  1  0.82908000  0.27154000  0.07040000  1.0 -0.533098859
O  O16  1  0.17092000  0.72846000  0.07040000  1.0 -0.533098859
O  O17  1  0.58776000  0.68798000  0.57055000  1.0 -0.5247949293
O  O18  1  0.41224000  0.31202000  0.57055000  1.0 -0.5247949293
O  O19  1  0.68798000  0.58776000  0.42945000  1.0 -0.5247949293
O  O20  1  0.31202000  0.41224000  0.42945000  1.0 -0.5247949293
O  O21  1  0.41224000  0.31202000  0.42945000  1.0 -0.5247949293
O  O22  1  0.58776000  0.68798000  0.42945000  1.0 -0.5247949293
O  O23  1  0.31202000  0.41224000  0.57055000  1.0 -0.5247949293
O  O24  1  0.68798000  0.58776000  0.57055000  1.0 -0.5247949293
O  O25  1  0.67092000  0.77154000  0.57040000  1.0 -0.533098859
O  O26  1  0.32908000  0.22846000  0.57040000  1.0 -0.533098859
O  O27  1  0.77154000  0.67092000  0.42960000  1.0 -0.533098859
O  O28  1  0.22846000  0.32908000  0.42960000  1.0 -0.533098859
O  O29  1  0.32908000  0.22846000  0.42960000  1.0 -0.533098859
O  O30  1  0.67092000  0.77154000  0.42960000  1.0 -0.533098859
O  O31  1  0.22846000  0.32908000  0.57040000  1.0 -0.533098859
O  O32  1  0.77154000  0.67092000  0.57040000  1.0 -0.533098859
