# DDEC6 charges by PACMAN v1.1 (https://github.com/mtap-research/PACMAN-charge/)
data_IMUGIJ_ASR_pacman
_symmetry_space_group_name_H-M   'P 1'
_cell_length_a   7.85280000
_cell_length_b   10.58850000
_cell_length_c   10.77990000
_cell_angle_alpha   113.57300000
_cell_angle_beta   95.32600000
_cell_angle_gamma   103.48800000
_symmetry_Int_Tables_number   1
_chemical_formula_structural   Zn3H12C28(NO7)2
_chemical_formula_sum   'Zn3 H12 C28 N2 O14'
_cell_volume   781.27503996
_cell_formula_units_Z   1
loop_
 _symmetry_equiv_pos_site_id
 _symmetry_equiv_pos_as_xyz
  1  'x, y, z'
loop_
 _atom_site_type_symbol
 _atom_site_label
 _atom_site_symmetry_multiplicity
 _atom_site_fract_x
 _atom_site_fract_y
 _atom_site_fract_z
 _atom_site_occupancy
 _atom_site_charge
Zn  Zn1  1  0.04436000  0.80568000  0.75128000  1.0 0.8367780562
Zn  Zn2  1  0.95564000  0.19432000  0.24872000  1.0 0.8367780562
Zn  Zn3  1  0.50000000  0.00000000  0.00000000  1.0 1.0379665013
H  H1  1  0.33560000  0.60780000  0.41280000  1.0 0.1638619121
H  H2  1  0.67820000  0.81520000  0.78080000  1.0 0.1196093674
H  H3  1  0.85700000  0.63770000  0.44430000  1.0 0.1467062126
H  H4  1  0.66350000  0.77050000  0.27140000  1.0 0.1382290836
H  H5  1  0.80250000  0.41770000  0.90800000  1.0 0.1196093674
H  H6  1  0.66370000  0.35890000  0.06560000  1.0 0.1467062126
H  H7  1  0.66440000  0.39220000  0.58720000  1.0 0.1638619121
H  H8  1  0.32180000  0.18480000  0.21920000  1.0 0.1196093674
H  H9  1  0.14300000  0.36230000  0.55570000  1.0 0.1467062126
H  H10  1  0.33650000  0.22950000  0.72860000  1.0 0.1382290836
H  H11  1  0.19750000  0.58230000  0.09200000  1.0 0.1196093674
H  H12  1  0.33630000  0.64110000  0.93440000  1.0 0.1467062126
C  C1  1  0.59110000  0.60780000  0.40600000  1.0 0.2001718994
C  C2  1  0.45040000  0.63910000  0.46620000  1.0 -0.1564091255
C  C3  1  0.48400000  0.71920000  0.60940000  1.0 -0.0398230512
C  C4  1  0.65660000  0.76370000  0.68510000  1.0 0.0529033973
C  C5  1  0.76230000  0.65780000  0.48660000  1.0 -0.027244331
C  C6  1  0.33540000  0.75580000  0.68080000  1.0 0.5804063793
C  C7  1  0.65170000  0.55930000  0.18240000  1.0 0.250419807
C  C8  1  0.69110000  0.70020000  0.19780000  1.0 -0.2490628545
C  C9  1  0.77290000  0.73490000  0.10100000  1.0 0.0128754716
C  C10  1  0.81800000  0.62970000  0.99270000  1.0 -0.0629977692
C  C11  1  0.77480000  0.48870000  0.98080000  1.0 -0.0811233406
C  C12  1  0.69190000  0.45290000  0.07470000  1.0 -0.1901955788
C  C13  1  0.78780000  0.88480000  0.11310000  1.0 0.621125352
C  C14  1  0.91080000  0.66070000  0.88840000  1.0 0.5439680334
C  C15  1  0.40890000  0.39220000  0.59400000  1.0 0.2001718994
C  C16  1  0.54960000  0.36090000  0.53380000  1.0 -0.1564091255
C  C17  1  0.51600000  0.28080000  0.39060000  1.0 -0.0398230512
C  C18  1  0.34340000  0.23630000  0.31490000  1.0 0.0529033973
C  C19  1  0.23770000  0.34220000  0.51340000  1.0 -0.027244331
C  C20  1  0.66460000  0.24420000  0.31920000  1.0 0.5804063793
C  C21  1  0.34830000  0.44070000  0.81760000  1.0 0.250419807
C  C22  1  0.30890000  0.29980000  0.80220000  1.0 -0.2490628545
C  C23  1  0.22710000  0.26510000  0.89900000  1.0 0.0128754716
C  C24  1  0.18200000  0.37030000  0.00730000  1.0 -0.0629977692
C  C25  1  0.22520000  0.51130000  0.01920000  1.0 -0.0811233406
C  C26  1  0.30810000  0.54710000  0.92530000  1.0 -0.1901955788
C  C27  1  0.21220000  0.11520000  0.88690000  1.0 0.621125352
C  C28  1  0.08920000  0.33930000  0.11160000  1.0 0.5439680334
N  N1  1  0.79410000  0.73490000  0.62480000  1.0 -0.1971641292
N  N2  1  0.20590000  0.26510000  0.37520000  1.0 -0.1971641292
O  O1  1  0.55720000  0.51540000  0.26730000  1.0 -0.1971641292
O  O2  1  0.18140000  0.71600000  0.60770000  1.0 -0.5000429933
O  O3  1  0.36440000  0.82290000  0.80980000  1.0 -0.5701226328
O  O4  1  0.90070000  0.98820000  0.21570000  1.0 -0.5334671025
O  O5  1  0.68130000  0.89390000  0.02670000  1.0 -0.5701226328
O  O6  1  0.98870000  0.79560000  0.92210000  1.0 -0.538707066
O  O7  1  0.91250000  0.56340000  0.77720000  1.0 -0.538707066
O  O8  1  0.44280000  0.48460000  0.73270000  1.0 -0.1971641292
O  O9  1  0.81860000  0.28400000  0.39230000  1.0 -0.5000429933
O  O10  1  0.63560000  0.17710000  0.19020000  1.0 -0.5701226328
O  O11  1  0.09930000  0.01180000  0.78430000  1.0 -0.5334671025
O  O12  1  0.31870000  0.10610000  0.97330000  1.0 -0.5701226328
O  O13  1  0.01130000  0.20440000  0.07790000  1.0 -0.538707066
O  O14  1  0.08750000  0.43660000  0.22280000  1.0 -0.538707066
