# DDEC6 charges by PACMAN v1.1 (https://github.com/mtap-research/PACMAN-charge/)
data_IMUTUG_ASR_pacman
_symmetry_space_group_name_H-M   'P 1'
_cell_length_a   22.26900000
_cell_length_b   22.26900000
_cell_length_c   22.26900000
_cell_angle_alpha   109.47100000
_cell_angle_beta   109.47100000
_cell_angle_gamma   109.47100000
_symmetry_Int_Tables_number   1
_chemical_formula_structural   In15H24(C36O25)2
_chemical_formula_sum   'In30 H48 C144 O100'
_cell_volume   8501.26986488
_cell_formula_units_Z   2
loop_
 _symmetry_equiv_pos_site_id
 _symmetry_equiv_pos_as_xyz
  1  'x, y, z'
loop_
 _atom_site_type_symbol
 _atom_site_label
 _atom_site_symmetry_multiplicity
 _atom_site_fract_x
 _atom_site_fract_y
 _atom_site_fract_z
 _atom_site_occupancy
 _atom_site_charge
In  In1  1  0.69437000  0.90283000  0.00000000  1.0 1.5008159913
In  In2  1  0.90283000  0.69437000  0.00000000  1.0 1.5008159913
In  In3  1  0.09717000  0.09717000  0.79154000  1.0 1.5008159913
In  In4  1  0.30563000  0.30563000  0.20846000  1.0 1.5008159913
In  In5  1  0.00000000  0.69437000  0.90283000  1.0 1.5008159913
In  In6  1  0.00000000  0.90283000  0.69437000  1.0 1.5008159913
In  In7  1  0.79154000  0.09717000  0.09717000  1.0 1.5008159913
In  In8  1  0.20846000  0.30563000  0.30563000  1.0 1.5008159913
In  In9  1  0.90283000  0.00000000  0.69437000  1.0 1.5008159913
In  In10  1  0.69437000  0.00000000  0.90283000  1.0 1.5008159913
In  In11  1  0.09717000  0.79154000  0.09717000  1.0 1.5008159913
In  In12  1  0.30563000  0.20846000  0.30563000  1.0 1.5008159913
In  In13  1  0.50000000  0.75000000  0.25000000  1.0 0.0379549426
In  In14  1  0.50000000  0.25000000  0.75000000  1.0 0.0379549426
In  In15  1  0.25000000  0.50000000  0.75000000  1.0 0.0379549426
In  In16  1  0.75000000  0.50000000  0.25000000  1.0 0.0379549426
In  In17  1  0.75000000  0.25000000  0.50000000  1.0 0.0379549426
In  In18  1  0.25000000  0.75000000  0.50000000  1.0 0.0379549426
In  In19  1  0.50000000  0.79110000  0.29110000  1.0 0.4116479799
In  In20  1  0.50000000  0.20890000  0.70890000  1.0 0.4116479799
In  In21  1  0.29110000  0.50000000  0.79110000  1.0 0.4116479799
In  In22  1  0.70890000  0.50000000  0.20890000  1.0 0.4116479799
In  In23  1  0.79110000  0.29110000  0.50000000  1.0 0.4116479799
In  In24  1  0.20890000  0.70890000  0.50000000  1.0 0.4116479799
In  In25  1  0.79110000  0.50000000  0.29110000  1.0 0.4116479799
In  In26  1  0.20890000  0.50000000  0.70890000  1.0 0.4116479799
In  In27  1  0.50000000  0.29110000  0.79110000  1.0 0.4116479799
In  In28  1  0.50000000  0.70890000  0.20890000  1.0 0.4116479799
In  In29  1  0.29110000  0.79110000  0.50000000  1.0 0.4116479799
In  In30  1  0.70890000  0.20890000  0.50000000  1.0 0.4116479799
H  H1  1  0.00000000  0.11260000  0.21260000  1.0 0.1310058293
H  H2  1  0.90000000  0.78740000  0.78740000  1.0 0.1310058293
H  H3  1  0.10000000  0.88740000  0.88740000  1.0 0.1310058293
H  H4  1  0.00000000  0.21260000  0.11260000  1.0 0.1310058293
H  H5  1  0.21260000  0.00000000  0.11260000  1.0 0.1310058293
H  H6  1  0.78740000  0.90000000  0.78740000  1.0 0.1310058293
H  H7  1  0.88740000  0.10000000  0.88740000  1.0 0.1310058293
H  H8  1  0.11260000  0.00000000  0.21260000  1.0 0.1310058293
H  H9  1  0.11260000  0.21260000  0.00000000  1.0 0.1310058293
H  H10  1  0.78740000  0.78740000  0.90000000  1.0 0.1310058293
H  H11  1  0.88740000  0.88740000  0.10000000  1.0 0.1310058293
H  H12  1  0.21260000  0.11260000  0.00000000  1.0 0.1310058293
H  H13  1  0.60730000  0.00000000  0.33350000  1.0 0.1221649224
H  H14  1  0.66650000  0.27380000  0.66650000  1.0 0.1221649224
H  H15  1  0.33350000  0.00000000  0.60730000  1.0 0.1221649224
H  H16  1  0.39270000  0.72620000  0.39270000  1.0 0.1221649224
H  H17  1  0.33350000  0.60730000  0.00000000  1.0 0.1221649224
H  H18  1  0.66650000  0.66650000  0.27380000  1.0 0.1221649224
H  H19  1  0.60730000  0.33350000  0.00000000  1.0 0.1221649224
H  H20  1  0.39270000  0.39270000  0.72620000  1.0 0.1221649224
H  H21  1  0.00000000  0.33350000  0.60730000  1.0 0.1221649224
H  H22  1  0.27380000  0.66650000  0.66650000  1.0 0.1221649224
H  H23  1  0.00000000  0.60730000  0.33350000  1.0 0.1221649224
H  H24  1  0.72620000  0.39270000  0.39270000  1.0 0.1221649224
H  H25  1  0.60560000  0.88570000  0.14090000  1.0 0.1310058293
H  H26  1  0.74480000  0.46470000  0.85910000  1.0 0.1310058293
H  H27  1  0.25520000  0.11430000  0.71990000  1.0 0.1310058293
H  H28  1  0.39440000  0.53530000  0.28010000  1.0 0.1310058293
H  H29  1  0.14090000  0.60560000  0.88570000  1.0 0.1310058293
H  H30  1  0.85910000  0.74480000  0.46470000  1.0 0.1310058293
H  H31  1  0.71990000  0.25520000  0.11430000  1.0 0.1310058293
H  H32  1  0.28010000  0.39440000  0.53530000  1.0 0.1310058293
H  H33  1  0.88570000  0.14090000  0.60560000  1.0 0.1310058293
H  H34  1  0.46470000  0.85910000  0.74480000  1.0 0.1310058293
H  H35  1  0.11430000  0.71990000  0.25520000  1.0 0.1310058293
H  H36  1  0.53530000  0.28010000  0.39440000  1.0 0.1310058293
H  H37  1  0.88570000  0.60560000  0.14090000  1.0 0.1310058293
H  H38  1  0.46470000  0.74480000  0.85910000  1.0 0.1310058293
H  H39  1  0.11430000  0.25520000  0.71990000  1.0 0.1310058293
H  H40  1  0.53530000  0.39440000  0.28010000  1.0 0.1310058293
H  H41  1  0.60560000  0.14090000  0.88570000  1.0 0.1310058293
H  H42  1  0.74480000  0.85910000  0.46470000  1.0 0.1310058293
H  H43  1  0.25520000  0.71990000  0.11430000  1.0 0.1310058293
H  H44  1  0.39440000  0.28010000  0.53530000  1.0 0.1310058293
H  H45  1  0.14090000  0.88570000  0.60560000  1.0 0.1310058293
H  H46  1  0.85910000  0.46470000  0.74480000  1.0 0.1310058293
H  H47  1  0.71990000  0.11430000  0.25520000  1.0 0.1310058293
H  H48  1  0.28010000  0.53530000  0.39440000  1.0 0.1310058293
C  C1  1  0.00000000  0.06590000  0.19330000  1.0 -0.088911109
C  C2  1  0.87260000  0.80670000  0.80670000  1.0 -0.088911109
C  C3  1  0.12740000  0.93410000  0.93410000  1.0 -0.088911109
C  C4  1  0.00000000  0.19330000  0.06590000  1.0 -0.088911109
C  C5  1  0.19330000  0.00000000  0.06590000  1.0 -0.088911109
C  C6  1  0.80670000  0.87260000  0.80670000  1.0 -0.088911109
C  C7  1  0.93410000  0.12740000  0.93410000  1.0 -0.088911109
C  C8  1  0.06590000  0.00000000  0.19330000  1.0 -0.088911109
C  C9  1  0.06590000  0.19330000  0.00000000  1.0 -0.088911109
C  C10  1  0.80670000  0.80670000  0.87260000  1.0 -0.088911109
C  C11  1  0.93410000  0.93410000  0.12740000  1.0 -0.088911109
C  C12  1  0.19330000  0.06590000  0.00000000  1.0 -0.088911109
C  C13  1  0.93560000  0.00000000  0.14960000  1.0 -0.0181220718
C  C14  1  0.85040000  0.78600000  0.85040000  1.0 -0.0181220718
C  C15  1  0.14960000  0.00000000  0.93560000  1.0 -0.0181220718
C  C16  1  0.06440000  0.21400000  0.06440000  1.0 -0.0181220718
C  C17  1  0.14960000  0.93560000  0.00000000  1.0 -0.0181220718
C  C18  1  0.85040000  0.85040000  0.78600000  1.0 -0.0181220718
C  C19  1  0.93560000  0.14960000  0.00000000  1.0 -0.0181220718
C  C20  1  0.06440000  0.06440000  0.21400000  1.0 -0.0181220718
C  C21  1  0.00000000  0.14960000  0.93560000  1.0 -0.0181220718
C  C22  1  0.78600000  0.85040000  0.85040000  1.0 -0.0181220718
C  C23  1  0.00000000  0.93560000  0.14960000  1.0 -0.0181220718
C  C24  1  0.21400000  0.06440000  0.06440000  1.0 -0.0181220718
C  C25  1  0.69140000  0.00000000  0.13840000  1.0 0.6206287778
C  C26  1  0.86160000  0.55300000  0.86160000  1.0 0.6206287778
C  C27  1  0.13840000  0.00000000  0.69140000  1.0 0.6206287778
C  C28  1  0.30860000  0.44700000  0.30860000  1.0 0.6206287778
C  C29  1  0.13840000  0.69140000  0.00000000  1.0 0.6206287778
C  C30  1  0.86160000  0.86160000  0.55300000  1.0 0.6206287778
C  C31  1  0.69140000  0.13840000  0.00000000  1.0 0.6206287778
C  C32  1  0.30860000  0.30860000  0.44700000  1.0 0.6206287778
C  C33  1  0.00000000  0.13840000  0.69140000  1.0 0.6206287778
C  C34  1  0.55300000  0.86160000  0.86160000  1.0 0.6206287778
C  C35  1  0.00000000  0.69140000  0.13840000  1.0 0.6206287778
C  C36  1  0.44700000  0.30860000  0.30860000  1.0 0.6206287778
C  C37  1  0.86120000  0.00000000  0.12300000  1.0 0.6206287778
C  C38  1  0.87700000  0.73820000  0.87700000  1.0 0.6206287778
C  C39  1  0.12300000  0.00000000  0.86120000  1.0 0.6206287778
C  C40  1  0.13880000  0.26180000  0.13880000  1.0 0.6206287778
C  C41  1  0.12300000  0.86120000  0.00000000  1.0 0.6206287778
C  C42  1  0.87700000  0.87700000  0.73820000  1.0 0.6206287778
C  C43  1  0.86120000  0.12300000  0.00000000  1.0 0.6206287778
C  C44  1  0.13880000  0.13880000  0.26180000  1.0 0.6206287778
C  C45  1  0.00000000  0.12300000  0.86120000  1.0 0.6206287778
C  C46  1  0.73820000  0.87700000  0.87700000  1.0 0.6206287778
C  C47  1  0.00000000  0.86120000  0.12300000  1.0 0.6206287778
C  C48  1  0.26180000  0.13880000  0.13880000  1.0 0.6206287778
C  C49  1  0.62340000  0.00000000  0.29840000  1.0 -0.088911109
C  C50  1  0.70160000  0.32500000  0.70160000  1.0 -0.088911109
C  C51  1  0.29840000  0.00000000  0.62340000  1.0 -0.088911109
C  C52  1  0.37660000  0.67500000  0.37660000  1.0 -0.088911109
C  C53  1  0.29840000  0.62340000  0.00000000  1.0 -0.088911109
C  C54  1  0.70160000  0.70160000  0.32500000  1.0 -0.088911109
C  C55  1  0.62340000  0.29840000  0.00000000  1.0 -0.088911109
C  C56  1  0.37660000  0.37660000  0.67500000  1.0 -0.088911109
C  C57  1  0.00000000  0.29840000  0.62340000  1.0 -0.088911109
C  C58  1  0.32500000  0.70160000  0.70160000  1.0 -0.088911109
C  C59  1  0.00000000  0.62340000  0.29840000  1.0 -0.088911109
C  C60  1  0.67500000  0.37660000  0.37660000  1.0 -0.088911109
C  C61  1  0.55970000  0.86840000  0.23610000  1.0 0.4116479799
C  C62  1  0.63230000  0.32360000  0.76390000  1.0 0.4116479799
C  C63  1  0.36770000  0.13160000  0.69130000  1.0 0.4116479799
C  C64  1  0.44030000  0.67640000  0.30870000  1.0 0.4116479799
C  C65  1  0.23610000  0.55970000  0.86840000  1.0 0.4116479799
C  C66  1  0.76390000  0.63230000  0.32360000  1.0 0.4116479799
C  C67  1  0.69130000  0.36770000  0.13160000  1.0 0.4116479799
C  C68  1  0.30870000  0.44030000  0.67640000  1.0 0.4116479799
C  C69  1  0.86840000  0.23610000  0.55970000  1.0 0.4116479799
C  C70  1  0.32360000  0.76390000  0.63230000  1.0 0.4116479799
C  C71  1  0.13160000  0.69130000  0.36770000  1.0 0.4116479799
C  C72  1  0.67640000  0.30870000  0.44030000  1.0 0.4116479799
C  C73  1  0.86840000  0.55970000  0.23610000  1.0 0.4116479799
C  C74  1  0.32360000  0.63230000  0.76390000  1.0 0.4116479799
C  C75  1  0.13160000  0.36770000  0.69130000  1.0 0.4116479799
C  C76  1  0.67640000  0.44030000  0.30870000  1.0 0.4116479799
C  C77  1  0.55970000  0.23610000  0.86840000  1.0 0.4116479799
C  C78  1  0.63230000  0.76390000  0.32360000  1.0 0.4116479799
C  C79  1  0.36770000  0.69130000  0.13160000  1.0 0.4116479799
C  C80  1  0.44030000  0.30870000  0.67640000  1.0 0.4116479799
C  C81  1  0.23610000  0.86840000  0.55970000  1.0 0.4116479799
C  C82  1  0.76390000  0.32360000  0.63230000  1.0 0.4116479799
C  C83  1  0.69130000  0.13160000  0.36770000  1.0 0.4116479799
C  C84  1  0.30870000  0.67640000  0.44030000  1.0 0.4116479799
C  C85  1  0.62060000  0.92940000  0.18120000  1.0 -0.088911109
C  C86  1  0.74820000  0.43940000  0.81880000  1.0 -0.088911109
C  C87  1  0.25180000  0.07060000  0.69120000  1.0 -0.088911109
C  C88  1  0.37940000  0.56060000  0.30880000  1.0 -0.088911109
C  C89  1  0.18120000  0.62060000  0.92940000  1.0 -0.088911109
C  C90  1  0.81880000  0.74820000  0.43940000  1.0 -0.088911109
C  C91  1  0.69120000  0.25180000  0.07060000  1.0 -0.088911109
C  C92  1  0.30880000  0.37940000  0.56060000  1.0 -0.088911109
C  C93  1  0.92940000  0.18120000  0.62060000  1.0 -0.088911109
C  C94  1  0.43940000  0.81880000  0.74820000  1.0 -0.088911109
C  C95  1  0.07060000  0.69120000  0.25180000  1.0 -0.088911109
C  C96  1  0.56060000  0.30880000  0.37940000  1.0 -0.088911109
C  C97  1  0.92940000  0.62060000  0.18120000  1.0 -0.088911109
C  C98  1  0.43940000  0.74820000  0.81880000  1.0 -0.088911109
C  C99  1  0.07060000  0.25180000  0.69120000  1.0 -0.088911109
C  C100  1  0.56060000  0.37940000  0.30880000  1.0 -0.088911109
C  C101  1  0.62060000  0.18120000  0.92940000  1.0 -0.088911109
C  C102  1  0.74820000  0.81880000  0.43940000  1.0 -0.088911109
C  C103  1  0.25180000  0.69120000  0.07060000  1.0 -0.088911109
C  C104  1  0.37940000  0.30880000  0.56060000  1.0 -0.088911109
C  C105  1  0.18120000  0.92940000  0.62060000  1.0 -0.088911109
C  C106  1  0.81880000  0.43940000  0.74820000  1.0 -0.088911109
C  C107  1  0.69120000  0.07060000  0.25180000  1.0 -0.088911109
C  C108  1  0.30880000  0.56060000  0.37940000  1.0 -0.088911109
C  C109  1  0.60100000  0.93360000  0.23960000  1.0 -0.05347962
C  C110  1  0.69400000  0.36140000  0.76040000  1.0 -0.05347962
C  C111  1  0.30600000  0.06640000  0.66740000  1.0 -0.05347962
C  C112  1  0.39900000  0.63860000  0.33260000  1.0 -0.05347962
C  C113  1  0.23960000  0.60100000  0.93360000  1.0 -0.05347962
C  C114  1  0.76040000  0.69400000  0.36140000  1.0 -0.05347962
C  C115  1  0.66740000  0.30600000  0.06640000  1.0 -0.05347962
C  C116  1  0.33260000  0.39900000  0.63860000  1.0 -0.05347962
C  C117  1  0.93360000  0.23960000  0.60100000  1.0 -0.05347962
C  C118  1  0.36140000  0.76040000  0.69400000  1.0 -0.05347962
C  C119  1  0.06640000  0.66740000  0.30600000  1.0 -0.05347962
C  C120  1  0.63860000  0.33260000  0.39900000  1.0 -0.05347962
C  C121  1  0.93360000  0.60100000  0.23960000  1.0 -0.05347962
C  C122  1  0.36140000  0.69400000  0.76040000  1.0 -0.05347962
C  C123  1  0.06640000  0.30600000  0.66740000  1.0 -0.05347962
C  C124  1  0.63860000  0.39900000  0.33260000  1.0 -0.05347962
C  C125  1  0.60100000  0.23960000  0.93360000  1.0 -0.05347962
C  C126  1  0.69400000  0.76040000  0.36140000  1.0 -0.05347962
C  C127  1  0.30600000  0.66740000  0.06640000  1.0 -0.05347962
C  C128  1  0.39900000  0.33260000  0.63860000  1.0 -0.05347962
C  C129  1  0.23960000  0.93360000  0.60100000  1.0 -0.05347962
C  C130  1  0.76040000  0.36140000  0.69400000  1.0 -0.05347962
C  C131  1  0.66740000  0.06640000  0.30600000  1.0 -0.05347962
C  C132  1  0.33260000  0.63860000  0.39900000  1.0 -0.05347962
C  C133  1  0.66470000  0.00000000  0.19470000  1.0 -0.031094272
C  C134  1  0.80530000  0.47000000  0.80530000  1.0 -0.031094272
C  C135  1  0.19470000  0.00000000  0.66470000  1.0 -0.031094272
C  C136  1  0.33530000  0.53000000  0.33530000  1.0 -0.031094272
C  C137  1  0.19470000  0.66470000  0.00000000  1.0 -0.031094272
C  C138  1  0.80530000  0.80530000  0.47000000  1.0 -0.031094272
C  C139  1  0.66470000  0.19470000  0.00000000  1.0 -0.031094272
C  C140  1  0.33530000  0.33530000  0.53000000  1.0 -0.031094272
C  C141  1  0.00000000  0.19470000  0.66470000  1.0 -0.031094272
C  C142  1  0.47000000  0.80530000  0.80530000  1.0 -0.031094272
C  C143  1  0.00000000  0.66470000  0.19470000  1.0 -0.031094272
C  C144  1  0.53000000  0.33530000  0.33530000  1.0 -0.031094272
O  O1  1  0.73140000  0.00000000  0.00000000  1.0 -1.0858450992
O  O2  1  0.00000000  0.73140000  0.00000000  1.0 -1.0858450992
O  O3  1  0.00000000  0.00000000  0.73140000  1.0 -1.0858450992
O  O4  1  0.26860000  0.26860000  0.26860000  1.0 -1.0858450992
O  O5  1  0.54650000  0.81060000  0.19150000  1.0 -0.3465965105
O  O6  1  0.61910000  0.35500000  0.80850000  1.0 -0.3465965105
O  O7  1  0.38090000  0.18940000  0.73590000  1.0 -0.3465965105
O  O8  1  0.45350000  0.64500000  0.26410000  1.0 -0.3465965105
O  O9  1  0.19150000  0.54650000  0.81060000  1.0 -0.3465965105
O  O10  1  0.80850000  0.61910000  0.35500000  1.0 -0.3465965105
O  O11  1  0.73590000  0.38090000  0.18940000  1.0 -0.3465965105
O  O12  1  0.26410000  0.45350000  0.64500000  1.0 -0.3465965105
O  O13  1  0.81060000  0.19150000  0.54650000  1.0 -0.3465965105
O  O14  1  0.35500000  0.80850000  0.61910000  1.0 -0.3465965105
O  O15  1  0.18940000  0.73590000  0.38090000  1.0 -0.3465965105
O  O16  1  0.64500000  0.26410000  0.45350000  1.0 -0.3465965105
O  O17  1  0.81060000  0.54650000  0.19150000  1.0 -0.3442505164
O  O18  1  0.35500000  0.61910000  0.80850000  1.0 -0.3465965105
O  O19  1  0.18940000  0.38090000  0.73590000  1.0 -0.3465965105
O  O20  1  0.64500000  0.45350000  0.26410000  1.0 -0.3465965105
O  O21  1  0.54650000  0.19150000  0.81060000  1.0 -0.3465965105
O  O22  1  0.61910000  0.80850000  0.35500000  1.0 -0.3442505164
O  O23  1  0.38090000  0.73590000  0.18940000  1.0 -0.3442505164
O  O24  1  0.45350000  0.26410000  0.64500000  1.0 -0.3465965105
O  O25  1  0.19150000  0.81060000  0.54650000  1.0 -0.3465965105
O  O26  1  0.80850000  0.35500000  0.61910000  1.0 -0.3465965105
O  O27  1  0.73590000  0.18940000  0.38090000  1.0 -0.3442505164
O  O28  1  0.26410000  0.64500000  0.45350000  1.0 -0.3465965105
O  O29  1  0.67020000  0.94020000  0.08800000  1.0 -0.5414315003
O  O30  1  0.85220000  0.58220000  0.91200000  1.0 -0.5414315003
O  O31  1  0.14780000  0.05980000  0.73000000  1.0 -0.5414315003
O  O32  1  0.32980000  0.41780000  0.27000000  1.0 -0.5414315003
O  O33  1  0.08800000  0.67020000  0.94020000  1.0 -0.5414315003
O  O34  1  0.91200000  0.85220000  0.58220000  1.0 -0.5414315003
O  O35  1  0.73000000  0.14780000  0.05980000  1.0 -0.5414315003
O  O36  1  0.27000000  0.32980000  0.41780000  1.0 -0.5414315003
O  O37  1  0.94020000  0.08800000  0.67020000  1.0 -0.5414315003
O  O38  1  0.58220000  0.91200000  0.85220000  1.0 -0.5414315003
O  O39  1  0.05980000  0.73000000  0.14780000  1.0 -0.5414315003
O  O40  1  0.41780000  0.27000000  0.32980000  1.0 -0.5414315003
O  O41  1  0.94020000  0.67020000  0.08800000  1.0 -0.5414315003
O  O42  1  0.58220000  0.85220000  0.91200000  1.0 -0.5414315003
O  O43  1  0.05980000  0.14780000  0.73000000  1.0 -0.5414315003
O  O44  1  0.41780000  0.32980000  0.27000000  1.0 -0.5414315003
O  O45  1  0.67020000  0.08800000  0.94020000  1.0 -0.5414315003
O  O46  1  0.85220000  0.91200000  0.58220000  1.0 -0.5414315003
O  O47  1  0.14780000  0.73000000  0.05980000  1.0 -0.5414315003
O  O48  1  0.32980000  0.27000000  0.41780000  1.0 -0.5414315003
O  O49  1  0.08800000  0.94020000  0.67020000  1.0 -0.5414315003
O  O50  1  0.91200000  0.58220000  0.85220000  1.0 -0.5414315003
O  O51  1  0.73000000  0.05980000  0.14780000  1.0 -0.5414315003
O  O52  1  0.27000000  0.41780000  0.32980000  1.0 -0.5414315003
O  O53  1  0.80360000  0.93790000  0.07930000  1.0 -0.577339186
O  O54  1  0.85860000  0.72430000  0.92070000  1.0 -0.577339186
O  O55  1  0.14140000  0.06210000  0.86570000  1.0 -0.577339186
O  O56  1  0.19640000  0.27570000  0.13430000  1.0 -0.577339186
O  O57  1  0.07930000  0.80360000  0.93790000  1.0 -0.577339186
O  O58  1  0.92070000  0.85860000  0.72430000  1.0 -0.577339186
O  O59  1  0.86570000  0.14140000  0.06210000  1.0 -0.577339186
O  O60  1  0.13430000  0.19640000  0.27570000  1.0 -0.577339186
O  O61  1  0.93790000  0.07930000  0.80360000  1.0 -0.577339186
O  O62  1  0.72430000  0.92070000  0.85860000  1.0 -0.577339186
O  O63  1  0.06210000  0.86570000  0.14140000  1.0 -0.577339186
O  O64  1  0.27570000  0.13430000  0.19640000  1.0 -0.577339186
O  O65  1  0.93790000  0.80360000  0.07930000  1.0 -0.577339186
O  O66  1  0.72430000  0.85860000  0.92070000  1.0 -0.577339186
O  O67  1  0.06210000  0.14140000  0.86570000  1.0 -0.577339186
O  O68  1  0.27570000  0.19640000  0.13430000  1.0 -0.577339186
O  O69  1  0.80360000  0.07930000  0.93790000  1.0 -0.577339186
O  O70  1  0.85860000  0.92070000  0.72430000  1.0 -0.577339186
O  O71  1  0.14140000  0.86570000  0.06210000  1.0 -0.577339186
O  O72  1  0.19640000  0.13430000  0.27570000  1.0 -0.577339186
O  O73  1  0.07930000  0.93790000  0.80360000  1.0 -0.577339186
O  O74  1  0.92070000  0.72430000  0.85860000  1.0 -0.577339186
O  O75  1  0.86570000  0.06210000  0.14140000  1.0 -0.577339186
O  O76  1  0.13430000  0.27570000  0.19640000  1.0 -0.577339186
O  O77  1  0.53690000  0.86610000  0.27960000  1.0 -0.3551546497
O  O78  1  0.58650000  0.25730000  0.72040000  1.0 -0.3551546497
O  O79  1  0.41350000  0.13390000  0.67080000  1.0 -0.3551546497
O  O80  1  0.46310000  0.74270000  0.32920000  1.0 -0.3551546497
O  O81  1  0.27960000  0.53690000  0.86610000  1.0 -0.3551546497
O  O82  1  0.72040000  0.58650000  0.25730000  1.0 -0.3551546497
O  O83  1  0.67080000  0.41350000  0.13390000  1.0 -0.3551546497
O  O84  1  0.32920000  0.46310000  0.74270000  1.0 -0.3551546497
O  O85  1  0.86610000  0.27960000  0.53690000  1.0 -0.3551546497
O  O86  1  0.25730000  0.72040000  0.58650000  1.0 -0.3551546497
O  O87  1  0.13390000  0.67080000  0.41350000  1.0 -0.3465965105
O  O88  1  0.74270000  0.32920000  0.46310000  1.0 -0.3551546497
O  O89  1  0.86610000  0.53690000  0.27960000  1.0 -0.3465965105
O  O90  1  0.25730000  0.58650000  0.72040000  1.0 -0.3551546497
O  O91  1  0.13390000  0.41350000  0.67080000  1.0 -0.3551546497
O  O92  1  0.74270000  0.46310000  0.32920000  1.0 -0.3551546497
O  O93  1  0.53690000  0.27960000  0.86610000  1.0 -0.3551546497
O  O94  1  0.58650000  0.72040000  0.25730000  1.0 -0.3465965105
O  O95  1  0.41350000  0.67080000  0.13390000  1.0 -0.3465965105
O  O96  1  0.46310000  0.32920000  0.74270000  1.0 -0.3551546497
O  O97  1  0.27960000  0.86610000  0.53690000  1.0 -0.3551546497
O  O98  1  0.72040000  0.25730000  0.58650000  1.0 -0.3551546497
O  O99  1  0.67080000  0.13390000  0.41350000  1.0 -0.3551546497
O  O100  1  0.32920000  0.74270000  0.46310000  1.0 -0.3551546497
