# DDEC6 charges by PACMAN v1.1 (https://github.com/mtap-research/PACMAN-charge/)
data_IMUVAO_FSR_pacman
_symmetry_space_group_name_H-M   'P 1'
_cell_length_a   22.32850000
_cell_length_b   22.32850000
_cell_length_c   22.32850000
_cell_angle_alpha   111.34800000
_cell_angle_beta   111.34800000
_cell_angle_gamma   105.77900000
_symmetry_Int_Tables_number   1
_chemical_formula_structural   In9H24(C36O29)2
_chemical_formula_sum   'In18 H48 C144 O116'
_cell_volume   8543.11896079
_cell_formula_units_Z   2
loop_
 _symmetry_equiv_pos_site_id
 _symmetry_equiv_pos_as_xyz
  1  'x, y, z'
loop_
 _atom_site_type_symbol
 _atom_site_label
 _atom_site_symmetry_multiplicity
 _atom_site_fract_x
 _atom_site_fract_y
 _atom_site_fract_z
 _atom_site_occupancy
 _atom_site_charge
In  In1  1  0.23122000  0.50000000  0.73122000  1.0 1.3920514152
In  In2  1  0.50000000  0.23122000  0.73122000  1.0 1.3920514152
In  In3  1  0.76878000  0.50000000  0.26878000  1.0 1.3920514152
In  In4  1  0.50000000  0.76878000  0.26878000  1.0 1.3920514152
In  In5  1  0.75000000  0.25000000  0.50000000  1.0 1.3757504091
In  In6  1  0.25000000  0.75000000  0.50000000  1.0 1.3757504091
In  In7  1  0.08950000  0.08950000  0.79726000  1.0 1.5406325921
In  In8  1  0.91050000  0.70776000  0.00000000  1.0 1.5406325921
In  In9  1  0.29224000  0.29224000  0.20274000  1.0 1.5406325921
In  In10  1  0.70776000  0.91050000  0.00000000  1.0 1.5406325921
In  In11  1  0.89856000  0.99920000  0.69108000  1.0 1.5406325921
In  In12  1  0.00080000  0.69188000  0.89936000  1.0 1.5406325921
In  In13  1  0.30812000  0.20748000  0.30892000  1.0 1.5406325921
In  In14  1  0.79252000  0.10144000  0.10064000  1.0 1.5406325921
In  In15  1  0.10144000  0.79252000  0.10064000  1.0 1.5406325921
In  In16  1  0.20748000  0.30812000  0.30892000  1.0 1.5406325921
In  In17  1  0.69188000  0.00080000  0.89936000  1.0 1.5406325921
In  In18  1  0.99920000  0.89856000  0.69108000  1.0 1.5406325921
H  H1  1  0.38860000  0.38860000  0.73060000  1.0 0.167221801
H  H2  1  0.61140000  0.34200000  0.00000000  1.0 0.167221801
H  H3  1  0.65800000  0.65800000  0.26940000  1.0 0.167221801
H  H4  1  0.34200000  0.61140000  0.00000000  1.0 0.167221801
H  H5  1  0.09660000  0.20320000  0.00000000  1.0 0.1581213415
H  H6  1  0.79680000  0.79680000  0.89340000  1.0 0.1581213415
H  H7  1  0.20320000  0.09660000  0.00000000  1.0 0.1581213415
H  H8  1  0.90340000  0.90340000  0.10660000  1.0 0.1581213415
H  H9  1  0.10750000  0.23920000  0.72110000  1.0 0.1522085802
H  H10  1  0.76080000  0.48190000  0.86830000  1.0 0.1522085802
H  H11  1  0.51810000  0.38640000  0.27890000  1.0 0.1522085802
H  H12  1  0.61360000  0.89250000  0.13170000  1.0 0.1522085802
H  H13  1  0.89250000  0.61360000  0.13170000  1.0 0.1522085802
H  H14  1  0.38640000  0.51810000  0.27890000  1.0 0.1522085802
H  H15  1  0.48190000  0.76080000  0.86830000  1.0 0.1522085802
H  H16  1  0.23920000  0.10750000  0.72110000  1.0 0.1522085802
H  H17  1  0.87640000  0.09560000  0.88560000  1.0 0.1522085802
H  H18  1  0.90440000  0.79000000  0.78080000  1.0 0.1522085802
H  H19  1  0.21000000  0.99080000  0.11440000  1.0 0.1522085802
H  H20  1  0.00920000  0.12360000  0.21920000  1.0 0.1522085802
H  H21  1  0.12360000  0.00920000  0.21920000  1.0 0.1522085802
H  H22  1  0.99080000  0.21000000  0.11440000  1.0 0.1522085802
H  H23  1  0.79000000  0.90440000  0.78080000  1.0 0.1522085802
H  H24  1  0.09560000  0.87640000  0.88560000  1.0 0.1522085802
H  H25  1  0.00670000  0.32720000  0.61470000  1.0 0.1581213415
H  H26  1  0.67280000  0.28750000  0.67950000  1.0 0.1581213415
H  H27  1  0.71250000  0.39200000  0.38530000  1.0 0.1581213415
H  H28  1  0.60800000  0.99330000  0.32050000  1.0 0.1581213415
H  H29  1  0.99330000  0.60800000  0.32050000  1.0 0.1581213415
H  H30  1  0.39200000  0.71250000  0.38530000  1.0 0.1581213415
H  H31  1  0.28750000  0.67280000  0.67950000  1.0 0.1581213415
H  H32  1  0.32720000  0.00670000  0.61470000  1.0 0.1581213415
H  H33  1  0.28030000  0.39580000  0.54610000  1.0 0.1522085802
H  H34  1  0.60420000  0.15030000  0.88450000  1.0 0.1522085802
H  H35  1  0.84970000  0.73420000  0.45390000  1.0 0.1522085802
H  H36  1  0.26580000  0.71970000  0.11550000  1.0 0.1522085802
H  H37  1  0.71970000  0.26580000  0.11550000  1.0 0.1522085802
H  H38  1  0.73420000  0.84970000  0.45390000  1.0 0.1522085802
H  H39  1  0.15030000  0.60420000  0.88450000  1.0 0.1522085802
H  H40  1  0.39580000  0.28030000  0.54610000  1.0 0.1522085802
H  H41  1  0.89130000  0.15490000  0.61440000  1.0 0.1522085802
H  H42  1  0.84510000  0.45950000  0.73640000  1.0 0.1522085802
H  H43  1  0.54050000  0.27690000  0.38560000  1.0 0.1522085802
H  H44  1  0.72310000  0.10870000  0.26360000  1.0 0.1522085802
H  H45  1  0.10870000  0.72310000  0.26360000  1.0 0.1522085802
H  H46  1  0.27690000  0.54050000  0.38560000  1.0 0.1522085802
H  H47  1  0.45950000  0.84510000  0.73640000  1.0 0.1522085802
H  H48  1  0.15490000  0.89130000  0.61440000  1.0 0.1522085802
C  C1  1  0.29720000  0.43710000  0.67530000  1.0 0.5254731044
C  C2  1  0.56290000  0.23820000  0.86010000  1.0 0.5254731044
C  C3  1  0.76180000  0.62190000  0.32470000  1.0 0.5245156154
C  C4  1  0.37810000  0.70280000  0.13990000  1.0 0.5245156154
C  C5  1  0.70280000  0.37810000  0.13990000  1.0 0.5245156154
C  C6  1  0.62190000  0.76180000  0.32470000  1.0 0.5254731044
C  C7  1  0.23820000  0.56290000  0.86010000  1.0 0.5254731044
C  C8  1  0.43710000  0.29720000  0.67530000  1.0 0.5254731044
C  C9  1  0.37500000  0.37500000  0.68120000  1.0 -0.0620723998
C  C10  1  0.62500000  0.30620000  0.00000000  1.0 -0.0620723998
C  C11  1  0.69380000  0.69380000  0.31880000  1.0 -0.0510240957
C  C12  1  0.30620000  0.62500000  0.00000000  1.0 -0.0620723998
C  C13  1  0.33180000  0.39760000  0.64340000  1.0 -0.0112200051
C  C14  1  0.60240000  0.24580000  0.93420000  1.0 -0.0112200051
C  C15  1  0.75420000  0.68840000  0.35660000  1.0 -0.0112200051
C  C16  1  0.31160000  0.66820000  0.06580000  1.0 -0.0112200051
C  C17  1  0.66820000  0.31160000  0.06580000  1.0 -0.0112200051
C  C18  1  0.68840000  0.75420000  0.35660000  1.0 -0.0112200051
C  C19  1  0.24580000  0.60240000  0.93420000  1.0 -0.0112200051
C  C20  1  0.39760000  0.33180000  0.64340000  1.0 -0.0112200051
C  C21  1  0.31880000  0.31880000  0.45560000  1.0 0.6126799896
C  C22  1  0.68120000  0.13680000  0.00000000  1.0 0.6126799896
C  C23  1  0.86320000  0.86320000  0.54440000  1.0 0.6126799896
C  C24  1  0.13680000  0.68120000  0.00000000  1.0 0.6126799896
C  C25  1  0.98720000  0.11870000  0.86010000  1.0 0.6126799896
C  C26  1  0.88130000  0.74140000  0.86850000  1.0 0.6126799896
C  C27  1  0.25860000  0.12710000  0.13990000  1.0 0.6126799896
C  C28  1  0.87290000  0.01280000  0.13150000  1.0 0.6126799896
C  C29  1  0.01280000  0.87290000  0.13150000  1.0 0.6126799896
C  C30  1  0.12710000  0.25860000  0.13990000  1.0 0.6126799896
C  C31  1  0.74140000  0.88130000  0.86850000  1.0 0.6126799896
C  C32  1  0.11870000  0.98720000  0.86010000  1.0 0.6126799896
C  C33  1  0.13950000  0.35140000  0.70090000  1.0 0.5752222404
C  C34  1  0.64860000  0.34950000  0.78810000  1.0 0.574514018
C  C35  1  0.65050000  0.43860000  0.29910000  1.0 0.574514018
C  C36  1  0.56140000  0.86050000  0.21190000  1.0 0.5752222404
C  C37  1  0.86050000  0.56140000  0.21190000  1.0 0.574514018
C  C38  1  0.43860000  0.65050000  0.29910000  1.0 0.5752222404
C  C39  1  0.34950000  0.64860000  0.78810000  1.0 0.5752222404
C  C40  1  0.35140000  0.13950000  0.70090000  1.0 0.574514018
C  C41  1  0.99670000  0.13120000  0.68990000  1.0 0.6176972627
C  C42  1  0.86880000  0.55870000  0.86550000  1.0 0.6176972627
C  C43  1  0.44130000  0.30680000  0.31010000  1.0 0.6176972627
C  C44  1  0.69320000  0.00330000  0.13450000  1.0 0.6176972627
C  C45  1  0.00330000  0.69320000  0.13450000  1.0 0.6176972627
C  C46  1  0.30680000  0.44130000  0.31010000  1.0 0.6176972627
C  C47  1  0.55870000  0.86880000  0.86550000  1.0 0.6176972627
C  C48  1  0.13120000  0.99670000  0.68990000  1.0 0.6176972627
C  C49  1  0.06710000  0.29360000  0.67310000  1.0 -0.0265679688
C  C50  1  0.70640000  0.37950000  0.77350000  1.0 -0.0265679688
C  C51  1  0.62050000  0.39400000  0.32690000  1.0 -0.0265679688
C  C52  1  0.60600000  0.93290000  0.22650000  1.0 -0.0265679688
C  C53  1  0.93290000  0.60600000  0.22650000  1.0 -0.0265679688
C  C54  1  0.39400000  0.62050000  0.32690000  1.0 -0.0265679688
C  C55  1  0.37950000  0.70640000  0.77350000  1.0 -0.0265679688
C  C56  1  0.29360000  0.06710000  0.67310000  1.0 -0.0265679688
C  C57  1  0.87320000  0.24770000  0.56930000  1.0 0.5525352225
C  C58  1  0.75230000  0.32160000  0.62550000  1.0 0.5525352225
C  C59  1  0.67840000  0.30390000  0.43070000  1.0 0.5525352225
C  C60  1  0.69610000  0.12680000  0.37450000  1.0 0.5525352225
C  C61  1  0.12680000  0.69610000  0.37450000  1.0 0.5525352225
C  C62  1  0.30390000  0.67840000  0.43070000  1.0 0.5525352225
C  C63  1  0.32160000  0.75230000  0.62550000  1.0 0.5525352225
C  C64  1  0.24770000  0.87320000  0.56930000  1.0 0.5525352225
C  C65  1  0.99770000  0.18850000  0.67000000  1.0 -0.0265679688
C  C66  1  0.81150000  0.48150000  0.80920000  1.0 -0.0265679688
C  C67  1  0.51850000  0.32770000  0.33000000  1.0 -0.0265679688
C  C68  1  0.67230000  0.00230000  0.19080000  1.0 -0.0265679688
C  C69  1  0.00230000  0.67230000  0.19080000  1.0 -0.0265679688
C  C70  1  0.32770000  0.51850000  0.33000000  1.0 -0.0265679688
C  C71  1  0.48150000  0.81150000  0.80920000  1.0 -0.0265679688
C  C72  1  0.18850000  0.99770000  0.67000000  1.0 -0.0265679688
C  C73  1  0.05330000  0.19190000  0.00000000  1.0 -0.0816410678
C  C74  1  0.80810000  0.80810000  0.86140000  1.0 -0.0816410678
C  C75  1  0.19190000  0.05330000  0.00000000  1.0 -0.0816410678
C  C76  1  0.94670000  0.94670000  0.13860000  1.0 -0.0816410678
C  C77  1  0.06510000  0.23980000  0.69330000  1.0 -0.0671001623
C  C78  1  0.76020000  0.45350000  0.82530000  1.0 -0.0671001623
C  C79  1  0.54650000  0.37180000  0.30670000  1.0 -0.0671001623
C  C80  1  0.62820000  0.93490000  0.17470000  1.0 -0.0671001623
C  C81  1  0.93490000  0.62820000  0.17470000  1.0 -0.0620723998
C  C82  1  0.37180000  0.54650000  0.30670000  1.0 -0.0671001623
C  C83  1  0.45350000  0.76020000  0.82530000  1.0 -0.0671001623
C  C84  1  0.23980000  0.06510000  0.69330000  1.0 -0.0671001623
C  C85  1  0.92050000  0.12640000  0.93090000  1.0 -0.0816410678
C  C86  1  0.87360000  0.80450000  0.79410000  1.0 -0.0816410678
C  C87  1  0.19550000  0.98960000  0.06910000  1.0 -0.0816410678
C  C88  1  0.01040000  0.07950000  0.20590000  1.0 -0.0816410678
C  C89  1  0.07950000  0.01040000  0.20590000  1.0 -0.0816410678
C  C90  1  0.98960000  0.19550000  0.06910000  1.0 -0.0816410678
C  C91  1  0.80450000  0.87360000  0.79410000  1.0 -0.0816410678
C  C92  1  0.12640000  0.92050000  0.93090000  1.0 -0.0816410678
C  C93  1  0.85440000  0.12600000  0.00000000  1.0 0.6126799896
C  C94  1  0.87400000  0.87400000  0.72840000  1.0 0.6126799896
C  C95  1  0.12600000  0.85440000  0.00000000  1.0 0.6126799896
C  C96  1  0.14560000  0.14560000  0.27160000  1.0 0.6126799896
C  C97  1  0.33950000  0.33950000  0.53180000  1.0 -0.0671001623
C  C98  1  0.66050000  0.19230000  0.00000000  1.0 -0.0671001623
C  C99  1  0.80770000  0.80770000  0.46820000  1.0 -0.0671001623
C  C100  1  0.19230000  0.66050000  0.00000000  1.0 -0.0671001623
C  C101  1  0.98950000  0.15090000  0.93400000  1.0 -0.0235918075
C  C102  1  0.84910000  0.78310000  0.83860000  1.0 -0.0235918075
C  C103  1  0.21690000  0.05550000  0.06600000  1.0 -0.0235918075
C  C104  1  0.94450000  0.01050000  0.16140000  1.0 -0.0235918075
C  C105  1  0.01050000  0.94450000  0.16140000  1.0 -0.0235918075
C  C106  1  0.05550000  0.21690000  0.06600000  1.0 -0.0235918075
C  C107  1  0.78310000  0.84910000  0.83860000  1.0 -0.0235918075
C  C108  1  0.15090000  0.98950000  0.93400000  1.0 -0.0235918075
C  C109  1  0.00410000  0.29340000  0.62990000  1.0 -0.0671001623
C  C110  1  0.70660000  0.33650000  0.71070000  1.0 -0.0671001623
C  C111  1  0.66350000  0.37420000  0.37010000  1.0 -0.0671001623
C  C112  1  0.62580000  0.99590000  0.28930000  1.0 -0.0671001623
C  C113  1  0.99590000  0.62580000  0.28930000  1.0 -0.0671001623
C  C114  1  0.37420000  0.66350000  0.37010000  1.0 -0.0671001623
C  C115  1  0.33650000  0.70660000  0.71070000  1.0 -0.0671001623
C  C116  1  0.29340000  0.00410000  0.62990000  1.0 -0.0671001623
C  C117  1  0.31130000  0.38080000  0.56990000  1.0 -0.0620723998
C  C118  1  0.61920000  0.18910000  0.93050000  1.0 -0.0620723998
C  C119  1  0.81090000  0.74140000  0.43010000  1.0 -0.0620723998
C  C120  1  0.25860000  0.68870000  0.06950000  1.0 -0.0620723998
C  C121  1  0.68870000  0.25860000  0.06950000  1.0 -0.0620723998
C  C122  1  0.74140000  0.81090000  0.43010000  1.0 -0.0620723998
C  C123  1  0.18910000  0.61920000  0.93050000  1.0 -0.0620723998
C  C124  1  0.38080000  0.31130000  0.56990000  1.0 -0.0620723998
C  C125  1  0.94010000  0.24520000  0.61030000  1.0 -0.0112200051
C  C126  1  0.75480000  0.36510000  0.69490000  1.0 -0.0112200051
C  C127  1  0.63490000  0.32980000  0.38970000  1.0 -0.0112200051
C  C128  1  0.67020000  0.05990000  0.30510000  1.0 -0.0112200051
C  C129  1  0.05990000  0.67020000  0.30510000  1.0 -0.0112200051
C  C130  1  0.32980000  0.63490000  0.38970000  1.0 -0.0112200051
C  C131  1  0.36510000  0.75480000  0.69490000  1.0 -0.0112200051
C  C132  1  0.24520000  0.94010000  0.61030000  1.0 -0.0112200051
C  C133  1  0.93620000  0.18990000  0.62970000  1.0 -0.0510240957
C  C134  1  0.81010000  0.43980000  0.74630000  1.0 -0.0510240957
C  C135  1  0.56020000  0.30650000  0.37030000  1.0 -0.0510240957
C  C136  1  0.69350000  0.06380000  0.25370000  1.0 -0.0510240957
C  C137  1  0.06380000  0.69350000  0.25370000  1.0 -0.0510240957
C  C138  1  0.30650000  0.56020000  0.37030000  1.0 -0.0510240957
C  C139  1  0.43980000  0.81010000  0.74630000  1.0 -0.0510240957
C  C140  1  0.18990000  0.93620000  0.62970000  1.0 -0.0510240957
C  C141  1  0.92430000  0.15170000  0.00000000  1.0 -0.0265679688
C  C142  1  0.84830000  0.84830000  0.77260000  1.0 -0.0265679688
C  C143  1  0.15170000  0.92430000  0.00000000  1.0 -0.0265679688
C  C144  1  0.07570000  0.07570000  0.22740000  1.0 -0.0265679688
O  O1  1  0.14740000  0.40140000  0.69000000  1.0 -0.4910465911
O  O2  1  0.59860000  0.28860000  0.74600000  1.0 -0.4910465911
O  O3  1  0.71140000  0.45740000  0.31000000  1.0 -0.4910465911
O  O4  1  0.54260000  0.85260000  0.25400000  1.0 -0.4910465911
O  O5  1  0.85260000  0.54260000  0.25400000  1.0 -0.4910465911
O  O6  1  0.45740000  0.71140000  0.31000000  1.0 -0.4910465911
O  O7  1  0.28860000  0.59860000  0.74600000  1.0 -0.4910465911
O  O8  1  0.40140000  0.14740000  0.69000000  1.0 -0.4910465911
O  O9  1  0.31610000  0.46310000  0.74300000  1.0 -0.4492998704
O  O10  1  0.53690000  0.27990000  0.85300000  1.0 -0.4492998704
O  O11  1  0.72010000  0.57310000  0.25700000  1.0 -0.4492998704
O  O12  1  0.42690000  0.68390000  0.14700000  1.0 -0.4492998704
O  O13  1  0.68390000  0.42690000  0.14700000  1.0 -0.4492998704
O  O14  1  0.57310000  0.72010000  0.25700000  1.0 -0.4492998704
O  O15  1  0.27990000  0.53690000  0.85300000  1.0 -0.4492998704
O  O16  1  0.46310000  0.31610000  0.74300000  1.0 -0.4492998704
O  O17  1  0.25390000  0.45330000  0.63980000  1.0 -0.471374134
O  O18  1  0.54670000  0.18650000  0.80060000  1.0 -0.471374134
O  O19  1  0.81350000  0.61410000  0.36020000  1.0 -0.471374134
O  O20  1  0.38590000  0.74610000  0.19940000  1.0 -0.471374134
O  O21  1  0.74610000  0.38590000  0.19940000  1.0 -0.471374134
O  O22  1  0.61410000  0.81350000  0.36020000  1.0 -0.471374134
O  O23  1  0.18650000  0.54670000  0.80060000  1.0 -0.471374134
O  O24  1  0.45330000  0.25390000  0.63980000  1.0 -0.471374134
O  O25  1  0.13880000  0.50000000  0.63880000  1.0 0.1004984599
O  O26  1  0.50000000  0.13880000  0.63880000  1.0 0.1004984599
O  O27  1  0.86120000  0.50000000  0.36120000  1.0 0.1004984599
O  O28  1  0.50000000  0.86120000  0.36120000  1.0 0.1004984599
O  O29  1  0.99430000  0.99430000  0.72640000  1.0 -1.1316631571
O  O30  1  0.00570000  0.73210000  0.00000000  1.0 -1.1316631571
O  O31  1  0.26790000  0.26790000  0.27360000  1.0 -1.1316631571
O  O32  1  0.73210000  0.00570000  0.00000000  1.0 -1.1316631571
O  O33  1  0.85960000  0.15090000  0.06350000  1.0 -0.5467867054
O  O34  1  0.84910000  0.91260000  0.70870000  1.0 -0.5467867054
O  O35  1  0.08740000  0.79610000  0.93650000  1.0 -0.5467867054
O  O36  1  0.20390000  0.14040000  0.29130000  1.0 -0.5467867054
O  O37  1  0.14040000  0.20390000  0.29130000  1.0 -0.5467867054
O  O38  1  0.79610000  0.08740000  0.93650000  1.0 -0.5467867054
O  O39  1  0.91260000  0.84910000  0.70870000  1.0 -0.5467867054
O  O40  1  0.15090000  0.85960000  0.06350000  1.0 -0.5467867054
O  O41  1  0.18650000  0.18650000  0.87420000  1.0 -0.3758538946
O  O42  1  0.81350000  0.68770000  0.00000000  1.0 -0.3727790185
O  O43  1  0.31230000  0.31230000  0.12580000  1.0 -0.3727790185
O  O44  1  0.68770000  0.81350000  0.00000000  1.0 -0.3727790185
O  O45  1  0.19440000  0.34020000  0.72620000  1.0 -0.4357216989
O  O46  1  0.65980000  0.38600000  0.85420000  1.0 -0.4357216989
O  O47  1  0.61400000  0.46820000  0.27380000  1.0 -0.4334810808
O  O48  1  0.53180000  0.80560000  0.14580000  1.0 -0.4357216989
O  O49  1  0.80560000  0.53180000  0.14580000  1.0 -0.4334810808
O  O50  1  0.46820000  0.61400000  0.27380000  1.0 -0.4357216989
O  O51  1  0.38600000  0.65980000  0.85420000  1.0 -0.4357216989
O  O52  1  0.34020000  0.19440000  0.72620000  1.0 -0.4357216989
O  O53  1  0.92620000  0.08200000  0.66120000  1.0 -0.5699122087
O  O54  1  0.91800000  0.57920000  0.84420000  1.0 -0.5699122087
O  O55  1  0.42080000  0.26500000  0.33880000  1.0 -0.5699122087
O  O56  1  0.73500000  0.07380000  0.15580000  1.0 -0.5699122087
O  O57  1  0.07380000  0.73500000  0.15580000  1.0 -0.5699122087
O  O58  1  0.26500000  0.42080000  0.33880000  1.0 -0.5699122087
O  O59  1  0.57920000  0.91800000  0.84420000  1.0 -0.5699122087
O  O60  1  0.08200000  0.92620000  0.66120000  1.0 -0.5699122087
O  O61  1  0.92520000  0.07550000  0.79910000  1.0 -0.5467867054
O  O62  1  0.92450000  0.72360000  0.84970000  1.0 -0.5467867054
O  O63  1  0.27640000  0.12610000  0.20090000  1.0 -0.5467867054
O  O64  1  0.87390000  0.07480000  0.15030000  1.0 -0.5467867054
O  O65  1  0.07480000  0.87390000  0.15030000  1.0 -0.5467867054
O  O66  1  0.12610000  0.27640000  0.20090000  1.0 -0.5467867054
O  O67  1  0.72360000  0.92450000  0.84970000  1.0 -0.5467867054
O  O68  1  0.07550000  0.92520000  0.79910000  1.0 -0.5467867054
O  O69  1  0.81230000  0.20370000  0.55620000  1.0 -0.5169998542
O  O70  1  0.79630000  0.35250000  0.60860000  1.0 -0.5169998542
O  O71  1  0.64750000  0.25610000  0.44380000  1.0 -0.5169998542
O  O72  1  0.74390000  0.18770000  0.39140000  1.0 -0.5169998542
O  O73  1  0.18770000  0.74390000  0.39140000  1.0 -0.5169998542
O  O74  1  0.25610000  0.64750000  0.44380000  1.0 -0.5169998542
O  O75  1  0.35250000  0.79630000  0.60860000  1.0 -0.5169998542
O  O76  1  0.20370000  0.81230000  0.55620000  1.0 -0.5169998542
O  O77  1  0.05810000  0.14050000  0.73280000  1.0 -0.5391184077
O  O78  1  0.85950000  0.59230000  0.91760000  1.0 -0.5391184077
O  O79  1  0.40770000  0.32530000  0.26720000  1.0 -0.5391184077
O  O80  1  0.67470000  0.94190000  0.08240000  1.0 -0.5391184077
O  O81  1  0.94190000  0.67470000  0.08240000  1.0 -0.5391184077
O  O82  1  0.32530000  0.40770000  0.26720000  1.0 -0.5391184077
O  O83  1  0.59230000  0.85950000  0.91760000  1.0 -0.5391184077
O  O84  1  0.14050000  0.05810000  0.73280000  1.0 -0.5391184077
O  O85  1  0.87650000  0.29560000  0.54830000  1.0 -0.4910465911
O  O86  1  0.70440000  0.25270000  0.58090000  1.0 -0.4910465911
O  O87  1  0.74730000  0.32820000  0.45170000  1.0 -0.4910465911
O  O88  1  0.67180000  0.12350000  0.41910000  1.0 -0.4910465911
O  O89  1  0.12350000  0.67180000  0.41910000  1.0 -0.4910465911
O  O90  1  0.32820000  0.74730000  0.45170000  1.0 -0.4910465911
O  O91  1  0.25270000  0.70440000  0.58090000  1.0 -0.4910465911
O  O92  1  0.29560000  0.87650000  0.54830000  1.0 -0.4910465911
O  O93  1  0.79690000  0.00140000  0.65010000  1.0 -0.3727790185
O  O94  1  0.99860000  0.64870000  0.79550000  1.0 -0.3727790185
O  O95  1  0.35130000  0.14680000  0.34990000  1.0 -0.3758538946
O  O96  1  0.85320000  0.20310000  0.20450000  1.0 -0.3727790185
O  O97  1  0.20310000  0.85320000  0.20450000  1.0 -0.3727790185
O  O98  1  0.14680000  0.35130000  0.34990000  1.0 -0.3727790185
O  O99  1  0.64870000  0.99860000  0.79550000  1.0 -0.3727790185
O  O100  1  0.00140000  0.79690000  0.65010000  1.0 -0.3934868708
O  O101  1  0.34360000  0.27800000  0.42500000  1.0 -0.5391184077
O  O102  1  0.72200000  0.14700000  0.06560000  1.0 -0.5391184077
O  O103  1  0.85300000  0.91860000  0.57500000  1.0 -0.5391184077
O  O104  1  0.08140000  0.65640000  0.93440000  1.0 -0.5391184077
O  O105  1  0.65640000  0.08140000  0.93440000  1.0 -0.5391184077
O  O106  1  0.91860000  0.85300000  0.57500000  1.0 -0.5391184077
O  O107  1  0.14700000  0.72200000  0.06560000  1.0 -0.5391184077
O  O108  1  0.27800000  0.34360000  0.42500000  1.0 -0.5391184077
O  O109  1  0.05060000  0.13580000  0.86620000  1.0 -0.55656804
O  O110  1  0.86420000  0.73040000  0.91480000  1.0 -0.55656804
O  O111  1  0.26960000  0.18440000  0.13380000  1.0 -0.55656804
O  O112  1  0.81560000  0.94940000  0.08520000  1.0 -0.55656804
O  O113  1  0.94940000  0.81560000  0.08520000  1.0 -0.55656804
O  O114  1  0.18440000  0.26960000  0.13380000  1.0 -0.55656804
O  O115  1  0.73040000  0.86420000  0.91480000  1.0 -0.55656804
O  O116  1  0.13580000  0.05060000  0.86620000  1.0 -0.55656804
