# DDEC6 charges by PACMAN v1.1 (https://github.com/mtap-research/PACMAN-charge/)
data_INEBOT_ion_pacman
_symmetry_space_group_name_H-M   'P 1'
_cell_length_a   17.59100000
_cell_length_b   22.78100000
_cell_length_c   19.05800000
_cell_angle_alpha   90.00000000
_cell_angle_beta   93.22500000
_cell_angle_gamma   90.00000000
_symmetry_Int_Tables_number   1
_chemical_formula_structural   Ni7H104C132(N11O15)2
_chemical_formula_sum   'Ni14 H208 C264 N44 O60'
_cell_volume   7625.21868304
_cell_formula_units_Z   2
loop_
 _symmetry_equiv_pos_site_id
 _symmetry_equiv_pos_as_xyz
  1  'x, y, z'
loop_
 _atom_site_type_symbol
 _atom_site_label
 _atom_site_symmetry_multiplicity
 _atom_site_fract_x
 _atom_site_fract_y
 _atom_site_fract_z
 _atom_site_occupancy
 _atom_site_charge
Ni  Ni1  1  0.50000000  0.50000000  0.50000000  1.0 1.0026490183
Ni  Ni2  1  0.50000000  0.00000000  0.00000000  1.0 1.0026490183
Ni  Ni3  1  0.98216000  0.36096000  0.17534000  1.0 0.4898485759
Ni  Ni4  1  0.01784000  0.86096000  0.32466000  1.0 0.4898485759
Ni  Ni5  1  0.01784000  0.63904000  0.82466000  1.0 0.4898485759
Ni  Ni6  1  0.98216000  0.13904000  0.67534000  1.0 0.4898485759
Ni  Ni7  1  0.46064000  0.37481000  0.45043000  1.0 1.079990992
Ni  Ni8  1  0.53936000  0.87481000  0.04957000  1.0 1.079990992
Ni  Ni9  1  0.53936000  0.62519000  0.54957000  1.0 1.079990992
Ni  Ni10  1  0.46064000  0.12519000  0.95043000  1.0 1.079990992
Ni  Ni11  1  0.54118000  0.41527000  0.61919000  1.0 1.1729482502
Ni  Ni12  1  0.45882000  0.91527000  0.88081000  1.0 1.1729482502
Ni  Ni13  1  0.45882000  0.58473000  0.38081000  1.0 1.1729482502
Ni  Ni14  1  0.54118000  0.08473000  0.11919000  1.0 1.1729482502
H  H1  1  0.39160000  0.35440000  0.01240000  1.0 0.129149934
H  H2  1  0.60840000  0.85440000  0.48760000  1.0 0.129149934
H  H3  1  0.60840000  0.64560000  0.98760000  1.0 0.129149934
H  H4  1  0.39160000  0.14560000  0.51240000  1.0 0.129149934
H  H5  1  0.35390000  0.40900000  0.10910000  1.0 0.1212068897
H  H6  1  0.64610000  0.90900000  0.39090000  1.0 0.1212068897
H  H7  1  0.64610000  0.59100000  0.89090000  1.0 0.1212068897
H  H8  1  0.35390000  0.09100000  0.60910000  1.0 0.1212068897
H  H9  1  0.64600000  0.23630000  0.90770000  1.0 0.129149934
H  H10  1  0.35400000  0.73630000  0.59230000  1.0 0.129149934
H  H11  1  0.35400000  0.76370000  0.09230000  1.0 0.129149934
H  H12  1  0.64600000  0.26370000  0.40770000  1.0 0.129149934
H  H13  1  0.68470000  0.20440000  0.22290000  1.0 0.1402682203
H  H14  1  0.31530000  0.70440000  0.27710000  1.0 0.1402682203
H  H15  1  0.31530000  0.79560000  0.77710000  1.0 0.1402682203
H  H16  1  0.68470000  0.29560000  0.72290000  1.0 0.1402682203
H  H17  1  0.95280000  0.21080000  0.25630000  1.0 0.129149934
H  H18  1  0.04720000  0.71080000  0.24370000  1.0 0.129149934
H  H19  1  0.04720000  0.78920000  0.74370000  1.0 0.129149934
H  H20  1  0.95280000  0.28920000  0.75630000  1.0 0.129149934
H  H21  1  0.28860000  0.58010000  0.39700000  1.0 0.1212068897
H  H22  1  0.71140000  0.08010000  0.10300000  1.0 0.1212068897
H  H23  1  0.71140000  0.41990000  0.60300000  1.0 0.1212068897
H  H24  1  0.28860000  0.91990000  0.89700000  1.0 0.1212068897
H  H25  1  0.85230000  0.34710000  0.01920000  1.0 0.129149934
H  H26  1  0.14770000  0.84710000  0.48080000  1.0 0.129149934
H  H27  1  0.14770000  0.65290000  0.98080000  1.0 0.129149934
H  H28  1  0.85230000  0.15290000  0.51920000  1.0 0.129149934
H  H29  1  0.91780000  0.38680000  0.99260000  1.0 0.1212068897
H  H30  1  0.08220000  0.88680000  0.50740000  1.0 0.1212068897
H  H31  1  0.08220000  0.61320000  0.00740000  1.0 0.1212068897
H  H32  1  0.91780000  0.11320000  0.49260000  1.0 0.1212068897
H  H33  1  0.76130000  0.27110000  0.87670000  1.0 0.1212068897
H  H34  1  0.23870000  0.77110000  0.62330000  1.0 0.1212068897
H  H35  1  0.23870000  0.72890000  0.12330000  1.0 0.1212068897
H  H36  1  0.76130000  0.22890000  0.37670000  1.0 0.1212068897
H  H37  1  0.22340000  0.41160000  0.40970000  1.0 0.1212068897
H  H38  1  0.77660000  0.91160000  0.09030000  1.0 0.1212068897
H  H39  1  0.77660000  0.58840000  0.59030000  1.0 0.1212068897
H  H40  1  0.22340000  0.08840000  0.90970000  1.0 0.1212068897
H  H41  1  0.92570000  0.51530000  0.44490000  1.0 0.1212068897
H  H42  1  0.07430000  0.01530000  0.05510000  1.0 0.1212068897
H  H43  1  0.07430000  0.48470000  0.55510000  1.0 0.1212068897
H  H44  1  0.92570000  0.98470000  0.94490000  1.0 0.1212068897
H  H45  1  0.04310000  0.51770000  0.18210000  1.0 0.1104281436
H  H46  1  0.95690000  0.01770000  0.31790000  1.0 0.1104281436
H  H47  1  0.95690000  0.48230000  0.81790000  1.0 0.1104281436
H  H48  1  0.04310000  0.98230000  0.68210000  1.0 0.1104281436
H  H49  1  0.10640000  0.48180000  0.22470000  1.0 0.129149934
H  H50  1  0.89360000  0.98180000  0.27530000  1.0 0.129149934
H  H51  1  0.89360000  0.51820000  0.77530000  1.0 0.129149934
H  H52  1  0.10640000  0.01820000  0.72470000  1.0 0.129149934
H  H53  1  0.02830000  0.43250000  0.04030000  1.0 0.1017567739
H  H54  1  0.97170000  0.93250000  0.45970000  1.0 0.1017567739
H  H55  1  0.97170000  0.56750000  0.95970000  1.0 0.1017567739
H  H56  1  0.02830000  0.06750000  0.54030000  1.0 0.1017567739
H  H57  1  0.03410000  0.49670000  0.07080000  1.0 0.1017567739
H  H58  1  0.96590000  0.99670000  0.42920000  1.0 0.1017567739
H  H59  1  0.96590000  0.50330000  0.92920000  1.0 0.1017567739
H  H60  1  0.03410000  0.00330000  0.57080000  1.0 0.1017567739
H  H61  1  0.09960000  0.43920000  0.37420000  1.0 0.1212068897
H  H62  1  0.90040000  0.93920000  0.12580000  1.0 0.1212068897
H  H63  1  0.90040000  0.56080000  0.62580000  1.0 0.1212068897
H  H64  1  0.09960000  0.06080000  0.87420000  1.0 0.1212068897
H  H65  1  0.88230000  0.13180000  0.29290000  1.0 0.1017567739
H  H66  1  0.11770000  0.63180000  0.20710000  1.0 0.1017567739
H  H67  1  0.11770000  0.86820000  0.70710000  1.0 0.1017567739
H  H68  1  0.88230000  0.36820000  0.79290000  1.0 0.1017567739
H  H69  1  0.32110000  0.38310000  0.26010000  1.0 0.1402682203
H  H70  1  0.67890000  0.88310000  0.23990000  1.0 0.1402682203
H  H71  1  0.67890000  0.61690000  0.73990000  1.0 0.1402682203
H  H72  1  0.32110000  0.11690000  0.76010000  1.0 0.1402682203
H  H73  1  0.28010000  0.42280000  0.20230000  1.0 0.1212068897
H  H74  1  0.71990000  0.92280000  0.29770000  1.0 0.1212068897
H  H75  1  0.71990000  0.57720000  0.79770000  1.0 0.1212068897
H  H76  1  0.28010000  0.07720000  0.70230000  1.0 0.1212068897
H  H77  1  0.78370000  0.37750000  0.41470000  1.0 0.1212068897
H  H78  1  0.21630000  0.87750000  0.08530000  1.0 0.1212068897
H  H79  1  0.21630000  0.62250000  0.58530000  1.0 0.1212068897
H  H80  1  0.78370000  0.12250000  0.91470000  1.0 0.1212068897
H  H81  1  0.12110000  0.24060000  0.16360000  1.0 0.1402682203
H  H82  1  0.87890000  0.74060000  0.33640000  1.0 0.1402682203
H  H83  1  0.87890000  0.75940000  0.83640000  1.0 0.1402682203
H  H84  1  0.12110000  0.25940000  0.66360000  1.0 0.1402682203
H  H85  1  0.75240000  0.13040000  0.28100000  1.0 0.1212068897
H  H86  1  0.24760000  0.63040000  0.21900000  1.0 0.1212068897
H  H87  1  0.24760000  0.86960000  0.71900000  1.0 0.1212068897
H  H88  1  0.75240000  0.36960000  0.78100000  1.0 0.1212068897
H  H89  1  0.91690000  0.22710000  0.90660000  1.0 0.129149934
H  H90  1  0.08310000  0.72710000  0.59340000  1.0 0.129149934
H  H91  1  0.08310000  0.77290000  0.09340000  1.0 0.129149934
H  H92  1  0.91690000  0.27290000  0.40660000  1.0 0.129149934
H  H93  1  0.89460000  0.29360000  0.90930000  1.0 0.1212068897
H  H94  1  0.10540000  0.79360000  0.59070000  1.0 0.1212068897
H  H95  1  0.10540000  0.70640000  0.09070000  1.0 0.1212068897
H  H96  1  0.89460000  0.20640000  0.40930000  1.0 0.1212068897
H  H97  1  0.82930000  0.45600000  0.48100000  1.0 0.1212068897
H  H98  1  0.17070000  0.95600000  0.01900000  1.0 0.1212068897
H  H99  1  0.17070000  0.54400000  0.51900000  1.0 0.1212068897
H  H100  1  0.82930000  0.04400000  0.98100000  1.0 0.1212068897
H  H101  1  0.62820000  0.37920000  0.37000000  1.0 0.1212068897
H  H102  1  0.37180000  0.87920000  0.13000000  1.0 0.1212068897
H  H103  1  0.37180000  0.62080000  0.63000000  1.0 0.1212068897
H  H104  1  0.62820000  0.12080000  0.87000000  1.0 0.1212068897
H  H105  1  0.16730000  0.43940000  0.14070000  1.0 0.1402682203
H  H106  1  0.83270000  0.93940000  0.35930000  1.0 0.1402682203
H  H107  1  0.83270000  0.56060000  0.85930000  1.0 0.1402682203
H  H108  1  0.16730000  0.06060000  0.64070000  1.0 0.1402682203
H  H109  1  0.13170000  0.38560000  0.09830000  1.0 0.1469292718
H  H110  1  0.86830000  0.88560000  0.40170000  1.0 0.1469292718
H  H111  1  0.86830000  0.61440000  0.90170000  1.0 0.1469292718
H  H112  1  0.13170000  0.11440000  0.59830000  1.0 0.1469292718
H  H113  1  0.58670000  0.41210000  0.13160000  1.0 0.1212068897
H  H114  1  0.41330000  0.91210000  0.36840000  1.0 0.1212068897
H  H115  1  0.41330000  0.58790000  0.86840000  1.0 0.1212068897
H  H116  1  0.58670000  0.08790000  0.63160000  1.0 0.1212068897
H  H117  1  0.01420000  0.15540000  0.95640000  1.0 0.129149934
H  H118  1  0.98580000  0.65540000  0.54360000  1.0 0.129149934
H  H119  1  0.98580000  0.84460000  0.04360000  1.0 0.129149934
H  H120  1  0.01420000  0.34460000  0.45640000  1.0 0.129149934
H  H121  1  0.68690000  0.32150000  0.28980000  1.0 0.1212068897
H  H122  1  0.31310000  0.82150000  0.21020000  1.0 0.1212068897
H  H123  1  0.31310000  0.67850000  0.71020000  1.0 0.1212068897
H  H124  1  0.68690000  0.17850000  0.78980000  1.0 0.1212068897
H  H125  1  0.03610000  0.26330000  0.33240000  1.0 0.1212068897
H  H126  1  0.96390000  0.76330000  0.16760000  1.0 0.1212068897
H  H127  1  0.96390000  0.73670000  0.66760000  1.0 0.1212068897
H  H128  1  0.03610000  0.23670000  0.83240000  1.0 0.1212068897
H  H129  1  0.11410000  0.22140000  0.41800000  1.0 0.1017567739
H  H130  1  0.88590000  0.72140000  0.08200000  1.0 0.1017567739
H  H131  1  0.88590000  0.77860000  0.58200000  1.0 0.1017567739
H  H132  1  0.11410000  0.27860000  0.91800000  1.0 0.1017567739
H  H133  1  0.52300000  0.46780000  0.21400000  1.0 0.1212068897
H  H134  1  0.47700000  0.96780000  0.28600000  1.0 0.1212068897
H  H135  1  0.47700000  0.53220000  0.78600000  1.0 0.1212068897
H  H136  1  0.52300000  0.03220000  0.71400000  1.0 0.1212068897
H  H137  1  0.29700000  0.30360000  0.35010000  1.0 0.1469292718
H  H138  1  0.70300000  0.80360000  0.14990000  1.0 0.1469292718
H  H139  1  0.70300000  0.69640000  0.64990000  1.0 0.1469292718
H  H140  1  0.29700000  0.19640000  0.85010000  1.0 0.1469292718
H  H141  1  0.16410000  0.15180000  0.12400000  1.0 0.1212068897
H  H142  1  0.83590000  0.65180000  0.37600000  1.0 0.129149934
H  H143  1  0.83590000  0.84820000  0.87600000  1.0 0.1212068897
H  H144  1  0.16410000  0.34820000  0.62400000  1.0 0.1212068897
H  H145  1  0.11260000  0.11090000  0.01860000  1.0 0.1212068897
H  H146  1  0.88740000  0.61090000  0.48140000  1.0 0.1212068897
H  H147  1  0.88740000  0.88910000  0.98140000  1.0 0.1212068897
H  H148  1  0.11260000  0.38910000  0.51860000  1.0 0.1212068897
H  H149  1  0.33270000  0.21340000  0.10740000  1.0 0.129149934
H  H150  1  0.66730000  0.71340000  0.39260000  1.0 0.129149934
H  H151  1  0.66730000  0.78660000  0.89260000  1.0 0.129149934
H  H152  1  0.33270000  0.28660000  0.60740000  1.0 0.129149934
H  H153  1  0.28810000  0.26880000  0.19430000  1.0 0.1212068897
H  H154  1  0.71190000  0.76880000  0.30570000  1.0 0.1212068897
H  H155  1  0.71190000  0.73120000  0.80570000  1.0 0.1212068897
H  H156  1  0.28810000  0.23120000  0.69430000  1.0 0.1212068897
H  H157  1  0.24160000  0.23880000  0.42480000  1.0 0.129149934
H  H158  1  0.75840000  0.73880000  0.07520000  1.0 0.129149934
H  H159  1  0.75840000  0.76120000  0.57520000  1.0 0.129149934
H  H160  1  0.24160000  0.26120000  0.92480000  1.0 0.129149934
H  H161  1  0.91810000  0.48300000  0.12480000  1.0 0.1017567739
H  H162  1  0.08190000  0.98300000  0.37520000  1.0 0.1017567739
H  H163  1  0.08190000  0.51700000  0.87520000  1.0 0.1017567739
H  H164  1  0.91810000  0.01700000  0.62480000  1.0 0.1017567739
H  H165  1  0.90590000  0.47450000  0.04310000  1.0 0.1104281436
H  H166  1  0.09410000  0.97450000  0.45690000  1.0 0.1104281436
H  H167  1  0.09410000  0.52550000  0.95690000  1.0 0.1104281436
H  H168  1  0.90590000  0.02550000  0.54310000  1.0 0.1104281436
H  H169  1  0.78630000  0.39960000  0.09220000  1.0 0.129149934
H  H170  1  0.21370000  0.89960000  0.40780000  1.0 0.129149934
H  H171  1  0.21370000  0.60040000  0.90780000  1.0 0.129149934
H  H172  1  0.78630000  0.10040000  0.59220000  1.0 0.129149934
H  H173  1  0.82270000  0.42620000  0.16270000  1.0 0.1402682203
H  H174  1  0.17730000  0.92620000  0.33730000  1.0 0.1402682203
H  H175  1  0.17730000  0.57380000  0.83730000  1.0 0.1402682203
H  H176  1  0.82270000  0.07380000  0.66270000  1.0 0.1402682203
H  H177  1  0.83930000  0.35260000  0.31070000  1.0 0.129149934
H  H178  1  0.16070000  0.85260000  0.18930000  1.0 0.129149934
H  H179  1  0.16070000  0.64740000  0.68930000  1.0 0.129149934
H  H180  1  0.83930000  0.14740000  0.81070000  1.0 0.129149934
H  H181  1  0.16730000  0.60580000  0.35990000  1.0 0.1212068897
H  H182  1  0.83270000  0.10580000  0.14010000  1.0 0.1212068897
H  H183  1  0.83270000  0.39420000  0.64010000  1.0 0.1212068897
H  H184  1  0.16730000  0.89420000  0.85990000  1.0 0.1212068897
H  H185  1  0.85710000  0.21080000  0.05990000  1.0 0.129149934
H  H186  1  0.14290000  0.71080000  0.44010000  1.0 0.129149934
H  H187  1  0.14290000  0.78920000  0.94010000  1.0 0.129149934
H  H188  1  0.85710000  0.28920000  0.55990000  1.0 0.129149934
H  H189  1  0.74160000  0.17720000  0.08900000  1.0 0.1104281436
H  H190  1  0.25840000  0.67720000  0.41100000  1.0 0.1104281436
H  H191  1  0.25840000  0.82280000  0.91100000  1.0 0.1104281436
H  H192  1  0.74160000  0.32280000  0.58900000  1.0 0.1104281436
H  H193  1  0.65030000  0.28570000  0.14250000  1.0 0.1402682203
H  H194  1  0.34970000  0.78570000  0.35750000  1.0 0.1402682203
H  H195  1  0.34970000  0.71430000  0.85750000  1.0 0.1402682203
H  H196  1  0.65030000  0.21430000  0.64250000  1.0 0.1402682203
H  H197  1  0.68050000  0.34170000  0.10510000  1.0 0.1212068897
H  H198  1  0.31950000  0.84170000  0.39490000  1.0 0.1212068897
H  H199  1  0.31950000  0.65830000  0.89490000  1.0 0.1212068897
H  H200  1  0.68050000  0.15830000  0.60510000  1.0 0.1212068897
H  H201  1  0.01910000  0.56720000  0.37650000  1.0 0.129149934
H  H202  1  0.98090000  0.06720000  0.12350000  1.0 0.129149934
H  H203  1  0.98090000  0.43280000  0.62350000  1.0 0.129149934
H  H204  1  0.01910000  0.93280000  0.87650000  1.0 0.129149934
H  H205  1  0.04630000  0.57400000  0.30000000  1.0 0.1212068897
H  H206  1  0.95370000  0.07400000  0.20000000  1.0 0.1212068897
H  H207  1  0.95370000  0.42600000  0.70000000  1.0 0.1212068897
H  H208  1  0.04630000  0.92600000  0.80000000  1.0 0.1212068897
C  C1  1  0.37320000  0.33510000  0.05090000  1.0 -0.1081678284
C  C2  1  0.62680000  0.83510000  0.44910000  1.0 -0.1081678284
C  C3  1  0.62680000  0.66490000  0.94910000  1.0 -0.1081678284
C  C4  1  0.37320000  0.16490000  0.55090000  1.0 -0.1081678284
C  C5  1  0.34780000  0.36840000  0.10940000  1.0 -0.1703510983
C  C6  1  0.65220000  0.86840000  0.39060000  1.0 -0.1703510983
C  C7  1  0.65220000  0.63160000  0.89060000  1.0 -0.1703510983
C  C8  1  0.34780000  0.13160000  0.60940000  1.0 -0.1703510983
C  C9  1  0.78010000  0.25370000  0.20640000  1.0 0.0692702784
C  C10  1  0.21990000  0.75370000  0.29360000  1.0 0.0692702784
C  C11  1  0.21990000  0.74630000  0.79360000  1.0 0.0692702784
C  C12  1  0.78010000  0.24630000  0.70640000  1.0 0.0692702784
C  C13  1  0.91210000  0.42170000  0.31400000  1.0 0.1402682203
C  C14  1  0.08790000  0.92170000  0.18600000  1.0 0.1402682203
C  C15  1  0.08790000  0.57830000  0.68600000  1.0 0.1402682203
C  C16  1  0.91210000  0.07830000  0.81400000  1.0 0.1402682203
C  C17  1  0.93700000  0.46970000  0.35270000  1.0 0.0692702784
C  C18  1  0.06300000  0.96970000  0.14730000  1.0 0.0692702784
C  C19  1  0.06300000  0.53030000  0.64730000  1.0 0.0692702784
C  C20  1  0.93700000  0.03030000  0.85270000  1.0 0.0692702784
C  C21  1  0.64310000  0.36000000  0.20300000  1.0 0.090900902
C  C22  1  0.35690000  0.86000000  0.29700000  1.0 0.090900902
C  C23  1  0.35690000  0.64000000  0.79700000  1.0 0.090900902
C  C24  1  0.64310000  0.14000000  0.70300000  1.0 0.090900902
C  C25  1  0.12070000  0.52660000  0.36340000  1.0 0.090900902
C  C26  1  0.87930000  0.02660000  0.13660000  1.0 0.090900902
C  C27  1  0.87930000  0.47340000  0.63660000  1.0 0.090900902
C  C28  1  0.12070000  0.97340000  0.86340000  1.0 0.090900902
C  C29  1  0.82290000  0.33590000  0.16280000  1.0 0.2762509228
C  C30  1  0.17710000  0.83590000  0.33720000  1.0 0.2762509228
C  C31  1  0.17710000  0.66410000  0.83720000  1.0 0.2762509228
C  C32  1  0.82290000  0.16410000  0.66280000  1.0 0.2762509228
C  C33  1  0.00000000  0.46580000  0.25740000  1.0 0.2712291495
C  C34  1  0.00000000  0.96580000  0.24260000  1.0 0.2712291495
C  C35  1  0.00000000  0.53420000  0.74260000  1.0 0.2712291495
C  C36  1  0.00000000  0.03420000  0.75740000  1.0 0.2712291495
C  C37  1  0.68880000  0.23060000  0.93780000  1.0 -0.0993928779
C  C38  1  0.31120000  0.73060000  0.56220000  1.0 -0.0993928779
C  C39  1  0.31120000  0.76940000  0.06220000  1.0 -0.0993928779
C  C40  1  0.68880000  0.26940000  0.43780000  1.0 -0.0993928779
C  C41  1  0.60790000  0.17160000  0.01850000  1.0 0.5610218734
C  C42  1  0.39210000  0.67160000  0.48150000  1.0 0.5610218734
C  C43  1  0.39210000  0.82840000  0.98150000  1.0 0.5610218734
C  C44  1  0.60790000  0.32840000  0.51850000  1.0 0.5610218734
C  C45  1  0.73740000  0.20600000  0.22980000  1.0 -0.1703510983
C  C46  1  0.26260000  0.70600000  0.27020000  1.0 -0.1703510983
C  C47  1  0.26260000  0.79400000  0.77020000  1.0 -0.1703510983
C  C48  1  0.73740000  0.29400000  0.72980000  1.0 -0.1703510983
C  C49  1  0.90000000  0.21010000  0.24940000  1.0 -0.1961311458
C  C50  1  0.10000000  0.71010000  0.25060000  1.0 -0.1961311458
C  C51  1  0.10000000  0.78990000  0.75060000  1.0 -0.1961311458
C  C52  1  0.90000000  0.28990000  0.74940000  1.0 -0.1961311458
C  C53  1  0.25130000  0.55130000  0.39110000  1.0 -0.0800318736
C  C54  1  0.74870000  0.05130000  0.10890000  1.0 -0.0800318736
C  C55  1  0.74870000  0.44870000  0.60890000  1.0 -0.0800318736
C  C56  1  0.25130000  0.94870000  0.89110000  1.0 -0.0800318736
C  C57  1  0.19710000  0.32160000  0.29390000  1.0 0.0692702784
C  C58  1  0.80290000  0.82160000  0.20610000  1.0 0.0692702784
C  C59  1  0.80290000  0.67840000  0.70610000  1.0 0.0692702784
C  C60  1  0.19710000  0.17840000  0.79390000  1.0 0.0692702784
C  C61  1  0.90320000  0.36190000  0.03100000  1.0 -0.2472698468
C  C62  1  0.09680000  0.86190000  0.46900000  1.0 -0.2386639096
C  C63  1  0.09680000  0.63810000  0.96900000  1.0 -0.2472698468
C  C64  1  0.90320000  0.13810000  0.53100000  1.0 -0.2472698468
C  C65  1  0.95620000  0.31250000  0.03890000  1.0 0.2628184647
C  C66  1  0.04380000  0.81250000  0.46110000  1.0 0.2628184647
C  C67  1  0.04380000  0.68750000  0.96110000  1.0 0.2628184647
C  C68  1  0.95620000  0.18750000  0.53890000  1.0 0.2628184647
C  C69  1  0.75810000  0.25090000  0.91870000  1.0 -0.1703510983
C  C70  1  0.24190000  0.75090000  0.58130000  1.0 -0.1703510983
C  C71  1  0.24190000  0.74910000  0.08130000  1.0 -0.1703510983
C  C72  1  0.75810000  0.24910000  0.41870000  1.0 -0.1703510983
C  C73  1  0.21210000  0.45060000  0.39900000  1.0 -0.0993928779
C  C74  1  0.78790000  0.95060000  0.10100000  1.0 -0.0993928779
C  C75  1  0.78790000  0.54940000  0.60100000  1.0 -0.0993928779
C  C76  1  0.21210000  0.04940000  0.89900000  1.0 -0.0993928779
C  C77  1  0.01130000  0.22750000  0.02200000  1.0 0.0575521157
C  C78  1  0.98870000  0.72750000  0.47800000  1.0 0.0575521157
C  C79  1  0.98870000  0.77250000  0.97800000  1.0 0.0575521157
C  C80  1  0.01130000  0.27250000  0.52200000  1.0 0.0575521157
C  C81  1  0.31670000  0.34460000  0.16250000  1.0 0.0786193532
C  C82  1  0.68330000  0.84460000  0.33750000  1.0 0.0786193532
C  C83  1  0.68330000  0.65540000  0.83750000  1.0 0.0786193532
C  C84  1  0.31670000  0.15540000  0.66250000  1.0 0.0786193532
C  C85  1  0.14250000  0.37040000  0.20410000  1.0 0.2712291495
C  C86  1  0.85750000  0.87040000  0.29590000  1.0 0.2712291495
C  C87  1  0.85750000  0.62960000  0.79590000  1.0 0.2712291495
C  C88  1  0.14250000  0.12960000  0.70410000  1.0 0.2712291495
C  C89  1  0.90760000  0.48370000  0.41780000  1.0 -0.1891829729
C  C90  1  0.09240000  0.98370000  0.08220000  1.0 -0.1891829729
C  C91  1  0.09240000  0.51630000  0.58220000  1.0 -0.1891829729
C  C92  1  0.90760000  0.01630000  0.91780000  1.0 -0.1891829729
C  C93  1  0.05530000  0.47970000  0.20290000  1.0 -0.2386639096
C  C94  1  0.94470000  0.97970000  0.29710000  1.0 -0.2386639096
C  C95  1  0.94470000  0.52030000  0.79710000  1.0 -0.2386639096
C  C96  1  0.05530000  0.02030000  0.70290000  1.0 -0.2386639096
C  C97  1  0.01560000  0.45730000  0.07930000  1.0 -0.1610293778
C  C98  1  0.98440000  0.95730000  0.42070000  1.0 -0.1610293778
C  C99  1  0.98440000  0.54270000  0.92070000  1.0 -0.1610293778
C  C100  1  0.01560000  0.04270000  0.57930000  1.0 -0.1610293778
C  C101  1  0.35090000  0.47530000  0.42430000  1.0 0.5893855185
C  C102  1  0.64910000  0.97530000  0.07570000  1.0 0.5893855185
C  C103  1  0.64910000  0.52470000  0.57570000  1.0 0.5893855185
C  C104  1  0.35090000  0.02470000  0.92430000  1.0 0.5893855185
C  C105  1  0.11900000  0.30960000  0.28740000  1.0 0.1469292718
C  C106  1  0.88100000  0.80960000  0.21260000  1.0 0.1469292718
C  C107  1  0.88100000  0.69040000  0.71260000  1.0 0.1469292718
C  C108  1  0.11900000  0.19040000  0.78740000  1.0 0.1469292718
C  C109  1  0.13790000  0.46730000  0.37830000  1.0 -0.1775288119
C  C110  1  0.86210000  0.96730000  0.12170000  1.0 -0.1775288119
C  C111  1  0.86210000  0.53270000  0.62170000  1.0 -0.1775288119
C  C112  1  0.13790000  0.03270000  0.87830000  1.0 -0.1775288119
C  C113  1  0.85720000  0.16360000  0.27150000  1.0 -0.1491465195
C  C114  1  0.14280000  0.66360000  0.22850000  1.0 -0.1491465195
C  C115  1  0.14280000  0.83640000  0.72850000  1.0 -0.1491465195
C  C116  1  0.85720000  0.33640000  0.77150000  1.0 -0.1491465195
C  C117  1  0.28550000  0.38280000  0.21940000  1.0 -0.1491465195
C  C118  1  0.71450000  0.88280000  0.28060000  1.0 -0.1491465195
C  C119  1  0.71450000  0.61720000  0.78060000  1.0 -0.1491465195
C  C120  1  0.28550000  0.11720000  0.71940000  1.0 -0.1491465195
C  C121  1  0.82350000  0.39990000  0.39890000  1.0 -0.0993928779
C  C122  1  0.17650000  0.89990000  0.10110000  1.0 -0.0993928779
C  C123  1  0.17650000  0.60010000  0.60110000  1.0 -0.0993928779
C  C124  1  0.82350000  0.10010000  0.89890000  1.0 -0.0993928779
C  C125  1  0.10060000  0.22430000  0.12200000  1.0 -0.1491465195
C  C126  1  0.89940000  0.72430000  0.37800000  1.0 -0.1491465195
C  C127  1  0.89940000  0.77570000  0.87800000  1.0 -0.1491465195
C  C128  1  0.10060000  0.27570000  0.62200000  1.0 -0.1491465195
C  C129  1  0.77830000  0.16220000  0.26320000  1.0 -0.09047715
C  C130  1  0.22170000  0.66220000  0.23680000  1.0 -0.09047715
C  C131  1  0.22170000  0.83780000  0.73680000  1.0 -0.09047715
C  C132  1  0.77830000  0.33780000  0.76320000  1.0 -0.09047715
C  C133  1  0.89950000  0.25790000  0.93700000  1.0 -0.1610293778
C  C134  1  0.10050000  0.75790000  0.56300000  1.0 -0.1610293778
C  C135  1  0.10050000  0.74210000  0.06300000  1.0 -0.1610293778
C  C136  1  0.89950000  0.24210000  0.43700000  1.0 -0.1610293778
C  C137  1  0.85080000  0.44800000  0.43860000  1.0 -0.09047715
C  C138  1  0.14920000  0.94800000  0.06140000  1.0 -0.09047715
C  C139  1  0.14920000  0.55200000  0.56140000  1.0 -0.09047715
C  C140  1  0.85080000  0.05200000  0.93860000  1.0 -0.09047715
C  C141  1  0.61950000  0.38610000  0.32210000  1.0 -0.0800318736
C  C142  1  0.38050000  0.88610000  0.17790000  1.0 -0.0800318736
C  C143  1  0.38050000  0.61390000  0.67790000  1.0 -0.0800318736
C  C144  1  0.61950000  0.11390000  0.82210000  1.0 -0.0800318736
C  C145  1  0.53560000  0.46930000  0.35220000  1.0 0.6061226816
C  C146  1  0.46440000  0.96930000  0.14780000  1.0 0.6049283237
C  C147  1  0.46440000  0.53070000  0.64780000  1.0 0.6049283237
C  C148  1  0.53560000  0.03070000  0.85220000  1.0 0.6061226816
C  C149  1  0.12930000  0.40850000  0.14110000  1.0 -0.2386639096
C  C150  1  0.87070000  0.90850000  0.35890000  1.0 -0.2386639096
C  C151  1  0.87070000  0.59150000  0.85890000  1.0 -0.2344143003
C  C152  1  0.12930000  0.09150000  0.64110000  1.0 -0.2386639096
C  C153  1  0.59470000  0.40470000  0.17940000  1.0 -0.1703510983
C  C154  1  0.40530000  0.90470000  0.32060000  1.0 -0.1703510983
C  C155  1  0.40530000  0.59530000  0.82060000  1.0 -0.1703510983
C  C156  1  0.59470000  0.09530000  0.67940000  1.0 -0.1703510983
C  C157  1  0.37040000  0.27740000  0.05180000  1.0 -0.0310709243
C  C158  1  0.62960000  0.77740000  0.44820000  1.0 -0.0310709243
C  C159  1  0.62960000  0.72260000  0.94820000  1.0 -0.0310709243
C  C160  1  0.37040000  0.22260000  0.55180000  1.0 -0.0310709243
C  C161  1  0.03640000  0.17250000  0.99690000  1.0 -0.1775288119
C  C162  1  0.96360000  0.67250000  0.50310000  1.0 -0.1775288119
C  C163  1  0.96360000  0.82750000  0.00310000  1.0 -0.1775288119
C  C164  1  0.03640000  0.32750000  0.49690000  1.0 -0.1775288119
C  C165  1  0.65450000  0.35150000  0.27370000  1.0 -0.1610293778
C  C166  1  0.34550000  0.85150000  0.22630000  1.0 -0.1610293778
C  C167  1  0.34550000  0.64850000  0.72630000  1.0 -0.1610293778
C  C168  1  0.65450000  0.14850000  0.77370000  1.0 -0.1610293778
C  C169  1  0.08800000  0.27150000  0.33520000  1.0 -0.1891829729
C  C170  1  0.91200000  0.77150000  0.16480000  1.0 -0.1891829729
C  C171  1  0.91200000  0.72850000  0.66480000  1.0 -0.1891829729
C  C172  1  0.08800000  0.22850000  0.83520000  1.0 -0.1891829729
C  C173  1  0.13460000  0.24660000  0.38570000  1.0 -0.1081678284
C  C174  1  0.86540000  0.74660000  0.11430000  1.0 -0.1081678284
C  C175  1  0.86540000  0.75340000  0.61430000  1.0 -0.1081678284
C  C176  1  0.13460000  0.25340000  0.88570000  1.0 -0.1081678284
C  C177  1  0.55760000  0.43900000  0.22930000  1.0 -0.09047715
C  C178  1  0.44240000  0.93900000  0.27070000  1.0 -0.09047715
C  C179  1  0.44240000  0.56100000  0.77070000  1.0 -0.09047715
C  C180  1  0.55760000  0.06100000  0.72930000  1.0 -0.09047715
C  C181  1  0.24510000  0.29560000  0.34590000  1.0 -0.1610293778
C  C182  1  0.75490000  0.79560000  0.15410000  1.0 -0.1610293778
C  C183  1  0.75490000  0.70440000  0.65410000  1.0 -0.1610293778
C  C184  1  0.24510000  0.20440000  0.84590000  1.0 -0.1610293778
C  C185  1  0.12560000  0.17160000  0.09830000  1.0 -0.09047715
C  C186  1  0.87440000  0.67160000  0.40170000  1.0 -0.09047715
C  C187  1  0.87440000  0.82840000  0.90170000  1.0 -0.09047715
C  C188  1  0.12560000  0.32840000  0.59830000  1.0 -0.09047715
C  C189  1  0.09340000  0.14630000  0.03430000  1.0 -0.0993928779
C  C190  1  0.90660000  0.64630000  0.46570000  1.0 -0.0993928779
C  C191  1  0.90660000  0.85370000  0.96570000  1.0 -0.0993928779
C  C192  1  0.09340000  0.35370000  0.53430000  1.0 -0.0993928779
C  C193  1  0.39820000  0.23980000  0.99360000  1.0 0.5531360598
C  C194  1  0.60180000  0.73980000  0.50640000  1.0 0.5531360598
C  C195  1  0.60180000  0.76020000  0.00640000  1.0 0.5531360598
C  C196  1  0.39820000  0.26020000  0.49360000  1.0 0.5531360598
C  C197  1  0.33800000  0.25400000  0.10520000  1.0 -0.0993928779
C  C198  1  0.66200000  0.75400000  0.39480000  1.0 -0.0993928779
C  C199  1  0.66200000  0.74600000  0.89480000  1.0 -0.0993928779
C  C200  1  0.33800000  0.24600000  0.60520000  1.0 -0.0993928779
C  C201  1  0.31160000  0.28810000  0.15840000  1.0 -0.1703510983
C  C202  1  0.68840000  0.78810000  0.34160000  1.0 -0.1703510983
C  C203  1  0.68840000  0.71190000  0.84160000  1.0 -0.1703510983
C  C204  1  0.31160000  0.21190000  0.65840000  1.0 -0.1703510983
C  C205  1  0.21130000  0.25780000  0.39020000  1.0 -0.0800318736
C  C206  1  0.78870000  0.75780000  0.10980000  1.0 -0.0800318736
C  C207  1  0.78870000  0.74220000  0.60980000  1.0 -0.0800318736
C  C208  1  0.21130000  0.24220000  0.89020000  1.0 -0.09047715
C  C209  1  0.86000000  0.25610000  0.21610000  1.0 0.129149934
C  C210  1  0.14000000  0.75610000  0.28390000  1.0 0.129149934
C  C211  1  0.14000000  0.74390000  0.78390000  1.0 0.129149934
C  C212  1  0.86000000  0.24390000  0.71610000  1.0 0.129149934
C  C213  1  0.93060000  0.45830000  0.08560000  1.0 -0.1491465195
C  C214  1  0.06940000  0.95830000  0.41440000  1.0 -0.1491465195
C  C215  1  0.06940000  0.54170000  0.91440000  1.0 -0.1491465195
C  C216  1  0.93060000  0.04170000  0.58560000  1.0 -0.1491465195
C  C217  1  0.82700000  0.39520000  0.12830000  1.0 -0.2169808506
C  C218  1  0.17300000  0.89520000  0.37170000  1.0 -0.2169808506
C  C219  1  0.17300000  0.60480000  0.87170000  1.0 -0.2169808506
C  C220  1  0.82700000  0.10480000  0.62830000  1.0 -0.2169808506
C  C221  1  0.85540000  0.38540000  0.33650000  1.0 -0.1610293778
C  C222  1  0.14460000  0.88540000  0.16350000  1.0 -0.1610293778
C  C223  1  0.14460000  0.61460000  0.66350000  1.0 -0.1610293778
C  C224  1  0.85540000  0.11460000  0.83650000  1.0 -0.1610293778
C  C225  1  0.26940000  0.49330000  0.40350000  1.0 -0.0224839295
C  C226  1  0.73060000  0.99330000  0.09650000  1.0 -0.0224839295
C  C227  1  0.73060000  0.50670000  0.59650000  1.0 -0.0224839295
C  C228  1  0.26940000  0.00670000  0.90350000  1.0 -0.0224839295
C  C229  1  0.82330000  0.24160000  0.96120000  1.0 0.090900902
C  C230  1  0.17670000  0.74160000  0.53880000  1.0 0.090900902
C  C231  1  0.17670000  0.75840000  0.03880000  1.0 0.090900902
C  C232  1  0.82330000  0.25840000  0.46120000  1.0 0.090900902
C  C233  1  0.17810000  0.56670000  0.37000000  1.0 -0.1610293778
C  C234  1  0.82190000  0.06670000  0.13000000  1.0 -0.1610293778
C  C235  1  0.82190000  0.43330000  0.63000000  1.0 -0.1610293778
C  C236  1  0.17810000  0.93330000  0.87000000  1.0 -0.1610293778
C  C237  1  0.81510000  0.21480000  0.02840000  1.0 -0.1610293778
C  C238  1  0.18490000  0.71480000  0.47160000  1.0 -0.1610293778
C  C239  1  0.18490000  0.78520000  0.97160000  1.0 -0.1610293778
C  C240  1  0.81510000  0.28520000  0.52840000  1.0 -0.1610293778
C  C241  1  0.04350000  0.25300000  0.08210000  1.0 0.1402682203
C  C242  1  0.95650000  0.75300000  0.41790000  1.0 0.1402682203
C  C243  1  0.95650000  0.74700000  0.91790000  1.0 0.1402682203
C  C244  1  0.04350000  0.24700000  0.58210000  1.0 0.1402682203
C  C245  1  0.74600000  0.19540000  0.04570000  1.0 -0.09047715
C  C246  1  0.25400000  0.69540000  0.45430000  1.0 -0.09047715
C  C247  1  0.25400000  0.80460000  0.95430000  1.0 -0.09047715
C  C248  1  0.74600000  0.30460000  0.54570000  1.0 -0.09047715
C  C249  1  0.68160000  0.20160000  0.00140000  1.0 -0.0310709243
C  C250  1  0.31840000  0.70160000  0.49860000  1.0 -0.0310709243
C  C251  1  0.31840000  0.79840000  0.99860000  1.0 -0.0310709243
C  C252  1  0.68160000  0.29840000  0.50140000  1.0 -0.0310709243
C  C253  1  0.57190000  0.43040000  0.29890000  1.0 -0.0310709243
C  C254  1  0.42810000  0.93040000  0.20110000  1.0 -0.0310709243
C  C255  1  0.42810000  0.56960000  0.70110000  1.0 -0.0310709243
C  C256  1  0.57190000  0.06960000  0.79890000  1.0 -0.0310709243
C  C257  1  0.68050000  0.32110000  0.14970000  1.0 -0.1491465195
C  C258  1  0.31950000  0.82110000  0.35030000  1.0 -0.1491465195
C  C259  1  0.31950000  0.67890000  0.85030000  1.0 -0.1491465195
C  C260  1  0.68050000  0.17890000  0.64970000  1.0 -0.1491465195
C  C261  1  0.04210000  0.54660000  0.33860000  1.0 -0.1610293778
C  C262  1  0.95790000  0.04660000  0.16140000  1.0 -0.1610293778
C  C263  1  0.95790000  0.45340000  0.66140000  1.0 -0.1610293778
C  C264  1  0.04210000  0.95340000  0.83860000  1.0 -0.1610293778
N  N1  1  0.99230000  0.49780000  0.31520000  1.0 -0.0623787073
N  N2  1  0.00770000  0.99780000  0.18480000  1.0 -0.0623787073
N  N3  1  0.00770000  0.50220000  0.68480000  1.0 -0.0623787073
N  N4  1  0.99230000  0.00220000  0.81520000  1.0 -0.0623787073
N  N5  1  0.75770000  0.30490000  0.17110000  1.0 -0.0713450018
N  N6  1  0.24230000  0.80490000  0.32890000  1.0 -0.0713450018
N  N7  1  0.24230000  0.69510000  0.82890000  1.0 -0.0713450018
N  N8  1  0.75770000  0.19510000  0.67110000  1.0 -0.0713450018
N  N9  1  0.88450000  0.30950000  0.18860000  1.0 -0.3808602899
N  N10  1  0.11550000  0.80950000  0.31140000  1.0 -0.3808602899
N  N11  1  0.11550000  0.69050000  0.81140000  1.0 -0.3808602899
N  N12  1  0.88450000  0.19050000  0.68860000  1.0 -0.3808602899
N  N13  1  0.90240000  0.39760000  0.09690000  1.0 -0.0122447662
N  N14  1  0.09760000  0.89760000  0.40310000  1.0 -0.0122447662
N  N15  1  0.09760000  0.60240000  0.90310000  1.0 -0.0122447662
N  N16  1  0.90240000  0.10240000  0.59690000  1.0 -0.0122447662
N  N17  1  0.95640000  0.26710000  0.99450000  1.0 -0.0623787073
N  N18  1  0.04360000  0.76710000  0.50550000  1.0 -0.0623787073
N  N19  1  0.04360000  0.73290000  0.00550000  1.0 -0.0623787073
N  N20  1  0.95640000  0.23290000  0.49450000  1.0 -0.0623787073
N  N21  1  0.05230000  0.43380000  0.14670000  1.0 -0.0122447662
N  N22  1  0.94770000  0.93380000  0.35330000  1.0 -0.0122447662
N  N23  1  0.94770000  0.56620000  0.85330000  1.0 -0.0122447662
N  N24  1  0.05230000  0.06620000  0.64670000  1.0 -0.0224839295
N  N25  1  0.95310000  0.41950000  0.25250000  1.0 -0.4044005185
N  N26  1  0.04690000  0.91950000  0.24750000  1.0 -0.4056973963
N  N27  1  0.04690000  0.58050000  0.74750000  1.0 -0.4056973963
N  N28  1  0.95310000  0.08050000  0.75250000  1.0 -0.4044005185
N  N29  1  0.00730000  0.30630000  0.09260000  1.0 -0.3869292199
N  N30  1  0.99270000  0.80630000  0.40740000  1.0 -0.3869292199
N  N31  1  0.99270000  0.69370000  0.90740000  1.0 -0.3869292199
N  N32  1  0.00730000  0.19370000  0.59260000  1.0 -0.3869292199
N  N33  1  0.21070000  0.36120000  0.24010000  1.0 -0.0623787073
N  N34  1  0.78930000  0.86120000  0.25990000  1.0 -0.0623787073
N  N35  1  0.78930000  0.63880000  0.75990000  1.0 -0.0623787073
N  N36  1  0.21070000  0.13880000  0.74010000  1.0 -0.0623787073
N  N37  1  0.08640000  0.34060000  0.23130000  1.0 -0.3869292199
N  N38  1  0.91360000  0.84060000  0.26870000  1.0 -0.3869292199
N  N39  1  0.91360000  0.65940000  0.76870000  1.0 -0.3869292199
N  N40  1  0.08640000  0.15940000  0.73130000  1.0 -0.3869292199
N  N41  1  0.95780000  0.60930000  0.11720000  1.0 0.4898485759
N  N42  1  0.04220000  0.10930000  0.38280000  1.0 0.4898485759
N  N43  1  0.04220000  0.39070000  0.88280000  1.0 0.4825188608
N  N44  1  0.95780000  0.89070000  0.61720000  1.0 0.4898485759
O  O1  1  0.52980000  0.45000000  0.41400000  1.0 -0.5616701006
O  O2  1  0.47020000  0.95000000  0.08600000  1.0 -0.5616701006
O  O3  1  0.47020000  0.55000000  0.58600000  1.0 -0.5616701006
O  O4  1  0.52980000  0.05000000  0.91400000  1.0 -0.5616701006
O  O5  1  0.46910000  0.42233000  0.53890000  1.0 -0.8174775898
O  O6  1  0.53090000  0.92233000  0.96110000  1.0 -0.8174775898
O  O7  1  0.53090000  0.57767000  0.46110000  1.0 -0.8174775898
O  O8  1  0.46910000  0.07767000  0.03890000  1.0 -0.8174775898
O  O9  1  0.44840000  0.32750000  0.35560000  1.0 -0.1891829729
O  O10  1  0.55160000  0.82750000  0.14440000  1.0 -0.1891829729
O  O11  1  0.55160000  0.67250000  0.64440000  1.0 -0.1891829729
O  O12  1  0.44840000  0.17250000  0.85560000  1.0 -0.1891829729
O  O13  1  0.51270000  0.51880000  0.33020000  1.0 -0.5127012639
O  O14  1  0.48730000  0.01880000  0.16980000  1.0 -0.5127012639
O  O15  1  0.48730000  0.48120000  0.66980000  1.0 -0.5127012639
O  O16  1  0.51270000  0.98120000  0.83020000  1.0 -0.5127012639
O  O17  1  0.40000000  0.18650000  0.00170000  1.0 -0.4776781335
O  O18  1  0.60000000  0.68650000  0.49830000  1.0 -0.4776781335
O  O19  1  0.60000000  0.81350000  0.99830000  1.0 -0.4776781335
O  O20  1  0.40000000  0.31350000  0.50170000  1.0 -0.4776781335
O  O21  1  0.60930000  0.40700000  0.71050000  1.0 -0.529348953
O  O22  1  0.39070000  0.90700000  0.78950000  1.0 -0.529348953
O  O23  1  0.39070000  0.59300000  0.28950000  1.0 -0.529348953
O  O24  1  0.60930000  0.09300000  0.21050000  1.0 -0.529348953
O  O25  1  0.47030000  0.35350000  0.66170000  1.0 -0.1703510983
O  O26  1  0.52970000  0.85350000  0.83830000  1.0 -0.1703510983
O  O27  1  0.52970000  0.64650000  0.33830000  1.0 -0.1703510983
O  O28  1  0.47030000  0.14650000  0.16170000  1.0 -0.1703510983
O  O29  1  0.36550000  0.42140000  0.42000000  1.0 -0.5127012639
O  O30  1  0.63450000  0.92140000  0.08000000  1.0 -0.5127012639
O  O31  1  0.63450000  0.57860000  0.58000000  1.0 -0.5127012639
O  O32  1  0.36550000  0.07860000  0.92000000  1.0 -0.5127012639
O  O33  1  0.39740000  0.51540000  0.44250000  1.0 -0.5739872366
O  O34  1  0.60260000  0.01540000  0.05750000  1.0 -0.5739872366
O  O35  1  0.60260000  0.48460000  0.55750000  1.0 -0.5739872366
O  O36  1  0.39740000  0.98460000  0.94250000  1.0 -0.5739872366
O  O37  1  0.55640000  0.17040000  0.96940000  1.0 -0.5127012639
O  O38  1  0.44360000  0.67040000  0.53060000  1.0 -0.5127012639
O  O39  1  0.44360000  0.82960000  0.03060000  1.0 -0.5127012639
O  O40  1  0.55640000  0.32960000  0.46940000  1.0 -0.5127012639
O  O41  1  0.60440000  0.14970000  0.07880000  1.0 -0.529348953
O  O42  1  0.39560000  0.64970000  0.42120000  1.0 -0.529348953
O  O43  1  0.39560000  0.85030000  0.92120000  1.0 -0.529348953
O  O44  1  0.60440000  0.35030000  0.57880000  1.0 -0.529348953
O  O45  1  0.41410000  0.26410000  0.93720000  1.0 -0.4776781335
O  O46  1  0.58590000  0.76410000  0.56280000  1.0 -0.4776781335
O  O47  1  0.58590000  0.73590000  0.06280000  1.0 -0.4776781335
O  O48  1  0.41410000  0.23590000  0.43720000  1.0 -0.4776781335
O  O49  1  0.90430000  0.60420000  0.07510000  1.0 -0.2654462516
O  O50  1  0.92540000  0.59510000  0.17020000  1.0 -0.2472698468
O  O51  1  0.01130000  0.61700000  0.11500000  1.0 -0.2472698468
O  O52  1  0.09570000  0.10420000  0.42490000  1.0 -0.2631798892
O  O53  1  0.07460000  0.09510000  0.32980000  1.0 -0.2386639096
O  O54  1  0.98870000  0.11700000  0.38500000  1.0 -0.2472698468
O  O55  1  0.09570000  0.39580000  0.92490000  1.0 -0.2631798892
O  O56  1  0.07460000  0.40490000  0.82980000  1.0 -0.2386639096
O  O57  1  0.98870000  0.38300000  0.88500000  1.0 -0.2472698468
O  O58  1  0.90430000  0.89580000  0.57510000  1.0 -0.2654462516
O  O59  1  0.92540000  0.90490000  0.67020000  1.0 -0.2386639096
O  O60  1  0.01130000  0.88300000  0.61500000  1.0 -0.2472698468
