# DDEC6 charges by PACMAN v1.1 (https://github.com/mtap-research/PACMAN-charge/)
data_INECIP_ASR_pacman
_symmetry_space_group_name_H-M   'P 1'
_cell_length_a   20.67120000
_cell_length_b   21.03860000
_cell_length_c   21.62810000
_cell_angle_alpha   62.47700000
_cell_angle_beta   79.55800000
_cell_angle_gamma   67.08600000
_symmetry_Int_Tables_number   1
_chemical_formula_structural   Pr2H107C106N12O13
_chemical_formula_sum   'Pr4 H214 C212 N24 O26'
_cell_volume   7683.17384806
_cell_formula_units_Z   2
loop_
 _symmetry_equiv_pos_site_id
 _symmetry_equiv_pos_as_xyz
  1  'x, y, z'
loop_
 _atom_site_type_symbol
 _atom_site_label
 _atom_site_symmetry_multiplicity
 _atom_site_fract_x
 _atom_site_fract_y
 _atom_site_fract_z
 _atom_site_occupancy
 _atom_site_charge
Pr  Pr1  1  0.63163000  0.45980000  0.88764000  1.0 2.081443863
Pr  Pr2  1  0.36837000  0.54020000  0.11236000  1.0 2.081443863
Pr  Pr3  1  0.45233000  0.60465000  0.92593000  1.0 2.0188087988
Pr  Pr4  1  0.54767000  0.39535000  0.07407000  1.0 2.0188087988
H  H1  1  0.89790000  0.50970000  0.50610000  1.0 0.2816693771
H  H2  1  0.10210000  0.49030000  0.49390000  1.0 0.2816693771
H  H3  1  0.00080000  0.43090000  0.59410000  1.0 0.2816693771
H  H4  1  0.99920000  0.56910000  0.40590000  1.0 0.2816693771
H  H5  1  0.88900000  0.48170000  0.34030000  1.0 0.1394439728
H  H6  1  0.11100000  0.51830000  0.65970000  1.0 0.1394439728
H  H7  1  0.91220000  0.35390000  0.44590000  1.0 0.1394439728
H  H8  1  0.08780000  0.64610000  0.55410000  1.0 0.1394439728
H  H9  1  0.05930000  0.22440000  0.60440000  1.0 0.1310959777
H  H10  1  0.94070000  0.77560000  0.39560000  1.0 0.1310959777
H  H11  1  0.16650000  0.24360000  0.62480000  1.0 0.1310959777
H  H12  1  0.83350000  0.75640000  0.37520000  1.0 0.1310959777
H  H13  1  0.86880000  0.28970000  0.58460000  1.0 0.1310959777
H  H14  1  0.13120000  0.71030000  0.41540000  1.0 0.1310959777
H  H15  1  0.93540000  0.23940000  0.63540000  1.0 0.1310959777
H  H16  1  0.06460000  0.76060000  0.36460000  1.0 0.1310959777
H  H17  1  0.94580000  0.26320000  0.55350000  1.0 0.1206192859
H  H18  1  0.05420000  0.73680000  0.44650000  1.0 0.1206192859
H  H19  1  0.23740000  0.30100000  0.63940000  1.0 0.1310959777
H  H20  1  0.76260000  0.69900000  0.36060000  1.0 0.1310959777
H  H21  1  0.24330000  0.38310000  0.61360000  1.0 0.1310959777
H  H22  1  0.75670000  0.61690000  0.38640000  1.0 0.1310959777
H  H23  1  0.21970000  0.36310000  0.56020000  1.0 0.1310959777
H  H24  1  0.78030000  0.63690000  0.43980000  1.0 0.1310959777
H  H25  1  0.08650000  0.39050000  0.72050000  1.0 0.1310959777
H  H26  1  0.91350000  0.60950000  0.27950000  1.0 0.1310959777
H  H27  1  0.16840000  0.37550000  0.72220000  1.0 0.1310959777
H  H28  1  0.83160000  0.62450000  0.27780000  1.0 0.1310959777
H  H29  1  0.14330000  0.30780000  0.73350000  1.0 0.1310959777
H  H30  1  0.85670000  0.69220000  0.26650000  1.0 0.1310959777
H  H31  1  0.78960000  0.43820000  0.56760000  1.0 0.1098546097
H  H32  1  0.21040000  0.56180000  0.43240000  1.0 0.1098546097
H  H33  1  0.70880000  0.46330000  0.65100000  1.0 0.1206192859
H  H34  1  0.29120000  0.53670000  0.34900000  1.0 0.1206192859
H  H35  1  0.86360000  0.35590000  0.79200000  1.0 0.1206192859
H  H36  1  0.13640000  0.64410000  0.20800000  1.0 0.1206192859
H  H37  1  0.94580000  0.32990000  0.70900000  1.0 0.1098546097
H  H38  1  0.05420000  0.67010000  0.29100000  1.0 0.1098546097
H  H39  1  0.88480000  0.90760000  0.90550000  1.0 0.1310959777
H  H40  1  0.11520000  0.09240000  0.09450000  1.0 0.1310959777
H  H41  1  0.06840000  0.99340000  0.93210000  1.0 0.2816693771
H  H42  1  0.93160000  0.00660000  0.06790000  1.0 0.2816693771
H  H43  1  0.83580000  0.88280000  0.02610000  1.0 0.1310959777
H  H44  1  0.16420000  0.11720000  0.97390000  1.0 0.1310959777
H  H45  1  0.02320000  0.89050000  0.02340000  1.0 0.2816693771
H  H46  1  0.97680000  0.10950000  0.97660000  1.0 0.2816693771
H  H47  1  0.96840000  0.06580000  0.76050000  1.0 0.1310959777
H  H48  1  0.03160000  0.93420000  0.23950000  1.0 0.1310959777
H  H49  1  0.98920000  0.17650000  0.75800000  1.0 0.1310959777
H  H50  1  0.01080000  0.82350000  0.24200000  1.0 0.1310959777
H  H51  1  0.14670000  0.93600000  0.82610000  1.0 0.1206192859
H  H52  1  0.85330000  0.06400000  0.17390000  1.0 0.1206192859
H  H53  1  0.26160000  0.85240000  0.84770000  1.0 0.1310959777
H  H54  1  0.73840000  0.14760000  0.15230000  1.0 0.1310959777
H  H55  1  0.19800000  0.69200000  0.01260000  1.0 0.1394439728
H  H56  1  0.80200000  0.30800000  0.98740000  1.0 0.1394439728
H  H57  1  0.08130000  0.77450000  0.99020000  1.0 0.1206192859
H  H58  1  0.91870000  0.22550000  0.00980000  1.0 0.1206192859
H  H59  1  0.99250000  0.86050000  0.84710000  1.0 0.1310959777
H  H60  1  0.00750000  0.13950000  0.15290000  1.0 0.1310959777
H  H61  1  0.04410000  0.90190000  0.79430000  1.0 0.1310959777
H  H62  1  0.95590000  0.09810000  0.20570000  1.0 0.1310959777
H  H63  1  0.96400000  0.95130000  0.80140000  1.0 0.1098546097
H  H64  1  0.03600000  0.04870000  0.19860000  1.0 0.1098546097
H  H65  1  0.17220000  0.15190000  0.84870000  1.0 0.1310959777
H  H66  1  0.82780000  0.84810000  0.15130000  1.0 0.1310959777
H  H67  1  0.14660000  0.13820000  0.79180000  1.0 0.1310959777
H  H68  1  0.85340000  0.86180000  0.20820000  1.0 0.1310959777
H  H69  1  0.17580000  0.06810000  0.86550000  1.0 0.1310959777
H  H70  1  0.82420000  0.93190000  0.13450000  1.0 0.1310959777
H  H71  1  0.98670000  0.24180000  0.85750000  1.0 0.1310959777
H  H72  1  0.01330000  0.75820000  0.14250000  1.0 0.1310959777
H  H73  1  0.02600000  0.24250000  0.78640000  1.0 0.1206192859
H  H74  1  0.97400000  0.75750000  0.21360000  1.0 0.1206192859
H  H75  1  0.06050000  0.25470000  0.83870000  1.0 0.1394439728
H  H76  1  0.93950000  0.74530000  0.16130000  1.0 0.1394439728
H  H77  1  0.50650000  0.44510000  0.59100000  1.0 0.2816693771
H  H78  1  0.49350000  0.55490000  0.40900000  1.0 0.2816693771
H  H79  1  0.43530000  0.58640000  0.52020000  1.0 0.2816693771
H  H80  1  0.56470000  0.41360000  0.47980000  1.0 0.2816693771
H  H81  1  0.48670000  0.24520000  0.65310000  1.0 0.1310959777
H  H82  1  0.51330000  0.75480000  0.34690000  1.0 0.1310959777
H  H83  1  0.36720000  0.34110000  0.66160000  1.0 0.1310959777
H  H84  1  0.63280000  0.65890000  0.33840000  1.0 0.1310959777
H  H85  1  0.25050000  0.56720000  0.52780000  1.0 0.1310959777
H  H86  1  0.74950000  0.43280000  0.47220000  1.0 0.1310959777
H  H87  1  0.26860000  0.66310000  0.40660000  1.0 0.1310959777
H  H88  1  0.73140000  0.33690000  0.59340000  1.0 0.1310959777
H  H89  1  0.27830000  0.46510000  0.63610000  1.0 0.1206192859
H  H90  1  0.72170000  0.53490000  0.36390000  1.0 0.1206192859
H  H91  1  0.26450000  0.52990000  0.66130000  1.0 0.1394439728
H  H92  1  0.73550000  0.47010000  0.33870000  1.0 0.1394439728
H  H93  1  0.30870000  0.44260000  0.70930000  1.0 0.1394439728
H  H94  1  0.69130000  0.55740000  0.29070000  1.0 0.1394439728
H  H95  1  0.39240000  0.74880000  0.27560000  1.0 0.1394439728
H  H96  1  0.60760000  0.25120000  0.72440000  1.0 0.1394439728
H  H97  1  0.31880000  0.74250000  0.31120000  1.0 0.1394439728
H  H98  1  0.68120000  0.25750000  0.68880000  1.0 0.1394439728
H  H99  1  0.38100000  0.66820000  0.30970000  1.0 0.1394439728
H  H100  1  0.61900000  0.33180000  0.69030000  1.0 0.1394439728
H  H101  1  0.38660000  0.75990000  0.43910000  1.0 0.1310959777
H  H102  1  0.61340000  0.24010000  0.56090000  1.0 0.1310959777
H  H103  1  0.32160000  0.79490000  0.38840000  1.0 0.1310959777
H  H104  1  0.67840000  0.20510000  0.61160000  1.0 0.1310959777
H  H105  1  0.39470000  0.80630000  0.35680000  1.0 0.1206192859
H  H106  1  0.60530000  0.19370000  0.64320000  1.0 0.1206192859
H  H107  1  0.33670000  0.63200000  0.62340000  1.0 0.1206192859
H  H108  1  0.66330000  0.36800000  0.37660000  1.0 0.1206192859
H  H109  1  0.37410000  0.66580000  0.69510000  1.0 0.1310959777
H  H110  1  0.62590000  0.33420000  0.30490000  1.0 0.1310959777
H  H111  1  0.50160000  0.44690000  0.79800000  1.0 0.1206192859
H  H112  1  0.49840000  0.55310000  0.20200000  1.0 0.1206192859
H  H113  1  0.46160000  0.41170000  0.72960000  1.0 0.1206192859
H  H114  1  0.53840000  0.58830000  0.27040000  1.0 0.1206192859
H  H115  1  0.57300000  0.90150000  0.53160000  1.0 0.2816693771
H  H116  1  0.42700000  0.09850000  0.46840000  1.0 0.2816693771
H  H117  1  0.49870000  0.98090000  0.59590000  1.0 0.2816693771
H  H118  1  0.50130000  0.01910000  0.40410000  1.0 0.2816693771
H  H119  1  0.72340000  0.94010000  0.39480000  1.0 0.1394439728
H  H120  1  0.27660000  0.05990000  0.60520000  1.0 0.1394439728
H  H121  1  0.74370000  0.95460000  0.50000000  1.0 0.1310959777
H  H122  1  0.25630000  0.04540000  0.50000000  1.0 0.1310959777
H  H123  1  0.62430000  0.07270000  0.61380000  1.0 0.1310959777
H  H124  1  0.37570000  0.92730000  0.38620000  1.0 0.1310959777
H  H125  1  0.50220000  0.16570000  0.59690000  1.0 0.1310959777
H  H126  1  0.49780000  0.83430000  0.40310000  1.0 0.1310959777
H  H127  1  0.72220000  0.96710000  0.60200000  1.0 0.1206192859
H  H128  1  0.27780000  0.03290000  0.39800000  1.0 0.1206192859
H  H129  1  0.74610000  0.87580000  0.64080000  1.0 0.1206192859
H  H130  1  0.25390000  0.12420000  0.35920000  1.0 0.1206192859
H  H131  1  0.70020000  0.92590000  0.68150000  1.0 0.1310959777
H  H132  1  0.29980000  0.07410000  0.31850000  1.0 0.1310959777
H  H133  1  0.37480000  0.21840000  0.58780000  1.0 0.1310959777
H  H134  1  0.62520000  0.78160000  0.41220000  1.0 0.1310959777
H  H135  1  0.31370000  0.21660000  0.55320000  1.0 0.1310959777
H  H136  1  0.68630000  0.78340000  0.44680000  1.0 0.1310959777
H  H137  1  0.38570000  0.21980000  0.51200000  1.0 0.1310959777
H  H138  1  0.61430000  0.78020000  0.48800000  1.0 0.1310959777
H  H139  1  0.38810000  0.02500000  0.69220000  1.0 0.1310959777
H  H140  1  0.61190000  0.97500000  0.30780000  1.0 0.1310959777
H  H141  1  0.31660000  0.09720000  0.66880000  1.0 0.1206192859
H  H142  1  0.68340000  0.90280000  0.33120000  1.0 0.1310959777
H  H143  1  0.38170000  0.10230000  0.69430000  1.0 0.1310959777
H  H144  1  0.61830000  0.89770000  0.30570000  1.0 0.1310959777
H  H145  1  0.56000000  0.90580000  0.72790000  1.0 0.1206192859
H  H146  1  0.44000000  0.09420000  0.27210000  1.0 0.1206192859
H  H147  1  0.54060000  0.79600000  0.81380000  1.0 0.1206192859
H  H148  1  0.45940000  0.20400000  0.18620000  1.0 0.1206192859
H  H149  1  0.66666667  0.67450000  0.71010000  1.0 0.1310959777
H  H150  1  0.33333333  0.32550000  0.28990000  1.0 0.1310959777
H  H151  1  0.68470000  0.78500000  0.62370000  1.0 0.1206192859
H  H152  1  0.31530000  0.21500000  0.37630000  1.0 0.1206192859
H  H153  1  0.44420000  0.08250000  0.02620000  1.0 0.2816693771
H  H154  1  0.55580000  0.91750000  0.97380000  1.0 0.2816693771
H  H155  1  0.52640000  0.07880000  0.92280000  1.0 0.2816693771
H  H156  1  0.47360000  0.92120000  0.07720000  1.0 0.2816693771
H  H157  1  0.25570000  0.06570000  0.06610000  1.0 0.1310959777
H  H158  1  0.74430000  0.93430000  0.93390000  1.0 0.1310959777
H  H159  1  0.25810000  0.16540000  0.94070000  1.0 0.1310959777
H  H160  1  0.74190000  0.83460000  0.05930000  1.0 0.1310959777
H  H161  1  0.39150000  0.15460000  0.77550000  1.0 0.1310959777
H  H162  1  0.60850000  0.84540000  0.22450000  1.0 0.1310959777
H  H163  1  0.50190000  0.05320000  0.76020000  1.0 0.1310959777
H  H164  1  0.49810000  0.94680000  0.23980000  1.0 0.1310959777
H  H165  1  0.30910000  0.22580000  0.83030000  1.0 0.1310959777
H  H166  1  0.69090000  0.77420000  0.16970000  1.0 0.1310959777
H  H167  1  0.35300000  0.28210000  0.80010000  1.0 0.1394439728
H  H168  1  0.64700000  0.71790000  0.19990000  1.0 0.1394439728
H  H169  1  0.30070000  0.28180000  0.86450000  1.0 0.1394439728
H  H170  1  0.69930000  0.71820000  0.13550000  1.0 0.1394439728
H  H171  1  0.68170000  0.91350000  0.82130000  1.0 0.1394439728
H  H172  1  0.31830000  0.08650000  0.17870000  1.0 0.1394439728
H  H173  1  0.61990000  0.97760000  0.76730000  1.0 0.1310959777
H  H174  1  0.38010000  0.02240000  0.23270000  1.0 0.1310959777
H  H175  1  0.60340000  0.91260000  0.83780000  1.0 0.1310959777
H  H176  1  0.39660000  0.08740000  0.16220000  1.0 0.1310959777
H  H177  1  0.65150000  0.08240000  0.84310000  1.0 0.1310959777
H  H178  1  0.34850000  0.91760000  0.15690000  1.0 0.1310959777
H  H179  1  0.64530000  0.08320000  0.77000000  1.0 0.1310959777
H  H180  1  0.35470000  0.91680000  0.23000000  1.0 0.1310959777
H  H181  1  0.71000000  0.01980000  0.82080000  1.0 0.1310959777
H  H182  1  0.29000000  0.98020000  0.17920000  1.0 0.1310959777
H  H183  1  0.50000000  0.23350000  0.82380000  1.0 0.1206192859
H  H184  1  0.50000000  0.76650000  0.17620000  1.0 0.1206192859
H  H185  1  0.56090000  0.29750000  0.84040000  1.0 0.1206192859
H  H186  1  0.43910000  0.70250000  0.15960000  1.0 0.1206192859
H  H187  1  0.43740000  0.30540000  0.00690000  1.0 0.1310959777
H  H188  1  0.56260000  0.69460000  0.99310000  1.0 0.1310959777
H  H189  1  0.37800000  0.23890000  0.99140000  1.0 0.1206192859
H  H190  1  0.62200000  0.76110000  0.00860000  1.0 0.1206192859
H  H191  1  0.17150000  0.62820000  0.85550000  1.0 0.0608078636
H  H192  1  0.82850000  0.37180000  0.14450000  1.0 0.0608078636
H  H193  1  0.21160000  0.61430000  0.91980000  1.0 0.081399322
H  H194  1  0.78840000  0.38570000  0.08020000  1.0 0.081399322
H  H195  1  0.23030000  0.66510000  0.84180000  1.0 0.0899656965
H  H196  1  0.76970000  0.33490000  0.15820000  1.0 0.0899656965
H  H197  1  0.21160000  0.51770000  0.83060000  1.0 0.081399322
H  H198  1  0.78840000  0.48230000  0.16940000  1.0 0.081399322
H  H199  1  0.29120000  0.49740000  0.80400000  1.0 0.1028047388
H  H200  1  0.70880000  0.50260000  0.19600000  1.0 0.1028047388
H  H201  1  0.27250000  0.44670000  0.88210000  1.0 0.0713013812
H  H202  1  0.72750000  0.55330000  0.11790000  1.0 0.0713013812
H  H203  1  0.22130000  0.51680000  0.87750000  1.0 0.0608078636
H  H204  1  0.77870000  0.48320000  0.12250000  1.0 0.0608078636
H  H205  1  0.30490000  0.48710000  0.88440000  1.0 0.0713013812
H  H206  1  0.69510000  0.51290000  0.11560000  1.0 0.0713013812
H  H207  1  0.25510000  0.51810000  0.93780000  1.0 0.1098546097
H  H208  1  0.74490000  0.48190000  0.06220000  1.0 0.1098546097
H  H209  1  0.17180000  0.65420000  0.78950000  1.0 0.081399322
H  H210  1  0.82820000  0.34580000  0.21050000  1.0 0.081399322
H  H211  1  0.18450000  0.71620000  0.80440000  1.0 0.0713013812
H  H212  1  0.81550000  0.28380000  0.19560000  1.0 0.0713013812
H  H213  1  0.23410000  0.68560000  0.75070000  1.0 0.1098546097
H  H214  1  0.76590000  0.31440000  0.24930000  1.0 0.1098546097
C  C1  1  0.88660000  0.52630000  0.40900000  1.0 0.081399322
C  C2  1  0.11340000  0.47370000  0.59100000  1.0 0.081399322
C  C3  1  0.89310000  0.47240000  0.38700000  1.0 -0.2112337796
C  C4  1  0.10690000  0.52760000  0.61300000  1.0 -0.2112337796
C  C5  1  0.90670000  0.40090000  0.44580000  1.0 -0.2112337796
C  C6  1  0.09330000  0.59910000  0.55420000  1.0 -0.2112337796
C  C7  1  0.91070000  0.41140000  0.50280000  1.0 0.0608078636
C  C8  1  0.08930000  0.58860000  0.49720000  1.0 0.0608078636
C  C9  1  0.92790000  0.35390000  0.57810000  1.0 0.0713013812
C  C10  1  0.07210000  0.64610000  0.42190000  1.0 0.0713013812
C  C11  1  0.00300000  0.33450000  0.59430000  1.0 0.0713013812
C  C12  1  0.99700000  0.66550000  0.40570000  1.0 0.0713013812
C  C13  1  0.05980000  0.26920000  0.60480000  1.0 -0.2192441898
C  C14  1  0.94020000  0.73080000  0.39520000  1.0 -0.2192441898
C  C15  1  0.12000000  0.27960000  0.61640000  1.0 -0.2192441898
C  C16  1  0.88000000  0.72040000  0.38360000  1.0 -0.2112337796
C  C17  1  0.09790000  0.35140000  0.61310000  1.0 0.0899656965
C  C18  1  0.90210000  0.64860000  0.38690000  1.0 0.081399322
C  C19  1  0.13850000  0.38730000  0.62920000  1.0 0.1479360331
C  C20  1  0.86150000  0.61270000  0.37080000  1.0 0.1479360331
C  C21  1  0.91860000  0.27970000  0.58890000  1.0 -0.4300428342
C  C22  1  0.08140000  0.72030000  0.41110000  1.0 -0.4300428342
C  C23  1  0.21700000  0.35570000  0.60870000  1.0 -0.4787460249
C  C24  1  0.78300000  0.64430000  0.39130000  1.0 -0.4787460249
C  C25  1  0.13370000  0.36310000  0.70860000  1.0 -0.4787460249
C  C26  1  0.86630000  0.63690000  0.29140000  1.0 -0.4787460249
C  C27  1  0.87620000  0.38010000  0.63020000  1.0 0.0427481997
C  C28  1  0.12380000  0.61990000  0.36980000  1.0 0.0427481997
C  C29  1  0.80510000  0.42080000  0.61330000  1.0 -0.1717270793
C  C30  1  0.19490000  0.57920000  0.38670000  1.0 -0.1717270793
C  C31  1  0.75710000  0.43590000  0.66300000  1.0 -0.0997108129
C  C32  1  0.24290000  0.56410000  0.33700000  1.0 -0.0997108129
C  C33  1  0.77840000  0.41170000  0.72930000  1.0 -0.0066077704
C  C34  1  0.22160000  0.58830000  0.27070000  1.0 -0.0066077704
C  C35  1  0.84850000  0.37240000  0.74640000  1.0 -0.0997108129
C  C36  1  0.15150000  0.62760000  0.25360000  1.0 -0.0997108129
C  C37  1  0.89750000  0.35680000  0.69690000  1.0 -0.1717270793
C  C38  1  0.10250000  0.64320000  0.30310000  1.0 -0.1717270793
C  C39  1  0.72570000  0.42810000  0.78330000  1.0 0.5694740582
C  C40  1  0.27430000  0.57190000  0.21670000  1.0 0.5694740582
C  C41  1  0.90770000  0.90050000  0.94370000  1.0 -0.199585357
C  C42  1  0.09230000  0.09950000  0.05630000  1.0 -0.199585357
C  C43  1  0.88040000  0.88760000  0.01070000  1.0 -0.2112337796
C  C44  1  0.11960000  0.11240000  0.98930000  1.0 -0.2112337796
C  C45  1  0.92810000  0.88300000  0.05120000  1.0 0.0899656965
C  C46  1  0.07190000  0.11700000  0.94880000  1.0 0.0899656965
C  C47  1  0.97420000  0.90090000  0.94370000  1.0 0.0510198048
C  C48  1  0.02580000  0.09910000  0.05630000  1.0 0.0510198048
C  C49  1  0.02560000  0.91780000  0.88530000  1.0 0.0510198048
C  C50  1  0.97440000  0.08220000  0.11470000  1.0 0.0510198048
C  C51  1  0.02210000  0.00010000  0.85740000  1.0 0.1206192859
C  C52  1  0.97790000  0.99990000  0.14260000  1.0 0.1206192859
C  C53  1  0.99190000  0.06470000  0.79500000  1.0 -0.2192441898
C  C54  1  0.00810000  0.93530000  0.20500000  1.0 -0.2192441898
C  C55  1  0.00330000  0.12580000  0.79410000  1.0 -0.199585357
C  C56  1  0.99670000  0.87420000  0.20590000  1.0 -0.199585357
C  C57  1  0.03810000  0.10140000  0.85310000  1.0 0.0510198048
C  C58  1  0.96190000  0.89860000  0.14690000  1.0 0.0510198048
C  C59  1  0.07140000  0.14050000  0.87330000  1.0 0.1394439728
C  C60  1  0.92860000  0.85950000  0.12670000  1.0 0.1479360331
C  C61  1  0.10180000  0.86310000  0.90330000  1.0 0.0427481997
C  C62  1  0.89820000  0.13690000  0.09670000  1.0 0.0427481997
C  C63  1  0.15680000  0.88590000  0.86300000  1.0 -0.1885712557
C  C64  1  0.84320000  0.11410000  0.13700000  1.0 -0.1885712557
C  C65  1  0.22500000  0.83670000  0.87650000  1.0 -0.0891978408
C  C66  1  0.77500000  0.16330000  0.12350000  1.0 -0.0891978408
C  C67  1  0.24120000  0.76440000  0.93140000  1.0 -0.0311684241
C  C68  1  0.75880000  0.23560000  0.06860000  1.0 -0.0311684241
C  C69  1  0.18700000  0.74120000  0.97440000  1.0 -0.0891978408
C  C70  1  0.81300000  0.25880000  0.02560000  1.0 -0.0891978408
C  C71  1  0.11790000  0.79000000  0.96100000  1.0 -0.1885712557
C  C72  1  0.88210000  0.21000000  0.03900000  1.0 -0.1885712557
C  C73  1  0.31510000  0.71240000  0.94340000  1.0 0.5968447495
C  C74  1  0.68490000  0.28760000  0.05660000  1.0 0.5968447495
C  C75  1  0.00470000  0.90690000  0.82660000  1.0 -0.4300428342
C  C76  1  0.99530000  0.09310000  0.17340000  1.0 -0.4300428342
C  C77  1  0.14900000  0.12300000  0.84180000  1.0 -0.4662853262
C  C78  1  0.85100000  0.87700000  0.15820000  1.0 -0.4613110783
C  C79  1  0.03260000  0.22790000  0.83550000  1.0 -0.4613110783
C  C80  1  0.96740000  0.77210000  0.16450000  1.0 -0.4662853262
C  C81  1  0.52420000  0.33480000  0.61730000  1.0 0.1028047388
C  C82  1  0.47580000  0.66520000  0.38270000  1.0 0.1028047388
C  C83  1  0.47670000  0.29750000  0.64160000  1.0 -0.227982184
C  C84  1  0.52330000  0.70250000  0.35840000  1.0 -0.227982184
C  C85  1  0.40970000  0.35110000  0.64640000  1.0 -0.227982184
C  C86  1  0.59030000  0.64890000  0.35360000  1.0 -0.227982184
C  C87  1  0.41820000  0.41990000  0.62520000  1.0 0.1098546097
C  C88  1  0.58180000  0.58010000  0.37480000  1.0 0.1098546097
C  C89  1  0.36710000  0.49450000  0.62450000  1.0 0.0608078636
C  C90  1  0.63290000  0.50550000  0.37550000  1.0 0.0608078636
C  C91  1  0.34930000  0.55590000  0.55060000  1.0 0.1098546097
C  C92  1  0.65070000  0.44410000  0.44940000  1.0 0.1098546097
C  C93  1  0.29050000  0.58230000  0.51200000  1.0 -0.2192441898
C  C94  1  0.70950000  0.41770000  0.48800000  1.0 -0.2192441898
C  C95  1  0.30080000  0.63590000  0.44430000  1.0 -0.2192441898
C  C96  1  0.69920000  0.36410000  0.55570000  1.0 -0.2192441898
C  C97  1  0.36500000  0.64200000  0.44240000  1.0 0.1028047388
C  C98  1  0.63500000  0.35800000  0.55760000  1.0 0.1028047388
C  C99  1  0.39710000  0.69730000  0.38490000  1.0 0.1394439728
C  C100  1  0.60290000  0.30270000  0.61510000  1.0 0.1479360331
C  C101  1  0.29830000  0.48190000  0.66120000  1.0 -0.4662853262
C  C102  1  0.70170000  0.51810000  0.33880000  1.0 -0.4662853262
C  C103  1  0.36980000  0.71590000  0.31370000  1.0 -0.4613110783
C  C104  1  0.63020000  0.28410000  0.68630000  1.0 -0.4613110783
C  C105  1  0.37280000  0.77120000  0.39300000  1.0 -0.4662853262
C  C106  1  0.62720000  0.22880000  0.60700000  1.0 -0.4662853262
C  C107  1  0.39580000  0.51860000  0.66770000  1.0 0.0427481997
C  C108  1  0.60420000  0.48140000  0.33230000  1.0 0.0427481997
C  C109  1  0.37010000  0.59390000  0.65890000  1.0 -0.1717270793
C  C110  1  0.62990000  0.40610000  0.34110000  1.0 -0.1717270793
C  C111  1  0.39280000  0.61410000  0.70150000  1.0 -0.0891978408
C  C112  1  0.60720000  0.38590000  0.29850000  1.0 -0.0891978408
C  C113  1  0.44280000  0.55990000  0.75380000  1.0 -0.0311684241
C  C114  1  0.55720000  0.44010000  0.24620000  1.0 -0.0311684241
C  C115  1  0.46780000  0.48480000  0.76280000  1.0 -0.0891978408
C  C116  1  0.53220000  0.51520000  0.23720000  1.0 -0.0891978408
C  C117  1  0.44450000  0.46390000  0.72150000  1.0 -0.199585357
C  C118  1  0.55550000  0.53610000  0.27850000  1.0 -0.199585357
C  C119  1  0.46320000  0.58130000  0.80110000  1.0 0.5791993904
C  C120  1  0.53680000  0.41870000  0.19890000  1.0 0.5791993904
C  C121  1  0.63670000  0.91440000  0.44690000  1.0 0.081399322
C  C122  1  0.36330000  0.08560000  0.55310000  1.0 0.081399322
C  C123  1  0.69490000  0.93330000  0.43540000  1.0 -0.227982184
C  C124  1  0.30510000  0.06670000  0.56460000  1.0 -0.227982184
C  C125  1  0.70670000  0.94150000  0.49450000  1.0 -0.199585357
C  C126  1  0.29330000  0.05850000  0.50550000  1.0 -0.199585357
C  C127  1  0.65440000  0.92670000  0.54070000  1.0 0.0713013812
C  C128  1  0.34560000  0.07330000  0.45930000  1.0 0.0713013812
C  C129  1  0.64020000  0.92810000  0.61170000  1.0 0.0608078636
C  C130  1  0.35980000  0.07190000  0.38830000  1.0 0.0608078636
C  C131  1  0.58260000  0.99920000  0.60750000  1.0 0.0427481997
C  C132  1  0.41740000  0.00080000  0.39250000  1.0 0.0510198048
C  C133  1  0.58400000  0.06500000  0.60810000  1.0 -0.2112337796
C  C134  1  0.41600000  0.93500000  0.39190000  1.0 -0.2112337796
C  C135  1  0.51640000  0.11610000  0.59880000  1.0 -0.199585357
C  C136  1  0.48360000  0.88390000  0.40120000  1.0 -0.199585357
C  C137  1  0.47230000  0.08450000  0.59250000  1.0 0.0608078636
C  C138  1  0.52770000  0.91550000  0.40750000  1.0 0.0608078636
C  C139  1  0.39580000  0.11070000  0.59190000  1.0 0.1394439728
C  C140  1  0.60420000  0.88930000  0.40810000  1.0 0.1479360331
C  C141  1  0.70850000  0.92380000  0.63630000  1.0 -0.4300428342
C  C142  1  0.29150000  0.07620000  0.36370000  1.0 -0.4300428342
C  C143  1  0.36460000  0.19960000  0.55810000  1.0 -0.4541311097
C  C144  1  0.63540000  0.80040000  0.44190000  1.0 -0.4613110783
C  C145  1  0.36790000  0.08100000  0.66910000  1.0 -0.4613110783
C  C146  1  0.63210000  0.91900000  0.33090000  1.0 -0.4613110783
C  C147  1  0.62420000  0.85670000  0.66700000  1.0 0.0510198048
C  C148  1  0.37580000  0.14330000  0.33300000  1.0 0.0510198048
C  C149  1  0.58140000  0.85900000  0.72380000  1.0 -0.1885712557
C  C150  1  0.41860000  0.14100000  0.27620000  1.0 -0.1885712557
C  C151  1  0.56950000  0.79370000  0.77480000  1.0 -0.0891978408
C  C152  1  0.43050000  0.20630000  0.22520000  1.0 -0.0997108129
C  C153  1  0.60010000  0.72480000  0.76900000  1.0 -0.0311684241
C  C154  1  0.39990000  0.27520000  0.23100000  1.0 -0.0311684241
C  C155  1  0.64400000  0.72170000  0.71340000  1.0 -0.0891978408
C  C156  1  0.35600000  0.27830000  0.28660000  1.0 -0.0891978408
C  C157  1  0.65530000  0.78750000  0.66240000  1.0 -0.182291044
C  C158  1  0.34470000  0.21250000  0.33760000  1.0 -0.182291044
C  C159  1  0.58390000  0.65560000  0.82180000  1.0 0.6298222113
C  C160  1  0.41610000  0.34440000  0.17820000  1.0 0.6298222113
C  C161  1  0.35900000  0.05400000  0.07110000  1.0 0.1028047388
C  C162  1  0.64100000  0.94600000  0.92890000  1.0 0.1098546097
C  C163  1  0.29450000  0.08100000  0.04320000  1.0 -0.227982184
C  C164  1  0.70550000  0.91900000  0.95680000  1.0 -0.227982184
C  C165  1  0.29600000  0.13670000  0.97280000  1.0 -0.2192441898
C  C166  1  0.70400000  0.86330000  0.02720000  1.0 -0.2192441898
C  C167  1  0.36170000  0.14160000  0.95990000  1.0 0.1028047388
C  C168  1  0.63830000  0.85840000  0.04010000  1.0 0.1028047388
C  C169  1  0.39400000  0.18760000  0.89370000  1.0 0.0608078636
C  C170  1  0.60600000  0.81240000  0.10630000  1.0 0.0608078636
C  C171  1  0.44190000  0.13470000  0.86090000  1.0 0.1098546097
C  C172  1  0.55810000  0.86530000  0.13910000  1.0 0.1098546097
C  C173  1  0.43220000  0.12710000  0.80400000  1.0 -0.227982184
C  C174  1  0.56780000  0.87290000  0.19600000  1.0 -0.227982184
C  C175  1  0.49410000  0.07050000  0.79540000  1.0 -0.227982184
C  C176  1  0.50590000  0.92950000  0.20460000  1.0 -0.227982184
C  C177  1  0.54020000  0.04550000  0.84630000  1.0 0.0899656965
C  C178  1  0.45980000  0.95450000  0.15370000  1.0 0.0899656965
C  C179  1  0.61700000  0.99670000  0.85430000  1.0 0.1479360331
C  C180  1  0.38300000  0.00330000  0.14570000  1.0 0.1479360331
C  C181  1  0.33370000  0.25010000  0.84250000  1.0 -0.4613110783
C  C182  1  0.66630000  0.74990000  0.15750000  1.0 -0.4613110783
C  C183  1  0.63180000  0.94540000  0.81670000  1.0 -0.4613110783
C  C184  1  0.36820000  0.05460000  0.18330000  1.0 -0.4613110783
C  C185  1  0.65990000  0.05040000  0.81880000  1.0 -0.4613110783
C  C186  1  0.34010000  0.94960000  0.18120000  1.0 -0.4613110783
C  C187  1  0.43370000  0.22840000  0.90670000  1.0 0.0307143982
C  C188  1  0.56630000  0.77160000  0.09330000  1.0 0.0307143982
C  C189  1  0.48770000  0.24720000  0.86170000  1.0 -0.1885712557
C  C190  1  0.51230000  0.75280000  0.13830000  1.0 -0.1885712557
C  C191  1  0.52380000  0.28590000  0.87110000  1.0 -0.1122466606
C  C192  1  0.47620000  0.71410000  0.12890000  1.0 -0.1122466606
C  C193  1  0.50540000  0.30760000  0.92590000  1.0 -0.0311684241
C  C194  1  0.49460000  0.69240000  0.07410000  1.0 -0.0311684241
C  C195  1  0.45080000  0.29020000  0.97000000  1.0 -0.0891978408
C  C196  1  0.54920000  0.70980000  0.03000000  1.0 -0.0891978408
C  C197  1  0.41510000  0.25060000  0.96060000  1.0 -0.182291044
C  C198  1  0.58490000  0.74940000  0.03940000  1.0 -0.182291044
C  C199  1  0.54400000  0.34970000  0.93470000  1.0 0.6241176892
C  C200  1  0.45600000  0.65030000  0.06530000  1.0 0.6241176892
C  C201  1  0.33700000  0.53080000  0.88850000  1.0 0.2533480692
C  C202  1  0.66300000  0.46920000  0.11150000  1.0 0.2533480692
C  C203  1  0.21640000  0.62050000  0.87160000  1.0 0.0307143982
C  C204  1  0.78360000  0.37950000  0.12840000  1.0 0.0307143982
C  C205  1  0.26070000  0.49850000  0.84410000  1.0 -0.2779900086
C  C206  1  0.73930000  0.50150000  0.15590000  1.0 -0.2779900086
C  C207  1  0.30890000  0.62250000  0.85850000  1.0 0.1310959777
C  C208  1  0.69110000  0.37750000  0.14150000  1.0 0.1310959777
C  C209  1  0.26030000  0.52460000  0.88950000  1.0 0.0608078636
C  C210  1  0.73970000  0.47540000  0.11050000  1.0 0.0608078636
C  C211  1  0.20740000  0.67160000  0.79430000  1.0 -0.2779900086
C  C212  1  0.79260000  0.32840000  0.20570000  1.0 -0.2779900086
N  N1  1  0.89820000  0.48820000  0.47950000  1.0 -0.2779900086
N  N2  1  0.10180000  0.51180000  0.52050000  1.0 -0.2779900086
N  N3  1  0.02700000  0.38430000  0.59920000  1.0 -0.2779900086
N  N4  1  0.97300000  0.61570000  0.40080000  1.0 -0.2779900086
N  N5  1  0.04780000  0.02300000  0.89110000  1.0 -0.2584158164
N  N6  1  0.95220000  0.97700000  0.10890000  1.0 -0.2584158164
N  N7  1  0.98500000  0.89120000  0.01020000  1.0 -0.289790571
N  N8  1  0.01500000  0.10880000  0.98980000  1.0 -0.289790571
N  N9  1  0.48790000  0.40920000  0.60699000  1.0 -0.2970025849
N  N10  1  0.51210000  0.59080000  0.39301000  1.0 -0.2970025849
N  N11  1  0.39410000  0.59310000  0.50763000  1.0 -0.289790571
N  N12  1  0.60590000  0.40690000  0.49237000  1.0 -0.289790571
N  N13  1  0.61120000  0.91150000  0.51180000  1.0 -0.289790571
N  N14  1  0.38880000  0.08850000  0.48820000  1.0 -0.289790571
N  N15  1  0.51410000  0.01330000  0.59810000  1.0 -0.2779900086
N  N16  1  0.48590000  0.98670000  0.40190000  1.0 -0.2779900086
N  N17  1  0.40010000  0.09040000  0.02068000  1.0 -0.289790571
N  N18  1  0.59990000  0.90960000  0.97932000  1.0 -0.2970025849
N  N19  1  0.50760000  0.08490000  0.88620000  1.0 -0.2970025849
N  N20  1  0.49240000  0.91510000  0.11380000  1.0 -0.2970025849
N  N21  1  0.27140000  0.55030000  0.86810000  1.0 0.0510198048
N  N22  1  0.72860000  0.44970000  0.13190000  1.0 0.0510198048
N  N23  1  0.25780000  0.60460000  0.84770000  1.0 0.0713013812
N  N24  1  0.74220000  0.39540000  0.15230000  1.0 0.0713013812
O  O1  1  0.66217000  0.46465000  0.76776000  1.0 -0.5952693653
O  O2  1  0.33783000  0.53535000  0.23224000  1.0 -0.5952693653
O  O3  1  0.74807000  0.40560000  0.84336000  1.0 -0.630323145
O  O4  1  0.25193000  0.59440000  0.15664000  1.0 -0.630323145
O  O5  1  0.33099000  0.64613000  0.99643000  1.0 -0.6966015231
O  O6  1  0.66901000  0.35387000  0.00357000  1.0 -0.6966015231
O  O7  1  0.36090000  0.73160000  0.89899000  1.0 -0.5705849957
O  O8  1  0.63910000  0.26840000  0.10101000  1.0 -0.5705849957
O  O9  1  0.50569000  0.52833000  0.85161000  1.0 -0.6638760996
O  O10  1  0.49431000  0.47167000  0.14839000  1.0 -0.6650838685
O  O11  1  0.43740000  0.64826000  0.79554000  1.0 -0.5449337196
O  O12  1  0.56260000  0.35174000  0.20446000  1.0 -0.5449337196
O  O13  1  0.53850000  0.66454000  0.86750000  1.0 -0.5929110479
O  O14  1  0.46150000  0.33546000  0.13250000  1.0 -0.5929110479
O  O15  1  0.61710000  0.59341000  0.81700000  1.0 -0.630323145
O  O16  1  0.38290000  0.40659000  0.18300000  1.0 -0.630323145
O  O17  1  0.59530000  0.36004000  0.89434000  1.0 -0.630323145
O  O18  1  0.40470000  0.63996000  0.10566000  1.0 -0.630323145
O  O19  1  0.52350000  0.37416000  0.98122000  1.0 -0.6054196787
O  O20  1  0.47650000  0.62584000  0.01878000  1.0 -0.6054196787
O  O21  1  0.56503000  0.50504000  0.97291000  1.0 -0.9113860261
O  O22  1  0.43497000  0.49496000  0.02709000  1.0 -0.9113860261
O  O23  1  0.35390000  0.56590000  0.90890000  1.0 -0.4300428342
O  O24  1  0.64610000  0.43410000  0.09110000  1.0 -0.4300428342
O  O25  1  0.35600000  0.57940000  0.89880000  1.0 -0.4300428342
O  O26  1  0.64400000  0.42060000  0.10120000  1.0 -0.4300428342
