# DDEC6 charges by PACMAN v1.1 (https://github.com/mtap-research/PACMAN-charge/)
data_INEPEY_FSR_pacman
_symmetry_space_group_name_H-M   'P 1'
_cell_length_a   10.22930000
_cell_length_b   34.48030000
_cell_length_c   10.73550000
_cell_angle_alpha   90.00000000
_cell_angle_beta   109.98500000
_cell_angle_gamma   90.00000000
_symmetry_Int_Tables_number   1
_chemical_formula_structural   Zn3H27C21N13O12
_chemical_formula_sum   'Zn12 H108 C84 N52 O48'
_cell_volume   3558.49540962
_cell_formula_units_Z   4
loop_
 _symmetry_equiv_pos_site_id
 _symmetry_equiv_pos_as_xyz
  1  'x, y, z'
loop_
 _atom_site_type_symbol
 _atom_site_label
 _atom_site_symmetry_multiplicity
 _atom_site_fract_x
 _atom_site_fract_y
 _atom_site_fract_z
 _atom_site_occupancy
 _atom_site_charge
Zn  Zn1  1  0.11793000  0.87387000  0.35102000  1.0 0.7938167052
Zn  Zn2  1  0.88207000  0.37387000  0.64898000  1.0 0.7938167052
Zn  Zn3  1  0.88207000  0.12613000  0.64898000  1.0 0.7938167052
Zn  Zn4  1  0.11793000  0.62613000  0.35102000  1.0 0.7938167052
Zn  Zn5  1  0.80572000  0.90206000  0.15116000  1.0 0.8683399306
Zn  Zn6  1  0.19428000  0.40206000  0.84884000  1.0 0.8683399306
Zn  Zn7  1  0.19428000  0.09794000  0.84884000  1.0 0.8683399306
Zn  Zn8  1  0.80572000  0.59794000  0.15116000  1.0 0.8683399306
Zn  Zn9  1  0.73135000  0.87721000  0.68518000  1.0 0.7938167052
Zn  Zn10  1  0.26865000  0.37721000  0.31482000  1.0 0.7938167052
Zn  Zn11  1  0.26865000  0.12279000  0.31482000  1.0 0.7938167052
Zn  Zn12  1  0.73135000  0.62279000  0.68518000  1.0 0.7938167052
H  H1  1  0.58890000  0.95110000  0.21440000  1.0 0.1081749456
H  H2  1  0.41110000  0.45110000  0.78560000  1.0 0.1081749456
H  H3  1  0.41110000  0.04890000  0.78560000  1.0 0.1081749456
H  H4  1  0.58890000  0.54890000  0.21440000  1.0 0.1081749456
H  H5  1  0.75330000  0.02520000  0.08730000  1.0 0.1081749456
H  H6  1  0.24670000  0.52520000  0.91270000  1.0 0.1081749456
H  H7  1  0.24670000  0.97480000  0.91270000  1.0 0.1081749456
H  H8  1  0.75330000  0.47480000  0.08730000  1.0 0.1081749456
H  H9  1  0.60930000  0.04710000  0.01510000  1.0 0.0828162031
H  H10  1  0.39070000  0.54710000  0.98490000  1.0 0.0828162031
H  H11  1  0.39070000  0.95290000  0.98490000  1.0 0.0828162031
H  H12  1  0.60930000  0.45290000  0.01510000  1.0 0.0828162031
H  H13  1  0.70320000  0.05900000  0.16260000  1.0 0.085111876
H  H14  1  0.29680000  0.55900000  0.83740000  1.0 0.085111876
H  H15  1  0.29680000  0.94100000  0.83740000  1.0 0.085111876
H  H16  1  0.70320000  0.44100000  0.16260000  1.0 0.085111876
H  H17  1  0.42770000  0.99960000  0.20160000  1.0 0.1202599795
H  H18  1  0.57230000  0.49960000  0.79840000  1.0 0.1202599795
H  H19  1  0.57230000  0.00040000  0.79840000  1.0 0.1202599795
H  H20  1  0.42770000  0.50040000  0.20160000  1.0 0.1202599795
H  H21  1  0.49170000  0.04210000  0.23960000  1.0 0.1202599795
H  H22  1  0.50830000  0.54210000  0.76040000  1.0 0.1202599795
H  H23  1  0.50830000  0.95790000  0.76040000  1.0 0.1202599795
H  H24  1  0.49170000  0.45790000  0.23960000  1.0 0.1202599795
H  H25  1  0.40580000  0.03160000  0.08840000  1.0 0.1202599795
H  H26  1  0.59420000  0.53160000  0.91160000  1.0 0.1202599795
H  H27  1  0.59420000  0.96840000  0.91160000  1.0 0.1202599795
H  H28  1  0.40580000  0.46840000  0.08840000  1.0 0.1202599795
H  H29  1  0.04120000  0.75000000  0.23800000  1.0 0.1328155854
H  H30  1  0.95880000  0.25000000  0.76200000  1.0 0.1328155854
H  H31  1  0.81020000  0.75000000  0.77850000  1.0 0.1328155854
H  H32  1  0.18980000  0.25000000  0.22150000  1.0 0.1328155854
H  H33  1  0.18550000  0.99990000  0.19930000  1.0 0.1202599795
H  H34  1  0.81450000  0.49990000  0.80070000  1.0 0.1202599795
H  H35  1  0.81450000  0.00010000  0.80070000  1.0 0.1202599795
H  H36  1  0.18550000  0.50010000  0.19930000  1.0 0.1202599795
H  H37  1  0.63260000  0.84960000  0.96420000  1.0 0.1081749456
H  H38  1  0.36740000  0.34960000  0.03580000  1.0 0.1081749456
H  H39  1  0.36740000  0.15040000  0.03580000  1.0 0.1081749456
H  H40  1  0.63260000  0.65040000  0.96420000  1.0 0.1081749456
H  H41  1  0.34980000  0.87560000  0.05300000  1.0 0.1328155854
H  H42  1  0.65020000  0.37560000  0.94700000  1.0 0.1328155854
H  H43  1  0.65020000  0.12440000  0.94700000  1.0 0.1328155854
H  H44  1  0.34980000  0.62440000  0.05300000  1.0 0.1328155854
H  H45  1  0.25080000  0.84280000  0.96390000  1.0 0.1328155854
H  H46  1  0.74920000  0.34280000  0.03610000  1.0 0.1328155854
H  H47  1  0.74920000  0.15720000  0.03610000  1.0 0.1328155854
H  H48  1  0.25080000  0.65720000  0.96390000  1.0 0.1328155854
H  H49  1  0.35800000  0.83220000  0.10770000  1.0 0.1402292645
H  H50  1  0.64200000  0.33220000  0.89230000  1.0 0.1402292645
H  H51  1  0.64200000  0.16780000  0.89230000  1.0 0.1402292645
H  H52  1  0.35800000  0.66780000  0.10770000  1.0 0.1402292645
H  H53  1  0.39510000  0.78370000  0.91150000  1.0 0.1402292645
H  H54  1  0.60490000  0.28370000  0.08850000  1.0 0.1402292645
H  H55  1  0.60490000  0.21630000  0.08850000  1.0 0.1402292645
H  H56  1  0.39510000  0.71630000  0.91150000  1.0 0.1402292645
H  H57  1  0.33620000  0.81480000  0.79490000  1.0 0.1328155854
H  H58  1  0.66380000  0.31480000  0.20510000  1.0 0.1328155854
H  H59  1  0.66380000  0.18520000  0.20510000  1.0 0.1328155854
H  H60  1  0.33620000  0.68520000  0.79490000  1.0 0.1328155854
H  H61  1  0.49720000  0.80300000  0.84460000  1.0 0.1402292645
H  H62  1  0.50280000  0.30300000  0.15540000  1.0 0.1402292645
H  H63  1  0.50280000  0.19700000  0.15540000  1.0 0.1402292645
H  H64  1  0.49720000  0.69700000  0.84460000  1.0 0.1402292645
H  H65  1  0.37890000  0.88710000  0.29210000  1.0 0.327605036
H  H66  1  0.62110000  0.38710000  0.70790000  1.0 0.327605036
H  H67  1  0.62110000  0.11290000  0.70790000  1.0 0.327605036
H  H68  1  0.37890000  0.61290000  0.29210000  1.0 0.327605036
H  H69  1  0.53010000  0.89260000  0.36410000  1.0 0.3191689224
H  H70  1  0.46990000  0.39260000  0.63590000  1.0 0.3191689224
H  H71  1  0.46990000  0.10740000  0.63590000  1.0 0.3191689224
H  H72  1  0.53010000  0.60740000  0.36410000  1.0 0.3191689224
H  H73  1  0.13380000  0.86850000  0.67480000  1.0 0.3090766416
H  H74  1  0.86620000  0.36850000  0.32520000  1.0 0.3090766416
H  H75  1  0.86620000  0.13150000  0.32520000  1.0 0.3090766416
H  H76  1  0.13380000  0.63150000  0.67480000  1.0 0.3090766416
H  H77  1  0.02760000  0.85480000  0.73060000  1.0 0.327605036
H  H78  1  0.97240000  0.35480000  0.26940000  1.0 0.327605036
H  H79  1  0.97240000  0.14520000  0.26940000  1.0 0.327605036
H  H80  1  0.02760000  0.64520000  0.73060000  1.0 0.327605036
H  H81  1  0.92200000  0.96750000  0.31510000  1.0 0.0982796717
H  H82  1  0.07800000  0.46750000  0.68490000  1.0 0.0982796717
H  H83  1  0.07800000  0.03250000  0.68490000  1.0 0.0982796717
H  H84  1  0.92200000  0.53250000  0.31510000  1.0 0.0982796717
H  H85  1  0.63110000  0.02040000  0.10710000  1.0 0.1202599795
H  H86  1  0.36890000  0.52040000  0.89290000  1.0 0.1202599795
H  H87  1  0.36890000  0.97960000  0.89290000  1.0 0.1202599795
H  H88  1  0.63110000  0.47960000  0.10710000  1.0 0.1202599795
H  H89  1  0.66590000  0.05930000  0.19380000  1.0 0.0982796717
H  H90  1  0.33410000  0.55930000  0.80620000  1.0 0.0982796717
H  H91  1  0.33410000  0.94070000  0.80620000  1.0 0.0982796717
H  H92  1  0.66590000  0.44070000  0.19380000  1.0 0.0982796717
H  H93  1  0.73090000  0.05250000  0.07940000  1.0 0.0828162031
H  H94  1  0.26910000  0.55250000  0.92060000  1.0 0.0828162031
H  H95  1  0.26910000  0.94750000  0.92060000  1.0 0.0828162031
H  H96  1  0.73090000  0.44750000  0.07940000  1.0 0.0828162031
H  H97  1  0.94360000  0.06890000  0.29430000  1.0 0.1081749456
H  H98  1  0.05640000  0.56890000  0.70570000  1.0 0.1081749456
H  H99  1  0.05640000  0.93110000  0.70570000  1.0 0.1081749456
H  H100  1  0.94360000  0.43110000  0.29430000  1.0 0.1081749456
H  H101  1  0.88700000  0.05440000  0.40810000  1.0 0.1526693748
H  H102  1  0.11300000  0.55440000  0.59190000  1.0 0.1526693748
H  H103  1  0.11300000  0.94560000  0.59190000  1.0 0.1526693748
H  H104  1  0.88700000  0.44560000  0.40810000  1.0 0.1526693748
H  H105  1  0.01180000  0.03180000  0.38200000  1.0 0.2391122328
H  H106  1  0.98820000  0.53180000  0.61800000  1.0 0.2391122328
H  H107  1  0.98820000  0.96820000  0.61800000  1.0 0.2391122328
H  H108  1  0.01180000  0.46820000  0.38200000  1.0 0.2391122328
C  C1  1  0.64130000  0.96880000  0.18270000  1.0 0.0208152076
C  C2  1  0.35870000  0.46880000  0.81730000  1.0 0.0208152076
C  C3  1  0.35870000  0.03120000  0.81730000  1.0 0.0208152076
C  C4  1  0.64130000  0.53120000  0.18270000  1.0 0.0208152076
C  C5  1  0.67230000  0.03740000  0.10020000  1.0 -0.1563270642
C  C6  1  0.32770000  0.53740000  0.89980000  1.0 -0.1563270642
C  C7  1  0.32770000  0.96260000  0.89980000  1.0 -0.1563270642
C  C8  1  0.67230000  0.46260000  0.10020000  1.0 -0.1563270642
C  C9  1  0.47040000  0.02160000  0.17230000  1.0 -0.4033122315
C  C10  1  0.52960000  0.52160000  0.82770000  1.0 -0.4033122315
C  C11  1  0.52960000  0.97840000  0.82770000  1.0 -0.4033122315
C  C12  1  0.47040000  0.47840000  0.17230000  1.0 -0.4033122315
C  C13  1  0.42950000  0.88252000  0.47540000  1.0 0.4813736127
C  C14  1  0.57050000  0.38252000  0.52460000  1.0 0.4813736127
C  C15  1  0.57050000  0.11748000  0.52460000  1.0 0.4813736127
C  C16  1  0.42950000  0.61748000  0.47540000  1.0 0.4813736127
C  C17  1  0.95540000  0.86750000  0.55280000  1.0 0.4644445972
C  C18  1  0.04460000  0.36750000  0.44720000  1.0 0.4644445972
C  C19  1  0.04460000  0.13250000  0.44720000  1.0 0.4644445972
C  C20  1  0.95540000  0.63250000  0.55280000  1.0 0.4644445972
C  C21  1  0.97850000  0.82224000  0.15470000  1.0 0.6032798038
C  C22  1  0.02150000  0.32224000  0.84530000  1.0 0.6032798038
C  C23  1  0.02150000  0.17776000  0.84530000  1.0 0.6032798038
C  C24  1  0.97850000  0.67776000  0.15470000  1.0 0.6032798038
C  C25  1  0.95790000  0.78508000  0.07780000  1.0 -0.031868682
C  C26  1  0.04210000  0.28508000  0.92220000  1.0 -0.031868682
C  C27  1  0.04210000  0.21492000  0.92220000  1.0 -0.031868682
C  C28  1  0.95790000  0.71492000  0.07780000  1.0 -0.031868682
C  C29  1  0.89050000  0.78504000  0.93980000  1.0 -0.0164102043
C  C30  1  0.10950000  0.28504000  0.06020000  1.0 -0.0164102043
C  C31  1  0.10950000  0.21496000  0.06020000  1.0 -0.0164102043
C  C32  1  0.89050000  0.71496000  0.93980000  1.0 -0.0164102043
C  C33  1  0.86750000  0.82218000  0.86170000  1.0 0.5693322764
C  C34  1  0.13250000  0.32218000  0.13830000  1.0 0.5693322764
C  C35  1  0.13250000  0.17782000  0.13830000  1.0 0.5693322764
C  C36  1  0.86750000  0.67782000  0.86170000  1.0 0.5693322764
C  C37  1  0.99290000  0.75000000  0.14510000  1.0 -0.1272745683
C  C38  1  0.00710000  0.25000000  0.85490000  1.0 -0.1272745683
C  C39  1  0.85670000  0.75000000  0.87180000  1.0 -0.1419890477
C  C40  1  0.14330000  0.25000000  0.12820000  1.0 -0.1419890477
C  C41  1  0.09670000  0.93001000  0.15740000  1.0 0.5586802781
C  C42  1  0.90330000  0.43001000  0.84260000  1.0 0.5586802781
C  C43  1  0.90330000  0.06999000  0.84260000  1.0 0.5586802781
C  C44  1  0.09670000  0.56999000  0.15740000  1.0 0.5586802781
C  C45  1  0.03940000  0.96519000  0.07210000  1.0 -0.031868682
C  C46  1  0.96060000  0.46519000  0.92790000  1.0 -0.031868682
C  C47  1  0.96060000  0.03481000  0.92790000  1.0 -0.031868682
C  C48  1  0.03940000  0.53481000  0.07210000  1.0 -0.031868682
C  C49  1  0.11000000  0.99992000  0.11770000  1.0 -0.1860365673
C  C50  1  0.89000000  0.49992000  0.88230000  1.0 -0.1860365673
C  C51  1  0.89000000  0.00008000  0.88230000  1.0 -0.1860365673
C  C52  1  0.11000000  0.50008000  0.11770000  1.0 -0.1860365673
C  C53  1  0.07360000  0.03457000  0.04770000  1.0 -0.031868682
C  C54  1  0.92640000  0.53457000  0.95230000  1.0 -0.031868682
C  C55  1  0.92640000  0.96543000  0.95230000  1.0 -0.031868682
C  C56  1  0.07360000  0.46543000  0.04770000  1.0 -0.031868682
C  C57  1  0.15840000  0.06995000  0.10750000  1.0 0.5586802781
C  C58  1  0.84160000  0.56995000  0.89250000  1.0 0.5586802781
C  C59  1  0.84160000  0.93005000  0.89250000  1.0 0.5586802781
C  C60  1  0.15840000  0.43005000  0.10750000  1.0 0.5586802781
C  C61  1  0.56880000  0.85670000  0.00710000  1.0 0.2769366251
C  C62  1  0.43120000  0.35670000  0.99290000  1.0 0.2746839569
C  C63  1  0.43120000  0.14330000  0.99290000  1.0 0.2746839569
C  C64  1  0.56880000  0.64330000  0.00710000  1.0 0.2769366251
C  C65  1  0.34320000  0.84810000  0.02850000  1.0 -0.3289353305
C  C66  1  0.65680000  0.34810000  0.97150000  1.0 -0.3289353305
C  C67  1  0.65680000  0.15190000  0.97150000  1.0 -0.3289353305
C  C68  1  0.34320000  0.65190000  0.02850000  1.0 -0.3289353305
C  C69  1  0.41650000  0.80750000  0.87220000  1.0 -0.3500734819
C  C70  1  0.58350000  0.30750000  0.12780000  1.0 -0.3500734819
C  C71  1  0.58350000  0.19250000  0.12780000  1.0 -0.3500734819
C  C72  1  0.41650000  0.69250000  0.87220000  1.0 -0.3500734819
C  C73  1  0.84440000  0.97920000  0.24980000  1.0 -0.0139967902
C  C74  1  0.15560000  0.47920000  0.75020000  1.0 -0.0164102043
C  C75  1  0.15560000  0.02080000  0.75020000  1.0 -0.0164102043
C  C76  1  0.84440000  0.52080000  0.24980000  1.0 -0.0139967902
C  C77  1  0.70290000  0.03980000  0.14810000  1.0 -0.0984876669
C  C78  1  0.29710000  0.53980000  0.85190000  1.0 -0.0984876669
C  C79  1  0.29710000  0.96020000  0.85190000  1.0 -0.0984876669
C  C80  1  0.70290000  0.46020000  0.14810000  1.0 -0.0984876669
C  C81  1  0.92500000  0.04610000  0.34010000  1.0 -0.1107146744
C  C82  1  0.07500000  0.54610000  0.65990000  1.0 -0.1151800259
C  C83  1  0.07500000  0.95390000  0.65990000  1.0 -0.1151800259
C  C84  1  0.92500000  0.45390000  0.34010000  1.0 -0.1107146744
N  N1  1  0.59960000  0.00880000  0.15340000  1.0 -0.0515427795
N  N2  1  0.40040000  0.50880000  0.84660000  1.0 -0.0515427795
N  N3  1  0.40040000  0.99120000  0.84660000  1.0 -0.0515427795
N  N4  1  0.59960000  0.49120000  0.15340000  1.0 -0.0515427795
N  N5  1  0.30140000  0.88269000  0.48160000  1.0 -0.3609963908
N  N6  1  0.69860000  0.38269000  0.51840000  1.0 -0.3609963908
N  N7  1  0.69860000  0.11731000  0.51840000  1.0 -0.3609963908
N  N8  1  0.30140000  0.61731000  0.48160000  1.0 -0.3609963908
N  N9  1  0.32060000  0.88347000  0.61340000  1.0 -0.1107146744
N  N10  1  0.67940000  0.38347000  0.38660000  1.0 -0.1107146744
N  N11  1  0.67940000  0.11653000  0.38660000  1.0 -0.1107146744
N  N12  1  0.32060000  0.61653000  0.61340000  1.0 -0.1107146744
N  N13  1  0.45210000  0.88389000  0.68090000  1.0 -0.069416131
N  N14  1  0.54790000  0.38389000  0.31910000  1.0 -0.069416131
N  N15  1  0.54790000  0.11611000  0.31910000  1.0 -0.069416131
N  N16  1  0.45210000  0.61611000  0.68090000  1.0 -0.069416131
N  N17  1  0.52550000  0.88311000  0.59590000  1.0 -0.3289353305
N  N18  1  0.47450000  0.38311000  0.40410000  1.0 -0.3289353305
N  N19  1  0.47450000  0.11689000  0.40410000  1.0 -0.3289353305
N  N20  1  0.52550000  0.61689000  0.59590000  1.0 -0.3289353305
N  N21  1  0.45400000  0.87828000  0.35980000  1.0 -0.6193563594
N  N22  1  0.54600000  0.37828000  0.64020000  1.0 -0.6193563594
N  N23  1  0.54600000  0.12172000  0.64020000  1.0 -0.6193563594
N  N24  1  0.45400000  0.62172000  0.35980000  1.0 -0.6193563594
N  N25  1  0.96970000  0.87581000  0.43520000  1.0 -0.3500734819
N  N26  1  0.03030000  0.37581000  0.56480000  1.0 -0.3500734819
N  N27  1  0.03030000  0.12419000  0.56480000  1.0 -0.3500734819
N  N28  1  0.96970000  0.62419000  0.43520000  1.0 -0.3500734819
N  N29  1  0.84380000  0.88865000  0.35680000  1.0 -0.0424108273
N  N30  1  0.15620000  0.38865000  0.64320000  1.0 -0.0424108273
N  N31  1  0.15620000  0.11135000  0.64320000  1.0 -0.0424108273
N  N32  1  0.84380000  0.61135000  0.35680000  1.0 -0.0424108273
N  N33  1  0.75740000  0.88866000  0.42100000  1.0 -0.0515427795
N  N34  1  0.24260000  0.38866000  0.57900000  1.0 -0.0515427795
N  N35  1  0.24260000  0.11134000  0.57900000  1.0 -0.0515427795
N  N36  1  0.75740000  0.61134000  0.42100000  1.0 -0.0515427795
N  N37  1  0.82370000  0.87545000  0.54570000  1.0 -0.3609963908
N  N38  1  0.17630000  0.37545000  0.45430000  1.0 -0.3609963908
N  N39  1  0.17630000  0.12455000  0.45430000  1.0 -0.3609963908
N  N40  1  0.82370000  0.62455000  0.54570000  1.0 -0.3609963908
N  N41  1  0.05630000  0.85367000  0.65930000  1.0 -0.6131086006
N  N42  1  0.94370000  0.35367000  0.34070000  1.0 -0.6131086006
N  N43  1  0.94370000  0.14633000  0.34070000  1.0 -0.6131086006
N  N44  1  0.05630000  0.64633000  0.65930000  1.0 -0.6131086006
N  N45  1  0.44810000  0.83897000  0.97070000  1.0 0.0250146509
N  N46  1  0.55190000  0.33897000  0.02930000  1.0 0.0250146509
N  N47  1  0.55190000  0.16103000  0.02930000  1.0 0.0250146509
N  N48  1  0.44810000  0.66103000  0.97070000  1.0 0.0250146509
N  N49  1  0.82380000  0.02080000  0.24370000  1.0 -0.0840924708
N  N50  1  0.17620000  0.52080000  0.75630000  1.0 -0.0840924708
N  N51  1  0.17620000  0.97920000  0.75630000  1.0 -0.0840924708
N  N52  1  0.82380000  0.47920000  0.24370000  1.0 -0.0840924708
O  O1  1  0.75290000  0.95896000  0.16310000  1.0 -0.3289353305
O  O2  1  0.24710000  0.45896000  0.83690000  1.0 -0.3289353305
O  O3  1  0.24710000  0.04104000  0.83690000  1.0 -0.3289353305
O  O4  1  0.75290000  0.54104000  0.16310000  1.0 -0.3289353305
O  O5  1  0.87650000  0.84406000  0.13300000  1.0 -0.5407691403
O  O6  1  0.12350000  0.34406000  0.86700000  1.0 -0.5407691403
O  O7  1  0.12350000  0.15594000  0.86700000  1.0 -0.5407691403
O  O8  1  0.87650000  0.65594000  0.13300000  1.0 -0.5407691403
O  O9  1  0.09840000  0.82756000  0.24240000  1.0 -0.5276706023
O  O10  1  0.90160000  0.32756000  0.75760000  1.0 -0.5276706023
O  O11  1  0.90160000  0.17244000  0.75760000  1.0 -0.5276706023
O  O12  1  0.09840000  0.67244000  0.24240000  1.0 -0.5276706023
O  O13  1  0.96830000  0.84480000  0.87980000  1.0 -0.5500910981
O  O14  1  0.03170000  0.34480000  0.12020000  1.0 -0.5500910981
O  O15  1  0.03170000  0.15520000  0.12020000  1.0 -0.5500910981
O  O16  1  0.96830000  0.65520000  0.87980000  1.0 -0.5500910981
O  O17  1  0.74590000  0.82773000  0.77660000  1.0 -0.5637040092
O  O18  1  0.25410000  0.32773000  0.22340000  1.0 -0.5637040092
O  O19  1  0.25410000  0.17227000  0.22340000  1.0 -0.5637040092
O  O20  1  0.74590000  0.67227000  0.77660000  1.0 -0.5637040092
O  O21  1  0.02360000  0.91604000  0.22280000  1.0 -0.5700133695
O  O22  1  0.97640000  0.41604000  0.77720000  1.0 -0.5700133695
O  O23  1  0.97640000  0.08396000  0.77720000  1.0 -0.5700133695
O  O24  1  0.02360000  0.58396000  0.22280000  1.0 -0.5700133695
O  O25  1  0.21440000  0.91855000  0.16890000  1.0 -0.507798913
O  O26  1  0.78560000  0.41855000  0.83110000  1.0 -0.507798913
O  O27  1  0.78560000  0.08145000  0.83110000  1.0 -0.507798913
O  O28  1  0.21440000  0.58145000  0.16890000  1.0 -0.507798913
O  O29  1  0.18810000  0.07359000  0.23120000  1.0 -0.5276706023
O  O30  1  0.81190000  0.57359000  0.76880000  1.0 -0.5276706023
O  O31  1  0.81190000  0.92641000  0.76880000  1.0 -0.5276706023
O  O32  1  0.18810000  0.42641000  0.23120000  1.0 -0.5276706023
O  O33  1  0.19930000  0.09288000  0.03930000  1.0 -0.507798913
O  O34  1  0.80070000  0.59288000  0.96070000  1.0 -0.507798913
O  O35  1  0.80070000  0.90712000  0.96070000  1.0 -0.507798913
O  O36  1  0.19930000  0.40712000  0.03930000  1.0 -0.507798913
O  O37  1  0.60530000  0.88224000  0.09440000  1.0 -0.4532993092
O  O38  1  0.39470000  0.38224000  0.90560000  1.0 -0.4532993092
O  O39  1  0.39470000  0.11776000  0.90560000  1.0 -0.4532993092
O  O40  1  0.60530000  0.61776000  0.09440000  1.0 -0.4532993092
O  O41  1  0.05100000  0.00170000  0.49400000  1.0 -0.0984876669
O  O42  1  0.94900000  0.50170000  0.50600000  1.0 -0.0984876669
O  O43  1  0.94900000  0.99830000  0.50600000  1.0 -0.0984876669
O  O44  1  0.05100000  0.49830000  0.49400000  1.0 -0.0984876669
O  O45  1  0.98500000  0.02820000  0.42400000  1.0 -0.0044986023
O  O46  1  0.01500000  0.52820000  0.57600000  1.0 -0.0044986023
O  O47  1  0.01500000  0.97180000  0.57600000  1.0 -0.0044986023
O  O48  1  0.98500000  0.47180000  0.42400000  1.0 -0.0044986023
