# DDEC6 charges by PACMAN v1.1 (https://github.com/mtap-research/PACMAN-charge/)
data_INIGOD_ASR_pacman
_symmetry_space_group_name_H-M   'P 1'
_cell_length_a   36.85720000
_cell_length_b   36.85720000
_cell_length_c   36.85720000
_cell_angle_alpha   109.47100000
_cell_angle_beta   109.47100000
_cell_angle_gamma   109.47100000
_symmetry_Int_Tables_number   1
_chemical_formula_structural   ZnH70C60S4(NO2)4
_chemical_formula_sum   'Zn24 H1680 C1440 S96 N96 O192'
_cell_volume   38543.28041649
_cell_formula_units_Z   24
loop_
 _symmetry_equiv_pos_site_id
 _symmetry_equiv_pos_as_xyz
  1  'x, y, z'
loop_
 _atom_site_type_symbol
 _atom_site_label
 _atom_site_symmetry_multiplicity
 _atom_site_fract_x
 _atom_site_fract_y
 _atom_site_fract_z
 _atom_site_occupancy
 _atom_site_charge
Zn  Zn1  1  0.01580000  0.48420000  0.25000000  1.0 0.7779209019
Zn  Zn2  1  0.73420000  0.76580000  0.25000000  1.0 0.7779209019
Zn  Zn3  1  0.76580000  0.01580000  0.03160000  1.0 0.7779209019
Zn  Zn4  1  0.48420000  0.73420000  0.46840000  1.0 0.7779209019
Zn  Zn5  1  0.25000000  0.01580000  0.48420000  1.0 0.7779209019
Zn  Zn6  1  0.25000000  0.73420000  0.76580000  1.0 0.7779209019
Zn  Zn7  1  0.03160000  0.76580000  0.01580000  1.0 0.7779209019
Zn  Zn8  1  0.46840000  0.48420000  0.73420000  1.0 0.7779209019
Zn  Zn9  1  0.48420000  0.25000000  0.01580000  1.0 0.7779209019
Zn  Zn10  1  0.76580000  0.25000000  0.73420000  1.0 0.7779209019
Zn  Zn11  1  0.01580000  0.03160000  0.76580000  1.0 0.7779209019
Zn  Zn12  1  0.73420000  0.46840000  0.48420000  1.0 0.7779209019
Zn  Zn13  1  0.98420000  0.51580000  0.75000000  1.0 0.7779209019
Zn  Zn14  1  0.26580000  0.23420000  0.75000000  1.0 0.7779209019
Zn  Zn15  1  0.23420000  0.98420000  0.96840000  1.0 0.7779209019
Zn  Zn16  1  0.51580000  0.26580000  0.53160000  1.0 0.7779209019
Zn  Zn17  1  0.75000000  0.98420000  0.51580000  1.0 0.7779209019
Zn  Zn18  1  0.75000000  0.26580000  0.23420000  1.0 0.7779209019
Zn  Zn19  1  0.96840000  0.23420000  0.98420000  1.0 0.7779209019
Zn  Zn20  1  0.53160000  0.51580000  0.26580000  1.0 0.7779209019
Zn  Zn21  1  0.51580000  0.75000000  0.98420000  1.0 0.7779209019
Zn  Zn22  1  0.23420000  0.75000000  0.26580000  1.0 0.7779209019
Zn  Zn23  1  0.98420000  0.96840000  0.23420000  1.0 0.7779209019
Zn  Zn24  1  0.26580000  0.53160000  0.51580000  1.0 0.7779209019
H  H1  1  0.86520000  0.41250000  0.31710000  1.0 0.1191190211
H  H2  1  0.59540000  0.54810000  0.18290000  1.0 0.1191190211
H  H3  1  0.90460000  0.08750000  0.95270000  1.0 0.1191190211
H  H4  1  0.63480000  0.95190000  0.54730000  1.0 0.1191190211
H  H5  1  0.31710000  0.86520000  0.41250000  1.0 0.1191190211
H  H6  1  0.18290000  0.59540000  0.54810000  1.0 0.1191190211
H  H7  1  0.95270000  0.90460000  0.08750000  1.0 0.1191190211
H  H8  1  0.54730000  0.63480000  0.95190000  1.0 0.1191190211
H  H9  1  0.41250000  0.31710000  0.86520000  1.0 0.1191190211
H  H10  1  0.54810000  0.18290000  0.59540000  1.0 0.1191190211
H  H11  1  0.08750000  0.95270000  0.90460000  1.0 0.1191190211
H  H12  1  0.95190000  0.54730000  0.63480000  1.0 0.1191190211
H  H13  1  0.95190000  0.90460000  0.31710000  1.0 0.1191190211
H  H14  1  0.08750000  0.63480000  0.18290000  1.0 0.1191190211
H  H15  1  0.54810000  0.86520000  0.95270000  1.0 0.1191190211
H  H16  1  0.41250000  0.59540000  0.54730000  1.0 0.1191190211
H  H17  1  0.59540000  0.54730000  0.41250000  1.0 0.1191190211
H  H18  1  0.86520000  0.95270000  0.54810000  1.0 0.1191190211
H  H19  1  0.63480000  0.18290000  0.08750000  1.0 0.1191190211
H  H20  1  0.90460000  0.31710000  0.95190000  1.0 0.1191190211
H  H21  1  0.95270000  0.54810000  0.86520000  1.0 0.1191190211
H  H22  1  0.54730000  0.41250000  0.59540000  1.0 0.1191190211
H  H23  1  0.31710000  0.95190000  0.90460000  1.0 0.1191190211
H  H24  1  0.18290000  0.08750000  0.63480000  1.0 0.1191190211
H  H25  1  0.13480000  0.58750000  0.68290000  1.0 0.1191190211
H  H26  1  0.40460000  0.45190000  0.81710000  1.0 0.1191190211
H  H27  1  0.09540000  0.91250000  0.04730000  1.0 0.1191190211
H  H28  1  0.36520000  0.04810000  0.45270000  1.0 0.1191190211
H  H29  1  0.68290000  0.13480000  0.58750000  1.0 0.1191190211
H  H30  1  0.81710000  0.40460000  0.45190000  1.0 0.1191190211
H  H31  1  0.04730000  0.09540000  0.91250000  1.0 0.1191190211
H  H32  1  0.45270000  0.36520000  0.04810000  1.0 0.1191190211
H  H33  1  0.58750000  0.68290000  0.13480000  1.0 0.1191190211
H  H34  1  0.45190000  0.81710000  0.40460000  1.0 0.1191190211
H  H35  1  0.91250000  0.04730000  0.09540000  1.0 0.1191190211
H  H36  1  0.04810000  0.45270000  0.36520000  1.0 0.1191190211
H  H37  1  0.04810000  0.09540000  0.68290000  1.0 0.1191190211
H  H38  1  0.91250000  0.36520000  0.81710000  1.0 0.1191190211
H  H39  1  0.45190000  0.13480000  0.04730000  1.0 0.1191190211
H  H40  1  0.58750000  0.40460000  0.45270000  1.0 0.1191190211
H  H41  1  0.40460000  0.45270000  0.58750000  1.0 0.1191190211
H  H42  1  0.13480000  0.04730000  0.45190000  1.0 0.1191190211
H  H43  1  0.36520000  0.81710000  0.91250000  1.0 0.1191190211
H  H44  1  0.09540000  0.68290000  0.04810000  1.0 0.1191190211
H  H45  1  0.04730000  0.45190000  0.13480000  1.0 0.1191190211
H  H46  1  0.45270000  0.58750000  0.40460000  1.0 0.1191190211
H  H47  1  0.68290000  0.04810000  0.09540000  1.0 0.1191190211
H  H48  1  0.81710000  0.91250000  0.36520000  1.0 0.1191190211
H  H49  1  0.89700000  0.43630000  0.30310000  1.0 0.0991345342
H  H50  1  0.63320000  0.59390000  0.19690000  1.0 0.0991345342
H  H51  1  0.86680000  0.06370000  0.96070000  1.0 0.0991345342
H  H52  1  0.60300000  0.90610000  0.53930000  1.0 0.0991345342
H  H53  1  0.30310000  0.89700000  0.43630000  1.0 0.0991345342
H  H54  1  0.19690000  0.63320000  0.59390000  1.0 0.0991345342
H  H55  1  0.96070000  0.86680000  0.06370000  1.0 0.0991345342
H  H56  1  0.53930000  0.60300000  0.90610000  1.0 0.0991345342
H  H57  1  0.43630000  0.30310000  0.89700000  1.0 0.0991345342
H  H58  1  0.59390000  0.19690000  0.63320000  1.0 0.0991345342
H  H59  1  0.06370000  0.96070000  0.86680000  1.0 0.0991345342
H  H60  1  0.90610000  0.53930000  0.60300000  1.0 0.0991345342
H  H61  1  0.90610000  0.86680000  0.30310000  1.0 0.0991345342
H  H62  1  0.06370000  0.60300000  0.19690000  1.0 0.0991345342
H  H63  1  0.59390000  0.89700000  0.96070000  1.0 0.0991345342
H  H64  1  0.43630000  0.63320000  0.53930000  1.0 0.0991345342
H  H65  1  0.63320000  0.53930000  0.43630000  1.0 0.0991345342
H  H66  1  0.89700000  0.96070000  0.59390000  1.0 0.0991345342
H  H67  1  0.60300000  0.19690000  0.06370000  1.0 0.0991345342
H  H68  1  0.86680000  0.30310000  0.90610000  1.0 0.0991345342
H  H69  1  0.96070000  0.59390000  0.89700000  1.0 0.0991345342
H  H70  1  0.53930000  0.43630000  0.63320000  1.0 0.0991345342
H  H71  1  0.30310000  0.90610000  0.86680000  1.0 0.0991345342
H  H72  1  0.19690000  0.06370000  0.60300000  1.0 0.0991345342
H  H73  1  0.10300000  0.56370000  0.69690000  1.0 0.0991345342
H  H74  1  0.36680000  0.40610000  0.80310000  1.0 0.0991345342
H  H75  1  0.13320000  0.93630000  0.03930000  1.0 0.0991345342
H  H76  1  0.39700000  0.09390000  0.46070000  1.0 0.0991345342
H  H77  1  0.69690000  0.10300000  0.56370000  1.0 0.0991345342
H  H78  1  0.80310000  0.36680000  0.40610000  1.0 0.0991345342
H  H79  1  0.03930000  0.13320000  0.93630000  1.0 0.0991345342
H  H80  1  0.46070000  0.39700000  0.09390000  1.0 0.0991345342
H  H81  1  0.56370000  0.69690000  0.10300000  1.0 0.0991345342
H  H82  1  0.40610000  0.80310000  0.36680000  1.0 0.0991345342
H  H83  1  0.93630000  0.03930000  0.13320000  1.0 0.0991345342
H  H84  1  0.09390000  0.46070000  0.39700000  1.0 0.0991345342
H  H85  1  0.09390000  0.13320000  0.69690000  1.0 0.0991345342
H  H86  1  0.93630000  0.39700000  0.80310000  1.0 0.0991345342
H  H87  1  0.40610000  0.10300000  0.03930000  1.0 0.0991345342
H  H88  1  0.56370000  0.36680000  0.46070000  1.0 0.0991345342
H  H89  1  0.36680000  0.46070000  0.56370000  1.0 0.0991345342
H  H90  1  0.10300000  0.03930000  0.40610000  1.0 0.0991345342
H  H91  1  0.39700000  0.80310000  0.93630000  1.0 0.0991345342
H  H92  1  0.13320000  0.69690000  0.09390000  1.0 0.0991345342
H  H93  1  0.03930000  0.40610000  0.10300000  1.0 0.0991345342
H  H94  1  0.46070000  0.56370000  0.36680000  1.0 0.0991345342
H  H95  1  0.69690000  0.09390000  0.13320000  1.0 0.0991345342
H  H96  1  0.80310000  0.93630000  0.39700000  1.0 0.0991345342
H  H97  1  0.92550000  0.36280000  0.27970000  1.0 0.1191190211
H  H98  1  0.58310000  0.64580000  0.22030000  1.0 0.1191190211
H  H99  1  0.91690000  0.13720000  0.06270000  1.0 0.1191190211
H  H100  1  0.57450000  0.85420000  0.43730000  1.0 0.1191190211
H  H101  1  0.27970000  0.92550000  0.36280000  1.0 0.1191190211
H  H102  1  0.22030000  0.58310000  0.64580000  1.0 0.1191190211
H  H103  1  0.06270000  0.91690000  0.13720000  1.0 0.1191190211
H  H104  1  0.43730000  0.57450000  0.85420000  1.0 0.1191190211
H  H105  1  0.36280000  0.27970000  0.92550000  1.0 0.1191190211
H  H106  1  0.64580000  0.22030000  0.58310000  1.0 0.1191190211
H  H107  1  0.13720000  0.06270000  0.91690000  1.0 0.1191190211
H  H108  1  0.85420000  0.43730000  0.57450000  1.0 0.1191190211
H  H109  1  0.85420000  0.91690000  0.27970000  1.0 0.1191190211
H  H110  1  0.13720000  0.57450000  0.22030000  1.0 0.1191190211
H  H111  1  0.64580000  0.92550000  0.06270000  1.0 0.1191190211
H  H112  1  0.36280000  0.58310000  0.43730000  1.0 0.1191190211
H  H113  1  0.58310000  0.43730000  0.36280000  1.0 0.1191190211
H  H114  1  0.92550000  0.06270000  0.64580000  1.0 0.1191190211
H  H115  1  0.57450000  0.22030000  0.13720000  1.0 0.1191190211
H  H116  1  0.91690000  0.27970000  0.85420000  1.0 0.1191190211
H  H117  1  0.06270000  0.64580000  0.92550000  1.0 0.1191190211
H  H118  1  0.43730000  0.36280000  0.58310000  1.0 0.1191190211
H  H119  1  0.27970000  0.85420000  0.91690000  1.0 0.1191190211
H  H120  1  0.22030000  0.13720000  0.57450000  1.0 0.1191190211
H  H121  1  0.07450000  0.63720000  0.72030000  1.0 0.1191190211
H  H122  1  0.41690000  0.35420000  0.77970000  1.0 0.1191190211
H  H123  1  0.08310000  0.86280000  0.93730000  1.0 0.1191190211
H  H124  1  0.42550000  0.14580000  0.56270000  1.0 0.1191190211
H  H125  1  0.72030000  0.07450000  0.63720000  1.0 0.1191190211
H  H126  1  0.77970000  0.41690000  0.35420000  1.0 0.1191190211
H  H127  1  0.93730000  0.08310000  0.86280000  1.0 0.1191190211
H  H128  1  0.56270000  0.42550000  0.14580000  1.0 0.1191190211
H  H129  1  0.63720000  0.72030000  0.07450000  1.0 0.1191190211
H  H130  1  0.35420000  0.77970000  0.41690000  1.0 0.1191190211
H  H131  1  0.86280000  0.93730000  0.08310000  1.0 0.1191190211
H  H132  1  0.14580000  0.56270000  0.42550000  1.0 0.1191190211
H  H133  1  0.14580000  0.08310000  0.72030000  1.0 0.1191190211
H  H134  1  0.86280000  0.42550000  0.77970000  1.0 0.1191190211
H  H135  1  0.35420000  0.07450000  0.93730000  1.0 0.1191190211
H  H136  1  0.63720000  0.41690000  0.56270000  1.0 0.1191190211
H  H137  1  0.41690000  0.56270000  0.63720000  1.0 0.1191190211
H  H138  1  0.07450000  0.93730000  0.35420000  1.0 0.1191190211
H  H139  1  0.42550000  0.77970000  0.86280000  1.0 0.1191190211
H  H140  1  0.08310000  0.72030000  0.14580000  1.0 0.1191190211
H  H141  1  0.93730000  0.35420000  0.07450000  1.0 0.1191190211
H  H142  1  0.56270000  0.63720000  0.41690000  1.0 0.1191190211
H  H143  1  0.72030000  0.14580000  0.08310000  1.0 0.1191190211
H  H144  1  0.77970000  0.86280000  0.42550000  1.0 0.1191190211
H  H145  1  0.98020000  0.35690000  0.33750000  1.0 0.0991345342
H  H146  1  0.51940000  0.64270000  0.16250000  1.0 0.0991345342
H  H147  1  0.98060000  0.14310000  0.12330000  1.0 0.0991345342
H  H148  1  0.51980000  0.85730000  0.37670000  1.0 0.0991345342
H  H149  1  0.33750000  0.98020000  0.35690000  1.0 0.0991345342
H  H150  1  0.16250000  0.51940000  0.64270000  1.0 0.0991345342
H  H151  1  0.12330000  0.98060000  0.14310000  1.0 0.0991345342
H  H152  1  0.37670000  0.51980000  0.85730000  1.0 0.0991345342
H  H153  1  0.35690000  0.33750000  0.98020000  1.0 0.0991345342
H  H154  1  0.64270000  0.16250000  0.51940000  1.0 0.0991345342
H  H155  1  0.14310000  0.12330000  0.98060000  1.0 0.0991345342
H  H156  1  0.85730000  0.37670000  0.51980000  1.0 0.0991345342
H  H157  1  0.85730000  0.98060000  0.33750000  1.0 0.0991345342
H  H158  1  0.14310000  0.51980000  0.16250000  1.0 0.0991345342
H  H159  1  0.64270000  0.98020000  0.12330000  1.0 0.0991345342
H  H160  1  0.35690000  0.51940000  0.37670000  1.0 0.0991345342
H  H161  1  0.51940000  0.37670000  0.35690000  1.0 0.0991345342
H  H162  1  0.98020000  0.12330000  0.64270000  1.0 0.0991345342
H  H163  1  0.51980000  0.16250000  0.14310000  1.0 0.0991345342
H  H164  1  0.98060000  0.33750000  0.85730000  1.0 0.0991345342
H  H165  1  0.12330000  0.64270000  0.98020000  1.0 0.0991345342
H  H166  1  0.37670000  0.35690000  0.51940000  1.0 0.0991345342
H  H167  1  0.33750000  0.85730000  0.98060000  1.0 0.0991345342
H  H168  1  0.16250000  0.14310000  0.51980000  1.0 0.0991345342
H  H169  1  0.01980000  0.64310000  0.66250000  1.0 0.0991345342
H  H170  1  0.48060000  0.35730000  0.83750000  1.0 0.0991345342
H  H171  1  0.01940000  0.85690000  0.87670000  1.0 0.0991345342
H  H172  1  0.48020000  0.14270000  0.62330000  1.0 0.0991345342
H  H173  1  0.66250000  0.01980000  0.64310000  1.0 0.0991345342
H  H174  1  0.83750000  0.48060000  0.35730000  1.0 0.0991345342
H  H175  1  0.87670000  0.01940000  0.85690000  1.0 0.0991345342
H  H176  1  0.62330000  0.48020000  0.14270000  1.0 0.0991345342
H  H177  1  0.64310000  0.66250000  0.01980000  1.0 0.0991345342
H  H178  1  0.35730000  0.83750000  0.48060000  1.0 0.0991345342
H  H179  1  0.85690000  0.87670000  0.01940000  1.0 0.0991345342
H  H180  1  0.14270000  0.62330000  0.48020000  1.0 0.0991345342
H  H181  1  0.14270000  0.01940000  0.66250000  1.0 0.0991345342
H  H182  1  0.85690000  0.48020000  0.83750000  1.0 0.0991345342
H  H183  1  0.35730000  0.01980000  0.87670000  1.0 0.0991345342
H  H184  1  0.64310000  0.48060000  0.62330000  1.0 0.0991345342
H  H185  1  0.48060000  0.62330000  0.64310000  1.0 0.0991345342
H  H186  1  0.01980000  0.87670000  0.35730000  1.0 0.0991345342
H  H187  1  0.48020000  0.83750000  0.85690000  1.0 0.0991345342
H  H188  1  0.01940000  0.66250000  0.14270000  1.0 0.0991345342
H  H189  1  0.87670000  0.35730000  0.01980000  1.0 0.0991345342
H  H190  1  0.62330000  0.64310000  0.48060000  1.0 0.0991345342
H  H191  1  0.66250000  0.14270000  0.01940000  1.0 0.0991345342
H  H192  1  0.83750000  0.85690000  0.48020000  1.0 0.0991345342
H  H193  1  0.98800000  0.39320000  0.40820000  1.0 0.071256841
H  H194  1  0.48500000  0.57980000  0.09180000  1.0 0.071256841
H  H195  1  0.01500000  0.10680000  0.09480000  1.0 0.071256841
H  H196  1  0.51200000  0.92020000  0.40520000  1.0 0.071256841
H  H197  1  0.40820000  0.98800000  0.39320000  1.0 0.071256841
H  H198  1  0.09180000  0.48500000  0.57980000  1.0 0.071256841
H  H199  1  0.09480000  0.01500000  0.10680000  1.0 0.071256841
H  H200  1  0.40520000  0.51200000  0.92020000  1.0 0.071256841
H  H201  1  0.39320000  0.40820000  0.98800000  1.0 0.071256841
H  H202  1  0.57980000  0.09180000  0.48500000  1.0 0.071256841
H  H203  1  0.10680000  0.09480000  0.01500000  1.0 0.071256841
H  H204  1  0.92020000  0.40520000  0.51200000  1.0 0.071256841
H  H205  1  0.92020000  0.01500000  0.40820000  1.0 0.071256841
H  H206  1  0.10680000  0.51200000  0.09180000  1.0 0.071256841
H  H207  1  0.57980000  0.98800000  0.09480000  1.0 0.071256841
H  H208  1  0.39320000  0.48500000  0.40520000  1.0 0.071256841
H  H209  1  0.48500000  0.40520000  0.39320000  1.0 0.071256841
H  H210  1  0.98800000  0.09480000  0.57980000  1.0 0.071256841
H  H211  1  0.51200000  0.09180000  0.10680000  1.0 0.071256841
H  H212  1  0.01500000  0.40820000  0.92020000  1.0 0.071256841
H  H213  1  0.09480000  0.57980000  0.98800000  1.0 0.071256841
H  H214  1  0.40520000  0.39320000  0.48500000  1.0 0.071256841
H  H215  1  0.40820000  0.92020000  0.01500000  1.0 0.071256841
H  H216  1  0.09180000  0.10680000  0.51200000  1.0 0.071256841
H  H217  1  0.01200000  0.60680000  0.59180000  1.0 0.071256841
H  H218  1  0.51500000  0.42020000  0.90820000  1.0 0.071256841
H  H219  1  0.98500000  0.89320000  0.90520000  1.0 0.071256841
H  H220  1  0.48800000  0.07980000  0.59480000  1.0 0.071256841
H  H221  1  0.59180000  0.01200000  0.60680000  1.0 0.071256841
H  H222  1  0.90820000  0.51500000  0.42020000  1.0 0.071256841
H  H223  1  0.90520000  0.98500000  0.89320000  1.0 0.071256841
H  H224  1  0.59480000  0.48800000  0.07980000  1.0 0.071256841
H  H225  1  0.60680000  0.59180000  0.01200000  1.0 0.071256841
H  H226  1  0.42020000  0.90820000  0.51500000  1.0 0.071256841
H  H227  1  0.89320000  0.90520000  0.98500000  1.0 0.071256841
H  H228  1  0.07980000  0.59480000  0.48800000  1.0 0.071256841
H  H229  1  0.07980000  0.98500000  0.59180000  1.0 0.071256841
H  H230  1  0.89320000  0.48800000  0.90820000  1.0 0.071256841
H  H231  1  0.42020000  0.01200000  0.90520000  1.0 0.071256841
H  H232  1  0.60680000  0.51500000  0.59480000  1.0 0.071256841
H  H233  1  0.51500000  0.59480000  0.60680000  1.0 0.071256841
H  H234  1  0.01200000  0.90520000  0.42020000  1.0 0.071256841
H  H235  1  0.48800000  0.90820000  0.89320000  1.0 0.071256841
H  H236  1  0.98500000  0.59180000  0.07980000  1.0 0.071256841
H  H237  1  0.90520000  0.42020000  0.01200000  1.0 0.071256841
H  H238  1  0.59480000  0.60680000  0.51500000  1.0 0.071256841
H  H239  1  0.59180000  0.07980000  0.98500000  1.0 0.071256841
H  H240  1  0.90820000  0.89320000  0.48800000  1.0 0.071256841
H  H241  1  0.83060000  0.34920000  0.19220000  1.0 0.1607714254
H  H242  1  0.65700000  0.63840000  0.30780000  1.0 0.1607714254
H  H243  1  0.84300000  0.15080000  0.98140000  1.0 0.1607714254
H  H244  1  0.66940000  0.86160000  0.51860000  1.0 0.1607714254
H  H245  1  0.19220000  0.83060000  0.34920000  1.0 0.1607714254
H  H246  1  0.30780000  0.65700000  0.63840000  1.0 0.1607714254
H  H247  1  0.98140000  0.84300000  0.15080000  1.0 0.1607714254
H  H248  1  0.51860000  0.66940000  0.86160000  1.0 0.1607714254
H  H249  1  0.34920000  0.19220000  0.83060000  1.0 0.1607714254
H  H250  1  0.63840000  0.30780000  0.65700000  1.0 0.1607714254
H  H251  1  0.15080000  0.98140000  0.84300000  1.0 0.1607714254
H  H252  1  0.86160000  0.51860000  0.66940000  1.0 0.1607714254
H  H253  1  0.86160000  0.84300000  0.19220000  1.0 0.1607714254
H  H254  1  0.15080000  0.66940000  0.30780000  1.0 0.1607714254
H  H255  1  0.63840000  0.83060000  0.98140000  1.0 0.1607714254
H  H256  1  0.34920000  0.65700000  0.51860000  1.0 0.1607714254
H  H257  1  0.65700000  0.51860000  0.34920000  1.0 0.1607714254
H  H258  1  0.83060000  0.98140000  0.63840000  1.0 0.1607714254
H  H259  1  0.66940000  0.30780000  0.15080000  1.0 0.1607714254
H  H260  1  0.84300000  0.19220000  0.86160000  1.0 0.1607714254
H  H261  1  0.98140000  0.63840000  0.83060000  1.0 0.1607714254
H  H262  1  0.51860000  0.34920000  0.65700000  1.0 0.1607714254
H  H263  1  0.19220000  0.86160000  0.84300000  1.0 0.1607714254
H  H264  1  0.30780000  0.15080000  0.66940000  1.0 0.1607714254
H  H265  1  0.16940000  0.65080000  0.80780000  1.0 0.1607714254
H  H266  1  0.34300000  0.36160000  0.69220000  1.0 0.1607714254
H  H267  1  0.15700000  0.84920000  0.01860000  1.0 0.1607714254
H  H268  1  0.33060000  0.13840000  0.48140000  1.0 0.1607714254
H  H269  1  0.80780000  0.16940000  0.65080000  1.0 0.1607714254
H  H270  1  0.69220000  0.34300000  0.36160000  1.0 0.1607714254
H  H271  1  0.01860000  0.15700000  0.84920000  1.0 0.1607714254
H  H272  1  0.48140000  0.33060000  0.13840000  1.0 0.1607714254
H  H273  1  0.65080000  0.80780000  0.16940000  1.0 0.1607714254
H  H274  1  0.36160000  0.69220000  0.34300000  1.0 0.1607714254
H  H275  1  0.84920000  0.01860000  0.15700000  1.0 0.1607714254
H  H276  1  0.13840000  0.48140000  0.33060000  1.0 0.1607714254
H  H277  1  0.13840000  0.15700000  0.80780000  1.0 0.1607714254
H  H278  1  0.84920000  0.33060000  0.69220000  1.0 0.1607714254
H  H279  1  0.36160000  0.16940000  0.01860000  1.0 0.1607714254
H  H280  1  0.65080000  0.34300000  0.48140000  1.0 0.1607714254
H  H281  1  0.34300000  0.48140000  0.65080000  1.0 0.1607714254
H  H282  1  0.16940000  0.01860000  0.36160000  1.0 0.1607714254
H  H283  1  0.33060000  0.69220000  0.84920000  1.0 0.1607714254
H  H284  1  0.15700000  0.80780000  0.13840000  1.0 0.1607714254
H  H285  1  0.01860000  0.36160000  0.16940000  1.0 0.1607714254
H  H286  1  0.48140000  0.65080000  0.34300000  1.0 0.1607714254
H  H287  1  0.80780000  0.13840000  0.15700000  1.0 0.1607714254
H  H288  1  0.69220000  0.84920000  0.33060000  1.0 0.1607714254
H  H289  1  0.94700000  0.43960000  0.27640000  1.0 0.1191190211
H  H290  1  0.66320000  0.67060000  0.22360000  1.0 0.1191190211
H  H291  1  0.83680000  0.06040000  0.00740000  1.0 0.1191190211
H  H292  1  0.55300000  0.82940000  0.49260000  1.0 0.1191190211
H  H293  1  0.27640000  0.94700000  0.43960000  1.0 0.1191190211
H  H294  1  0.22360000  0.66320000  0.67060000  1.0 0.1191190211
H  H295  1  0.00740000  0.83680000  0.06040000  1.0 0.1191190211
H  H296  1  0.49260000  0.55300000  0.82940000  1.0 0.1191190211
H  H297  1  0.43960000  0.27640000  0.94700000  1.0 0.1191190211
H  H298  1  0.67060000  0.22360000  0.66320000  1.0 0.1191190211
H  H299  1  0.06040000  0.00740000  0.83680000  1.0 0.1191190211
H  H300  1  0.82940000  0.49260000  0.55300000  1.0 0.1191190211
H  H301  1  0.82940000  0.83680000  0.27640000  1.0 0.1191190211
H  H302  1  0.06040000  0.55300000  0.22360000  1.0 0.1191190211
H  H303  1  0.67060000  0.94700000  0.00740000  1.0 0.1191190211
H  H304  1  0.43960000  0.66320000  0.49260000  1.0 0.1191190211
H  H305  1  0.66320000  0.49260000  0.43960000  1.0 0.1191190211
H  H306  1  0.94700000  0.00740000  0.67060000  1.0 0.1191190211
H  H307  1  0.55300000  0.22360000  0.06040000  1.0 0.1191190211
H  H308  1  0.83680000  0.27640000  0.82940000  1.0 0.1191190211
H  H309  1  0.00740000  0.67060000  0.94700000  1.0 0.1191190211
H  H310  1  0.49260000  0.43960000  0.66320000  1.0 0.1191190211
H  H311  1  0.27640000  0.82940000  0.83680000  1.0 0.1191190211
H  H312  1  0.22360000  0.06040000  0.55300000  1.0 0.1191190211
H  H313  1  0.05300000  0.56040000  0.72360000  1.0 0.1191190211
H  H314  1  0.33680000  0.32940000  0.77640000  1.0 0.1191190211
H  H315  1  0.16320000  0.93960000  0.99260000  1.0 0.1191190211
H  H316  1  0.44700000  0.17060000  0.50740000  1.0 0.1191190211
H  H317  1  0.72360000  0.05300000  0.56040000  1.0 0.1191190211
H  H318  1  0.77640000  0.33680000  0.32940000  1.0 0.1191190211
H  H319  1  0.99260000  0.16320000  0.93960000  1.0 0.1191190211
H  H320  1  0.50740000  0.44700000  0.17060000  1.0 0.1191190211
H  H321  1  0.56040000  0.72360000  0.05300000  1.0 0.1191190211
H  H322  1  0.32940000  0.77640000  0.33680000  1.0 0.1191190211
H  H323  1  0.93960000  0.99260000  0.16320000  1.0 0.1191190211
H  H324  1  0.17060000  0.50740000  0.44700000  1.0 0.1191190211
H  H325  1  0.17060000  0.16320000  0.72360000  1.0 0.1191190211
H  H326  1  0.93960000  0.44700000  0.77640000  1.0 0.1191190211
H  H327  1  0.32940000  0.05300000  0.99260000  1.0 0.1191190211
H  H328  1  0.56040000  0.33680000  0.50740000  1.0 0.1191190211
H  H329  1  0.33680000  0.50740000  0.56040000  1.0 0.1191190211
H  H330  1  0.05300000  0.99260000  0.32940000  1.0 0.1191190211
H  H331  1  0.44700000  0.77640000  0.93960000  1.0 0.1191190211
H  H332  1  0.16320000  0.72360000  0.17060000  1.0 0.1191190211
H  H333  1  0.99260000  0.32940000  0.05300000  1.0 0.1191190211
H  H334  1  0.50740000  0.56040000  0.33680000  1.0 0.1191190211
H  H335  1  0.72360000  0.17060000  0.16320000  1.0 0.1191190211
H  H336  1  0.77640000  0.93960000  0.44700000  1.0 0.1191190211
H  H337  1  0.88970000  0.34790000  0.15520000  1.0 0.1191190211
H  H338  1  0.69270000  0.73450000  0.34480000  1.0 0.1191190211
H  H339  1  0.80730000  0.15210000  0.04180000  1.0 0.1191190211
H  H340  1  0.61030000  0.76550000  0.45820000  1.0 0.1191190211
H  H341  1  0.15520000  0.88970000  0.34790000  1.0 0.1191190211
H  H342  1  0.34480000  0.69270000  0.73450000  1.0 0.1191190211
H  H343  1  0.04180000  0.80730000  0.15210000  1.0 0.1191190211
H  H344  1  0.45820000  0.61030000  0.76550000  1.0 0.1191190211
H  H345  1  0.34790000  0.15520000  0.88970000  1.0 0.1191190211
H  H346  1  0.73450000  0.34480000  0.69270000  1.0 0.1191190211
H  H347  1  0.15210000  0.04180000  0.80730000  1.0 0.1191190211
H  H348  1  0.76550000  0.45820000  0.61030000  1.0 0.1191190211
H  H349  1  0.76550000  0.80730000  0.15520000  1.0 0.1191190211
H  H350  1  0.15210000  0.61030000  0.34480000  1.0 0.1191190211
H  H351  1  0.73450000  0.88970000  0.04180000  1.0 0.1191190211
H  H352  1  0.34790000  0.69270000  0.45820000  1.0 0.1191190211
H  H353  1  0.69270000  0.45820000  0.34790000  1.0 0.1191190211
H  H354  1  0.88970000  0.04180000  0.73450000  1.0 0.1191190211
H  H355  1  0.61030000  0.34480000  0.15210000  1.0 0.1191190211
H  H356  1  0.80730000  0.15520000  0.76550000  1.0 0.1191190211
H  H357  1  0.04180000  0.73450000  0.88970000  1.0 0.1191190211
H  H358  1  0.45820000  0.34790000  0.69270000  1.0 0.1191190211
H  H359  1  0.15520000  0.76550000  0.80730000  1.0 0.1191190211
H  H360  1  0.34480000  0.15210000  0.61030000  1.0 0.1191190211
H  H361  1  0.11030000  0.65210000  0.84480000  1.0 0.1191190211
H  H362  1  0.30730000  0.26550000  0.65520000  1.0 0.1191190211
H  H363  1  0.19270000  0.84790000  0.95820000  1.0 0.1191190211
H  H364  1  0.38970000  0.23450000  0.54180000  1.0 0.1191190211
H  H365  1  0.84480000  0.11030000  0.65210000  1.0 0.1191190211
H  H366  1  0.65520000  0.30730000  0.26550000  1.0 0.1191190211
H  H367  1  0.95820000  0.19270000  0.84790000  1.0 0.1191190211
H  H368  1  0.54180000  0.38970000  0.23450000  1.0 0.1191190211
H  H369  1  0.65210000  0.84480000  0.11030000  1.0 0.1191190211
H  H370  1  0.26550000  0.65520000  0.30730000  1.0 0.1191190211
H  H371  1  0.84790000  0.95820000  0.19270000  1.0 0.1191190211
H  H372  1  0.23450000  0.54180000  0.38970000  1.0 0.1191190211
H  H373  1  0.23450000  0.19270000  0.84480000  1.0 0.1191190211
H  H374  1  0.84790000  0.38970000  0.65520000  1.0 0.1191190211
H  H375  1  0.26550000  0.11030000  0.95820000  1.0 0.1191190211
H  H376  1  0.65210000  0.30730000  0.54180000  1.0 0.1191190211
H  H377  1  0.30730000  0.54180000  0.65210000  1.0 0.1191190211
H  H378  1  0.11030000  0.95820000  0.26550000  1.0 0.1191190211
H  H379  1  0.38970000  0.65520000  0.84790000  1.0 0.1191190211
H  H380  1  0.19270000  0.84480000  0.23450000  1.0 0.1191190211
H  H381  1  0.95820000  0.26550000  0.11030000  1.0 0.1191190211
H  H382  1  0.54180000  0.65210000  0.30730000  1.0 0.1191190211
H  H383  1  0.84480000  0.23450000  0.19270000  1.0 0.1191190211
H  H384  1  0.65520000  0.84790000  0.38970000  1.0 0.1191190211
H  H385  1  0.89640000  0.29480000  0.10780000  1.0 0.1191190211
H  H386  1  0.68700000  0.78860000  0.39220000  1.0 0.1191190211
H  H387  1  0.81300000  0.20520000  0.10160000  1.0 0.1191190211
H  H388  1  0.60360000  0.71140000  0.39840000  1.0 0.1191190211
H  H389  1  0.10780000  0.89640000  0.29480000  1.0 0.1191190211
H  H390  1  0.39220000  0.68700000  0.78860000  1.0 0.1191190211
H  H391  1  0.10160000  0.81300000  0.20520000  1.0 0.1191190211
H  H392  1  0.39840000  0.60360000  0.71140000  1.0 0.1191190211
H  H393  1  0.29480000  0.10780000  0.89640000  1.0 0.1191190211
H  H394  1  0.78860000  0.39220000  0.68700000  1.0 0.1191190211
H  H395  1  0.20520000  0.10160000  0.81300000  1.0 0.1191190211
H  H396  1  0.71140000  0.39840000  0.60360000  1.0 0.1191190211
H  H397  1  0.71140000  0.81300000  0.10780000  1.0 0.1191190211
H  H398  1  0.20520000  0.60360000  0.39220000  1.0 0.1191190211
H  H399  1  0.78860000  0.89640000  0.10160000  1.0 0.1191190211
H  H400  1  0.29480000  0.68700000  0.39840000  1.0 0.1191190211
H  H401  1  0.68700000  0.39840000  0.29480000  1.0 0.1191190211
H  H402  1  0.89640000  0.10160000  0.78860000  1.0 0.1191190211
H  H403  1  0.60360000  0.39220000  0.20520000  1.0 0.1191190211
H  H404  1  0.81300000  0.10780000  0.71140000  1.0 0.1191190211
H  H405  1  0.10160000  0.78860000  0.89640000  1.0 0.1191190211
H  H406  1  0.39840000  0.29480000  0.68700000  1.0 0.1191190211
H  H407  1  0.10780000  0.71140000  0.81300000  1.0 0.1191190211
H  H408  1  0.39220000  0.20520000  0.60360000  1.0 0.1191190211
H  H409  1  0.10360000  0.70520000  0.89220000  1.0 0.1191190211
H  H410  1  0.31300000  0.21140000  0.60780000  1.0 0.1191190211
H  H411  1  0.18700000  0.79480000  0.89840000  1.0 0.1191190211
H  H412  1  0.39640000  0.28860000  0.60160000  1.0 0.1191190211
H  H413  1  0.89220000  0.10360000  0.70520000  1.0 0.1191190211
H  H414  1  0.60780000  0.31300000  0.21140000  1.0 0.1191190211
H  H415  1  0.89840000  0.18700000  0.79480000  1.0 0.1191190211
H  H416  1  0.60160000  0.39640000  0.28860000  1.0 0.1191190211
H  H417  1  0.70520000  0.89220000  0.10360000  1.0 0.1191190211
H  H418  1  0.21140000  0.60780000  0.31300000  1.0 0.1191190211
H  H419  1  0.79480000  0.89840000  0.18700000  1.0 0.1191190211
H  H420  1  0.28860000  0.60160000  0.39640000  1.0 0.1191190211
H  H421  1  0.28860000  0.18700000  0.89220000  1.0 0.1191190211
H  H422  1  0.79480000  0.39640000  0.60780000  1.0 0.1191190211
H  H423  1  0.21140000  0.10360000  0.89840000  1.0 0.1191190211
H  H424  1  0.70520000  0.31300000  0.60160000  1.0 0.1191190211
H  H425  1  0.31300000  0.60160000  0.70520000  1.0 0.1191190211
H  H426  1  0.10360000  0.89840000  0.21140000  1.0 0.1191190211
H  H427  1  0.39640000  0.60780000  0.79480000  1.0 0.1191190211
H  H428  1  0.18700000  0.89220000  0.28860000  1.0 0.1191190211
H  H429  1  0.89840000  0.21140000  0.10360000  1.0 0.1191190211
H  H430  1  0.60160000  0.70520000  0.31300000  1.0 0.1191190211
H  H431  1  0.89220000  0.28860000  0.18700000  1.0 0.1191190211
H  H432  1  0.60780000  0.79480000  0.39640000  1.0 0.1191190211
H  H433  1  0.80030000  0.28130000  0.00380000  1.0 0.1093315916
H  H434  1  0.77750000  0.79650000  0.49620000  1.0 0.1093315916
H  H435  1  0.72250000  0.21870000  0.01900000  1.0 0.1093315916
H  H436  1  0.69970000  0.70350000  0.48100000  1.0 0.1093315916
H  H437  1  0.00380000  0.80030000  0.28130000  1.0 0.1093315916
H  H438  1  0.49620000  0.77750000  0.79650000  1.0 0.1093315916
H  H439  1  0.01900000  0.72250000  0.21870000  1.0 0.1093315916
H  H440  1  0.48100000  0.69970000  0.70350000  1.0 0.1093315916
H  H441  1  0.28130000  0.00380000  0.80030000  1.0 0.1093315916
H  H442  1  0.79650000  0.49620000  0.77750000  1.0 0.1093315916
H  H443  1  0.21870000  0.01900000  0.72250000  1.0 0.1093315916
H  H444  1  0.70350000  0.48100000  0.69970000  1.0 0.1093315916
H  H445  1  0.70350000  0.72250000  0.00380000  1.0 0.1093315916
H  H446  1  0.21870000  0.69970000  0.49620000  1.0 0.1093315916
H  H447  1  0.79650000  0.80030000  0.01900000  1.0 0.1093315916
H  H448  1  0.28130000  0.77750000  0.48100000  1.0 0.1093315916
H  H449  1  0.77750000  0.48100000  0.28130000  1.0 0.1093315916
H  H450  1  0.80030000  0.01900000  0.79650000  1.0 0.1093315916
H  H451  1  0.69970000  0.49620000  0.21870000  1.0 0.1093315916
H  H452  1  0.72250000  0.00380000  0.70350000  1.0 0.1093315916
H  H453  1  0.01900000  0.79650000  0.80030000  1.0 0.1093315916
H  H454  1  0.48100000  0.28130000  0.77750000  1.0 0.1093315916
H  H455  1  0.00380000  0.70350000  0.72250000  1.0 0.1093315916
H  H456  1  0.49620000  0.21870000  0.69970000  1.0 0.1093315916
H  H457  1  0.19970000  0.71870000  0.99620000  1.0 0.1093315916
H  H458  1  0.22250000  0.20350000  0.50380000  1.0 0.1093315916
H  H459  1  0.27750000  0.78130000  0.98100000  1.0 0.1093315916
H  H460  1  0.30030000  0.29650000  0.51900000  1.0 0.1093315916
H  H461  1  0.99620000  0.19970000  0.71870000  1.0 0.1093315916
H  H462  1  0.50380000  0.22250000  0.20350000  1.0 0.1093315916
H  H463  1  0.98100000  0.27750000  0.78130000  1.0 0.1093315916
H  H464  1  0.51900000  0.30030000  0.29650000  1.0 0.1093315916
H  H465  1  0.71870000  0.99620000  0.19970000  1.0 0.1093315916
H  H466  1  0.20350000  0.50380000  0.22250000  1.0 0.1093315916
H  H467  1  0.78130000  0.98100000  0.27750000  1.0 0.1093315916
H  H468  1  0.29650000  0.51900000  0.30030000  1.0 0.1093315916
H  H469  1  0.29650000  0.27750000  0.99620000  1.0 0.1093315916
H  H470  1  0.78130000  0.30030000  0.50380000  1.0 0.1093315916
H  H471  1  0.20350000  0.19970000  0.98100000  1.0 0.1093315916
H  H472  1  0.71870000  0.22250000  0.51900000  1.0 0.1093315916
H  H473  1  0.22250000  0.51900000  0.71870000  1.0 0.1093315916
H  H474  1  0.19970000  0.98100000  0.20350000  1.0 0.1093315916
H  H475  1  0.30030000  0.50380000  0.78130000  1.0 0.1093315916
H  H476  1  0.27750000  0.99620000  0.29650000  1.0 0.1093315916
H  H477  1  0.98100000  0.20350000  0.19970000  1.0 0.1093315916
H  H478  1  0.51900000  0.71870000  0.22250000  1.0 0.1093315916
H  H479  1  0.99620000  0.29650000  0.27750000  1.0 0.1093315916
H  H480  1  0.50380000  0.78130000  0.30030000  1.0 0.1093315916
H  H481  1  0.79490000  0.33550000  0.05100000  1.0 0.1264458499
H  H482  1  0.78450000  0.74390000  0.44900000  1.0 0.1264458499
H  H483  1  0.71550000  0.16450000  0.95940000  1.0 0.1264458499
H  H484  1  0.70510000  0.75610000  0.54060000  1.0 0.1264458499
H  H485  1  0.05100000  0.79490000  0.33550000  1.0 0.1264458499
H  H486  1  0.44900000  0.78450000  0.74390000  1.0 0.1264458499
H  H487  1  0.95940000  0.71550000  0.16450000  1.0 0.1264458499
H  H488  1  0.54060000  0.70510000  0.75610000  1.0 0.1264458499
H  H489  1  0.33550000  0.05100000  0.79490000  1.0 0.1264458499
H  H490  1  0.74390000  0.44900000  0.78450000  1.0 0.1264458499
H  H491  1  0.16450000  0.95940000  0.71550000  1.0 0.1264458499
H  H492  1  0.75610000  0.54060000  0.70510000  1.0 0.1264458499
H  H493  1  0.75610000  0.71550000  0.05100000  1.0 0.1264458499
H  H494  1  0.16450000  0.70510000  0.44900000  1.0 0.1264458499
H  H495  1  0.74390000  0.79490000  0.95940000  1.0 0.1264458499
H  H496  1  0.33550000  0.78450000  0.54060000  1.0 0.1264458499
H  H497  1  0.78450000  0.54060000  0.33550000  1.0 0.1264458499
H  H498  1  0.79490000  0.95940000  0.74390000  1.0 0.1264458499
H  H499  1  0.70510000  0.44900000  0.16450000  1.0 0.1264458499
H  H500  1  0.71550000  0.05100000  0.75610000  1.0 0.1264458499
H  H501  1  0.95940000  0.74390000  0.79490000  1.0 0.1264458499
H  H502  1  0.54060000  0.33550000  0.78450000  1.0 0.1264458499
H  H503  1  0.05100000  0.75610000  0.71550000  1.0 0.1264458499
H  H504  1  0.44900000  0.16450000  0.70510000  1.0 0.1264458499
H  H505  1  0.20510000  0.66450000  0.94900000  1.0 0.1264458499
H  H506  1  0.21550000  0.25610000  0.55100000  1.0 0.1264458499
H  H507  1  0.28450000  0.83550000  0.04060000  1.0 0.1264458499
H  H508  1  0.29490000  0.24390000  0.45940000  1.0 0.1264458499
H  H509  1  0.94900000  0.20510000  0.66450000  1.0 0.1264458499
H  H510  1  0.55100000  0.21550000  0.25610000  1.0 0.1264458499
H  H511  1  0.04060000  0.28450000  0.83550000  1.0 0.1264458499
H  H512  1  0.45940000  0.29490000  0.24390000  1.0 0.1264458499
H  H513  1  0.66450000  0.94900000  0.20510000  1.0 0.1264458499
H  H514  1  0.25610000  0.55100000  0.21550000  1.0 0.1264458499
H  H515  1  0.83550000  0.04060000  0.28450000  1.0 0.1264458499
H  H516  1  0.24390000  0.45940000  0.29490000  1.0 0.1264458499
H  H517  1  0.24390000  0.28450000  0.94900000  1.0 0.1264458499
H  H518  1  0.83550000  0.29490000  0.55100000  1.0 0.1264458499
H  H519  1  0.25610000  0.20510000  0.04060000  1.0 0.1264458499
H  H520  1  0.66450000  0.21550000  0.45940000  1.0 0.1264458499
H  H521  1  0.21550000  0.45940000  0.66450000  1.0 0.1264458499
H  H522  1  0.20510000  0.04060000  0.25610000  1.0 0.1264458499
H  H523  1  0.29490000  0.55100000  0.83550000  1.0 0.1264458499
H  H524  1  0.28450000  0.94900000  0.24390000  1.0 0.1264458499
H  H525  1  0.04060000  0.25610000  0.20510000  1.0 0.1264458499
H  H526  1  0.45940000  0.66450000  0.21550000  1.0 0.1264458499
H  H527  1  0.94900000  0.24390000  0.28450000  1.0 0.1264458499
H  H528  1  0.55100000  0.83550000  0.29490000  1.0 0.1264458499
H  H529  1  0.90410000  0.43390000  0.12840000  1.0 0.0506389114
H  H530  1  0.80550000  0.77570000  0.37160000  1.0 0.0506389114
H  H531  1  0.69450000  0.06610000  0.97020000  1.0 0.0506389114
H  H532  1  0.59590000  0.72430000  0.52980000  1.0 0.0506389114
H  H533  1  0.12840000  0.90410000  0.43390000  1.0 0.0506389114
H  H534  1  0.37160000  0.80550000  0.77570000  1.0 0.0506389114
H  H535  1  0.97020000  0.69450000  0.06610000  1.0 0.0506389114
H  H536  1  0.52980000  0.59590000  0.72430000  1.0 0.0506389114
H  H537  1  0.43390000  0.12840000  0.90410000  1.0 0.0506389114
H  H538  1  0.77570000  0.37160000  0.80550000  1.0 0.0506389114
H  H539  1  0.06610000  0.97020000  0.69450000  1.0 0.0506389114
H  H540  1  0.72430000  0.52980000  0.59590000  1.0 0.0506389114
H  H541  1  0.72430000  0.69450000  0.12840000  1.0 0.0506389114
H  H542  1  0.06610000  0.59590000  0.37160000  1.0 0.0506389114
H  H543  1  0.77570000  0.90410000  0.97020000  1.0 0.0506389114
H  H544  1  0.43390000  0.80550000  0.52980000  1.0 0.0506389114
H  H545  1  0.80550000  0.52980000  0.43390000  1.0 0.0506389114
H  H546  1  0.90410000  0.97020000  0.77570000  1.0 0.0506389114
H  H547  1  0.59590000  0.37160000  0.06610000  1.0 0.0506389114
H  H548  1  0.69450000  0.12840000  0.72430000  1.0 0.0506389114
H  H549  1  0.97020000  0.77570000  0.90410000  1.0 0.0506389114
H  H550  1  0.52980000  0.43390000  0.80550000  1.0 0.0506389114
H  H551  1  0.12840000  0.72430000  0.69450000  1.0 0.0506389114
H  H552  1  0.37160000  0.06610000  0.59590000  1.0 0.0506389114
H  H553  1  0.09590000  0.56610000  0.87160000  1.0 0.0506389114
H  H554  1  0.19450000  0.22430000  0.62840000  1.0 0.0506389114
H  H555  1  0.30550000  0.93390000  0.02980000  1.0 0.0506389114
H  H556  1  0.40410000  0.27570000  0.47020000  1.0 0.0506389114
H  H557  1  0.87160000  0.09590000  0.56610000  1.0 0.0506389114
H  H558  1  0.62840000  0.19450000  0.22430000  1.0 0.0506389114
H  H559  1  0.02980000  0.30550000  0.93390000  1.0 0.0506389114
H  H560  1  0.47020000  0.40410000  0.27570000  1.0 0.0506389114
H  H561  1  0.56610000  0.87160000  0.09590000  1.0 0.0506389114
H  H562  1  0.22430000  0.62840000  0.19450000  1.0 0.0506389114
H  H563  1  0.93390000  0.02980000  0.30550000  1.0 0.0506389114
H  H564  1  0.27570000  0.47020000  0.40410000  1.0 0.0506389114
H  H565  1  0.27570000  0.30550000  0.87160000  1.0 0.0506389114
H  H566  1  0.93390000  0.40410000  0.62840000  1.0 0.0506389114
H  H567  1  0.22430000  0.09590000  0.02980000  1.0 0.0506389114
H  H568  1  0.56610000  0.19450000  0.47020000  1.0 0.0506389114
H  H569  1  0.19450000  0.47020000  0.56610000  1.0 0.0506389114
H  H570  1  0.09590000  0.02980000  0.22430000  1.0 0.0506389114
H  H571  1  0.40410000  0.62840000  0.93390000  1.0 0.0506389114
H  H572  1  0.30550000  0.87160000  0.27570000  1.0 0.0506389114
H  H573  1  0.02980000  0.22430000  0.09590000  1.0 0.0506389114
H  H574  1  0.47020000  0.56610000  0.19450000  1.0 0.0506389114
H  H575  1  0.87160000  0.27570000  0.30550000  1.0 0.0506389114
H  H576  1  0.62840000  0.93390000  0.40410000  1.0 0.0506389114
H  H577  1  0.95290000  0.47020000  0.16490000  1.0 0.079106117
H  H578  1  0.80530000  0.78800000  0.33510000  1.0 0.079106117
H  H579  1  0.69470000  0.02980000  0.98270000  1.0 0.079106117
H  H580  1  0.54710000  0.71200000  0.51730000  1.0 0.079106117
H  H581  1  0.16490000  0.95290000  0.47020000  1.0 0.079106117
H  H582  1  0.33510000  0.80530000  0.78800000  1.0 0.079106117
H  H583  1  0.98270000  0.69470000  0.02980000  1.0 0.079106117
H  H584  1  0.51730000  0.54710000  0.71200000  1.0 0.079106117
H  H585  1  0.47020000  0.16490000  0.95290000  1.0 0.079106117
H  H586  1  0.78800000  0.33510000  0.80530000  1.0 0.079106117
H  H587  1  0.02980000  0.98270000  0.69470000  1.0 0.079106117
H  H588  1  0.71200000  0.51730000  0.54710000  1.0 0.079106117
H  H589  1  0.71200000  0.69470000  0.16490000  1.0 0.079106117
H  H590  1  0.02980000  0.54710000  0.33510000  1.0 0.079106117
H  H591  1  0.78800000  0.95290000  0.98270000  1.0 0.079106117
H  H592  1  0.47020000  0.80530000  0.51730000  1.0 0.079106117
H  H593  1  0.80530000  0.51730000  0.47020000  1.0 0.079106117
H  H594  1  0.95290000  0.98270000  0.78800000  1.0 0.079106117
H  H595  1  0.54710000  0.33510000  0.02980000  1.0 0.079106117
H  H596  1  0.69470000  0.16490000  0.71200000  1.0 0.079106117
H  H597  1  0.98270000  0.78800000  0.95290000  1.0 0.079106117
H  H598  1  0.51730000  0.47020000  0.80530000  1.0 0.079106117
H  H599  1  0.16490000  0.71200000  0.69470000  1.0 0.079106117
H  H600  1  0.33510000  0.02980000  0.54710000  1.0 0.079106117
H  H601  1  0.04710000  0.52980000  0.83510000  1.0 0.079106117
H  H602  1  0.19470000  0.21200000  0.66490000  1.0 0.079106117
H  H603  1  0.30530000  0.97020000  0.01730000  1.0 0.079106117
H  H604  1  0.45290000  0.28800000  0.48270000  1.0 0.079106117
H  H605  1  0.83510000  0.04710000  0.52980000  1.0 0.079106117
H  H606  1  0.66490000  0.19470000  0.21200000  1.0 0.079106117
H  H607  1  0.01730000  0.30530000  0.97020000  1.0 0.079106117
H  H608  1  0.48270000  0.45290000  0.28800000  1.0 0.079106117
H  H609  1  0.52980000  0.83510000  0.04710000  1.0 0.079106117
H  H610  1  0.21200000  0.66490000  0.19470000  1.0 0.079106117
H  H611  1  0.97020000  0.01730000  0.30530000  1.0 0.079106117
H  H612  1  0.28800000  0.48270000  0.45290000  1.0 0.079106117
H  H613  1  0.28800000  0.30530000  0.83510000  1.0 0.079106117
H  H614  1  0.97020000  0.45290000  0.66490000  1.0 0.079106117
H  H615  1  0.21200000  0.04710000  0.01730000  1.0 0.079106117
H  H616  1  0.52980000  0.19470000  0.48270000  1.0 0.079106117
H  H617  1  0.19470000  0.48270000  0.52980000  1.0 0.079106117
H  H618  1  0.04710000  0.01730000  0.21200000  1.0 0.079106117
H  H619  1  0.45290000  0.66490000  0.97020000  1.0 0.079106117
H  H620  1  0.30530000  0.83510000  0.28800000  1.0 0.079106117
H  H621  1  0.01730000  0.21200000  0.04710000  1.0 0.079106117
H  H622  1  0.48270000  0.52980000  0.19470000  1.0 0.079106117
H  H623  1  0.83510000  0.28800000  0.30530000  1.0 0.079106117
H  H624  1  0.66490000  0.97020000  0.45290000  1.0 0.079106117
H  H625  1  0.92690000  0.51960000  0.19190000  1.0 0.0596220977
H  H626  1  0.82770000  0.73500000  0.30810000  1.0 0.0596220977
H  H627  1  0.67230000  0.98040000  0.90730000  1.0 0.0596220977
H  H628  1  0.57310000  0.76500000  0.59270000  1.0 0.0596220977
H  H629  1  0.19190000  0.92690000  0.51960000  1.0 0.0596220977
H  H630  1  0.30810000  0.82770000  0.73500000  1.0 0.0596220977
H  H631  1  0.90730000  0.67230000  0.98040000  1.0 0.0596220977
H  H632  1  0.59270000  0.57310000  0.76500000  1.0 0.0596220977
H  H633  1  0.51960000  0.19190000  0.92690000  1.0 0.0596220977
H  H634  1  0.73500000  0.30810000  0.82770000  1.0 0.0596220977
H  H635  1  0.98040000  0.90730000  0.67230000  1.0 0.0596220977
H  H636  1  0.76500000  0.59270000  0.57310000  1.0 0.0596220977
H  H637  1  0.76500000  0.67230000  0.19190000  1.0 0.0596220977
H  H638  1  0.98040000  0.57310000  0.30810000  1.0 0.0596220977
H  H639  1  0.73500000  0.92690000  0.90730000  1.0 0.0596220977
H  H640  1  0.51960000  0.82770000  0.59270000  1.0 0.0596220977
H  H641  1  0.82770000  0.59270000  0.51960000  1.0 0.0596220977
H  H642  1  0.92690000  0.90730000  0.73500000  1.0 0.0596220977
H  H643  1  0.57310000  0.30810000  0.98040000  1.0 0.0596220977
H  H644  1  0.67230000  0.19190000  0.76500000  1.0 0.0596220977
H  H645  1  0.90730000  0.73500000  0.92690000  1.0 0.0596220977
H  H646  1  0.59270000  0.51960000  0.82770000  1.0 0.0596220977
H  H647  1  0.19190000  0.76500000  0.67230000  1.0 0.0596220977
H  H648  1  0.30810000  0.98040000  0.57310000  1.0 0.0596220977
H  H649  1  0.07310000  0.48040000  0.80810000  1.0 0.0596220977
H  H650  1  0.17230000  0.26500000  0.69190000  1.0 0.0596220977
H  H651  1  0.32770000  0.01960000  0.09270000  1.0 0.0596220977
H  H652  1  0.42690000  0.23500000  0.40730000  1.0 0.0596220977
H  H653  1  0.80810000  0.07310000  0.48040000  1.0 0.0596220977
H  H654  1  0.69190000  0.17230000  0.26500000  1.0 0.0596220977
H  H655  1  0.09270000  0.32770000  0.01960000  1.0 0.0596220977
H  H656  1  0.40730000  0.42690000  0.23500000  1.0 0.0596220977
H  H657  1  0.48040000  0.80810000  0.07310000  1.0 0.0596220977
H  H658  1  0.26500000  0.69190000  0.17230000  1.0 0.0596220977
H  H659  1  0.01960000  0.09270000  0.32770000  1.0 0.0596220977
H  H660  1  0.23500000  0.40730000  0.42690000  1.0 0.0596220977
H  H661  1  0.23500000  0.32770000  0.80810000  1.0 0.0596220977
H  H662  1  0.01960000  0.42690000  0.69190000  1.0 0.0596220977
H  H663  1  0.26500000  0.07310000  0.09270000  1.0 0.0596220977
H  H664  1  0.48040000  0.17230000  0.40730000  1.0 0.0596220977
H  H665  1  0.17230000  0.40730000  0.48040000  1.0 0.0596220977
H  H666  1  0.07310000  0.09270000  0.26500000  1.0 0.0596220977
H  H667  1  0.42690000  0.69190000  0.01960000  1.0 0.0596220977
H  H668  1  0.32770000  0.80810000  0.23500000  1.0 0.0596220977
H  H669  1  0.09270000  0.26500000  0.07310000  1.0 0.0596220977
H  H670  1  0.40730000  0.48040000  0.17230000  1.0 0.0596220977
H  H671  1  0.80810000  0.23500000  0.32770000  1.0 0.0596220977
H  H672  1  0.69190000  0.01960000  0.42690000  1.0 0.0596220977
H  H673  1  0.87800000  0.48250000  0.15390000  1.0 0.079106117
H  H674  1  0.82860000  0.72410000  0.34610000  1.0 0.079106117
H  H675  1  0.67140000  0.01750000  0.89550000  1.0 0.079106117
H  H676  1  0.62200000  0.77590000  0.60450000  1.0 0.079106117
H  H677  1  0.15390000  0.87800000  0.48250000  1.0 0.079106117
H  H678  1  0.34610000  0.82860000  0.72410000  1.0 0.079106117
H  H679  1  0.89550000  0.67140000  0.01750000  1.0 0.079106117
H  H680  1  0.60450000  0.62200000  0.77590000  1.0 0.079106117
H  H681  1  0.48250000  0.15390000  0.87800000  1.0 0.079106117
H  H682  1  0.72410000  0.34610000  0.82860000  1.0 0.079106117
H  H683  1  0.01750000  0.89550000  0.67140000  1.0 0.079106117
H  H684  1  0.77590000  0.60450000  0.62200000  1.0 0.079106117
H  H685  1  0.77590000  0.67140000  0.15390000  1.0 0.079106117
H  H686  1  0.01750000  0.62200000  0.34610000  1.0 0.079106117
H  H687  1  0.72410000  0.87800000  0.89550000  1.0 0.079106117
H  H688  1  0.48250000  0.82860000  0.60450000  1.0 0.079106117
H  H689  1  0.82860000  0.60450000  0.48250000  1.0 0.079106117
H  H690  1  0.87800000  0.89550000  0.72410000  1.0 0.079106117
H  H691  1  0.62200000  0.34610000  0.01750000  1.0 0.079106117
H  H692  1  0.67140000  0.15390000  0.77590000  1.0 0.079106117
H  H693  1  0.89550000  0.72410000  0.87800000  1.0 0.079106117
H  H694  1  0.60450000  0.48250000  0.82860000  1.0 0.079106117
H  H695  1  0.15390000  0.77590000  0.67140000  1.0 0.079106117
H  H696  1  0.34610000  0.01750000  0.62200000  1.0 0.079106117
H  H697  1  0.12200000  0.51750000  0.84610000  1.0 0.079106117
H  H698  1  0.17140000  0.27590000  0.65390000  1.0 0.079106117
H  H699  1  0.32860000  0.98250000  0.10450000  1.0 0.079106117
H  H700  1  0.37800000  0.22410000  0.39550000  1.0 0.079106117
H  H701  1  0.84610000  0.12200000  0.51750000  1.0 0.079106117
H  H702  1  0.65390000  0.17140000  0.27590000  1.0 0.079106117
H  H703  1  0.10450000  0.32860000  0.98250000  1.0 0.079106117
H  H704  1  0.39550000  0.37800000  0.22410000  1.0 0.079106117
H  H705  1  0.51750000  0.84610000  0.12200000  1.0 0.079106117
H  H706  1  0.27590000  0.65390000  0.17140000  1.0 0.079106117
H  H707  1  0.98250000  0.10450000  0.32860000  1.0 0.079106117
H  H708  1  0.22410000  0.39550000  0.37800000  1.0 0.079106117
H  H709  1  0.22410000  0.32860000  0.84610000  1.0 0.079106117
H  H710  1  0.98250000  0.37800000  0.65390000  1.0 0.079106117
H  H711  1  0.27590000  0.12200000  0.10450000  1.0 0.079106117
H  H712  1  0.51750000  0.17140000  0.39550000  1.0 0.079106117
H  H713  1  0.17140000  0.39550000  0.51750000  1.0 0.079106117
H  H714  1  0.12200000  0.10450000  0.27590000  1.0 0.079106117
H  H715  1  0.37800000  0.65390000  0.98250000  1.0 0.079106117
H  H716  1  0.32860000  0.84610000  0.22410000  1.0 0.079106117
H  H717  1  0.10450000  0.27590000  0.12200000  1.0 0.079106117
H  H718  1  0.39550000  0.51750000  0.17140000  1.0 0.079106117
H  H719  1  0.84610000  0.22410000  0.32860000  1.0 0.079106117
H  H720  1  0.65390000  0.98250000  0.37800000  1.0 0.079106117
H  H721  1  0.90290000  0.48470000  0.10040000  1.0 0.0390981126
H  H722  1  0.88430000  0.80250000  0.39960000  1.0 0.0390981126
H  H723  1  0.61570000  0.01530000  0.91820000  1.0 0.0390981126
H  H724  1  0.59710000  0.69750000  0.58180000  1.0 0.0390981126
H  H725  1  0.10040000  0.90290000  0.48470000  1.0 0.0390981126
H  H726  1  0.39960000  0.88430000  0.80250000  1.0 0.0390981126
H  H727  1  0.91820000  0.61570000  0.01530000  1.0 0.0390981126
H  H728  1  0.58180000  0.59710000  0.69750000  1.0 0.0390981126
H  H729  1  0.48470000  0.10040000  0.90290000  1.0 0.0390981126
H  H730  1  0.80250000  0.39960000  0.88430000  1.0 0.0390981126
H  H731  1  0.01530000  0.91820000  0.61570000  1.0 0.0390981126
H  H732  1  0.69750000  0.58180000  0.59710000  1.0 0.0390981126
H  H733  1  0.69750000  0.61570000  0.10040000  1.0 0.0390981126
H  H734  1  0.01530000  0.59710000  0.39960000  1.0 0.0390981126
H  H735  1  0.80250000  0.90290000  0.91820000  1.0 0.0390981126
H  H736  1  0.48470000  0.88430000  0.58180000  1.0 0.0390981126
H  H737  1  0.88430000  0.58180000  0.48470000  1.0 0.0390981126
H  H738  1  0.90290000  0.91820000  0.80250000  1.0 0.0390981126
H  H739  1  0.59710000  0.39960000  0.01530000  1.0 0.0390981126
H  H740  1  0.61570000  0.10040000  0.69750000  1.0 0.0390981126
H  H741  1  0.91820000  0.80250000  0.90290000  1.0 0.0390981126
H  H742  1  0.58180000  0.48470000  0.88430000  1.0 0.0390981126
H  H743  1  0.10040000  0.69750000  0.61570000  1.0 0.0390981126
H  H744  1  0.39960000  0.01530000  0.59710000  1.0 0.0390981126
H  H745  1  0.09710000  0.51530000  0.89960000  1.0 0.0390981126
H  H746  1  0.11570000  0.19750000  0.60040000  1.0 0.0390981126
H  H747  1  0.38430000  0.98470000  0.08180000  1.0 0.0390981126
H  H748  1  0.40290000  0.30250000  0.41820000  1.0 0.0390981126
H  H749  1  0.89960000  0.09710000  0.51530000  1.0 0.0390981126
H  H750  1  0.60040000  0.11570000  0.19750000  1.0 0.0390981126
H  H751  1  0.08180000  0.38430000  0.98470000  1.0 0.0390981126
H  H752  1  0.41820000  0.40290000  0.30250000  1.0 0.0390981126
H  H753  1  0.51530000  0.89960000  0.09710000  1.0 0.0390981126
H  H754  1  0.19750000  0.60040000  0.11570000  1.0 0.0390981126
H  H755  1  0.98470000  0.08180000  0.38430000  1.0 0.0390981126
H  H756  1  0.30250000  0.41820000  0.40290000  1.0 0.0390981126
H  H757  1  0.30250000  0.38430000  0.89960000  1.0 0.0390981126
H  H758  1  0.98470000  0.40290000  0.60040000  1.0 0.0390981126
H  H759  1  0.19750000  0.09710000  0.08180000  1.0 0.0390981126
H  H760  1  0.51530000  0.11570000  0.41820000  1.0 0.0390981126
H  H761  1  0.11570000  0.41820000  0.51530000  1.0 0.0390981126
H  H762  1  0.09710000  0.08180000  0.19750000  1.0 0.0390981126
H  H763  1  0.40290000  0.60040000  0.98470000  1.0 0.0390981126
H  H764  1  0.38430000  0.89960000  0.30250000  1.0 0.0390981126
H  H765  1  0.08180000  0.19750000  0.09710000  1.0 0.0390981126
H  H766  1  0.41820000  0.51530000  0.11570000  1.0 0.0390981126
H  H767  1  0.89960000  0.30250000  0.38430000  1.0 0.0390981126
H  H768  1  0.60040000  0.98470000  0.40290000  1.0 0.0390981126
H  H769  1  0.90160000  0.52750000  0.12570000  1.0 0.0596220977
H  H770  1  0.90180000  0.77590000  0.37430000  1.0 0.0596220977
H  H771  1  0.59820000  0.97250000  0.87410000  1.0 0.0596220977
H  H772  1  0.59840000  0.72410000  0.62590000  1.0 0.0596220977
H  H773  1  0.12570000  0.90160000  0.52750000  1.0 0.0596220977
H  H774  1  0.37430000  0.90180000  0.77590000  1.0 0.0596220977
H  H775  1  0.87410000  0.59820000  0.97250000  1.0 0.0596220977
H  H776  1  0.62590000  0.59840000  0.72410000  1.0 0.0596220977
H  H777  1  0.52750000  0.12570000  0.90160000  1.0 0.0596220977
H  H778  1  0.77590000  0.37430000  0.90180000  1.0 0.0596220977
H  H779  1  0.97250000  0.87410000  0.59820000  1.0 0.0596220977
H  H780  1  0.72410000  0.62590000  0.59840000  1.0 0.0596220977
H  H781  1  0.72410000  0.59820000  0.12570000  1.0 0.0596220977
H  H782  1  0.97250000  0.59840000  0.37430000  1.0 0.0596220977
H  H783  1  0.77590000  0.90160000  0.87410000  1.0 0.0596220977
H  H784  1  0.52750000  0.90180000  0.62590000  1.0 0.0596220977
H  H785  1  0.90180000  0.62590000  0.52750000  1.0 0.0596220977
H  H786  1  0.90160000  0.87410000  0.77590000  1.0 0.0596220977
H  H787  1  0.59840000  0.37430000  0.97250000  1.0 0.0596220977
H  H788  1  0.59820000  0.12570000  0.72410000  1.0 0.0596220977
H  H789  1  0.87410000  0.77590000  0.90160000  1.0 0.0596220977
H  H790  1  0.62590000  0.52750000  0.90180000  1.0 0.0596220977
H  H791  1  0.12570000  0.72410000  0.59820000  1.0 0.0596220977
H  H792  1  0.37430000  0.97250000  0.59840000  1.0 0.0596220977
H  H793  1  0.09840000  0.47250000  0.87430000  1.0 0.0596220977
H  H794  1  0.09820000  0.22410000  0.62570000  1.0 0.0596220977
H  H795  1  0.40180000  0.02750000  0.12590000  1.0 0.0596220977
H  H796  1  0.40160000  0.27590000  0.37410000  1.0 0.0596220977
H  H797  1  0.87430000  0.09840000  0.47250000  1.0 0.0596220977
H  H798  1  0.62570000  0.09820000  0.22410000  1.0 0.0596220977
H  H799  1  0.12590000  0.40180000  0.02750000  1.0 0.0596220977
H  H800  1  0.37410000  0.40160000  0.27590000  1.0 0.0596220977
H  H801  1  0.47250000  0.87430000  0.09840000  1.0 0.0596220977
H  H802  1  0.22410000  0.62570000  0.09820000  1.0 0.0596220977
H  H803  1  0.02750000  0.12590000  0.40180000  1.0 0.0596220977
H  H804  1  0.27590000  0.37410000  0.40160000  1.0 0.0596220977
H  H805  1  0.27590000  0.40180000  0.87430000  1.0 0.0596220977
H  H806  1  0.02750000  0.40160000  0.62570000  1.0 0.0596220977
H  H807  1  0.22410000  0.09840000  0.12590000  1.0 0.0596220977
H  H808  1  0.47250000  0.09820000  0.37410000  1.0 0.0596220977
H  H809  1  0.09820000  0.37410000  0.47250000  1.0 0.0596220977
H  H810  1  0.09840000  0.12590000  0.22410000  1.0 0.0596220977
H  H811  1  0.40160000  0.62570000  0.02750000  1.0 0.0596220977
H  H812  1  0.40180000  0.87430000  0.27590000  1.0 0.0596220977
H  H813  1  0.12590000  0.22410000  0.09840000  1.0 0.0596220977
H  H814  1  0.37410000  0.47250000  0.09820000  1.0 0.0596220977
H  H815  1  0.87430000  0.27590000  0.40180000  1.0 0.0596220977
H  H816  1  0.62570000  0.02750000  0.40160000  1.0 0.0596220977
H  H817  1  0.96910000  0.54830000  0.12540000  1.0 0.0390981126
H  H818  1  0.92290000  0.84370000  0.37460000  1.0 0.0390981126
H  H819  1  0.57710000  0.95170000  0.92080000  1.0 0.0390981126
H  H820  1  0.53090000  0.65630000  0.57920000  1.0 0.0390981126
H  H821  1  0.12540000  0.96910000  0.54830000  1.0 0.0390981126
H  H822  1  0.37460000  0.92290000  0.84370000  1.0 0.0390981126
H  H823  1  0.92080000  0.57710000  0.95170000  1.0 0.0390981126
H  H824  1  0.57920000  0.53090000  0.65630000  1.0 0.0390981126
H  H825  1  0.54830000  0.12540000  0.96910000  1.0 0.0390981126
H  H826  1  0.84370000  0.37460000  0.92290000  1.0 0.0390981126
H  H827  1  0.95170000  0.92080000  0.57710000  1.0 0.0390981126
H  H828  1  0.65630000  0.57920000  0.53090000  1.0 0.0390981126
H  H829  1  0.65630000  0.57710000  0.12540000  1.0 0.0390981126
H  H830  1  0.95170000  0.53090000  0.37460000  1.0 0.0390981126
H  H831  1  0.84370000  0.96910000  0.92080000  1.0 0.0390981126
H  H832  1  0.54830000  0.92290000  0.57920000  1.0 0.0390981126
H  H833  1  0.92290000  0.57920000  0.54830000  1.0 0.0390981126
H  H834  1  0.96910000  0.92080000  0.84370000  1.0 0.0390981126
H  H835  1  0.53090000  0.37460000  0.95170000  1.0 0.0390981126
H  H836  1  0.57710000  0.12540000  0.65630000  1.0 0.0390981126
H  H837  1  0.92080000  0.84370000  0.96910000  1.0 0.0390981126
H  H838  1  0.57920000  0.54830000  0.92290000  1.0 0.0390981126
H  H839  1  0.12540000  0.65630000  0.57710000  1.0 0.0390981126
H  H840  1  0.37460000  0.95170000  0.53090000  1.0 0.0390981126
H  H841  1  0.03090000  0.45170000  0.87460000  1.0 0.0390981126
H  H842  1  0.07710000  0.15630000  0.62540000  1.0 0.0390981126
H  H843  1  0.42290000  0.04830000  0.07920000  1.0 0.0390981126
H  H844  1  0.46910000  0.34370000  0.42080000  1.0 0.0390981126
H  H845  1  0.87460000  0.03090000  0.45170000  1.0 0.0390981126
H  H846  1  0.62540000  0.07710000  0.15630000  1.0 0.0390981126
H  H847  1  0.07920000  0.42290000  0.04830000  1.0 0.0390981126
H  H848  1  0.42080000  0.46910000  0.34370000  1.0 0.0390981126
H  H849  1  0.45170000  0.87460000  0.03090000  1.0 0.0390981126
H  H850  1  0.15630000  0.62540000  0.07710000  1.0 0.0390981126
H  H851  1  0.04830000  0.07920000  0.42290000  1.0 0.0390981126
H  H852  1  0.34370000  0.42080000  0.46910000  1.0 0.0390981126
H  H853  1  0.34370000  0.42290000  0.87460000  1.0 0.0390981126
H  H854  1  0.04830000  0.46910000  0.62540000  1.0 0.0390981126
H  H855  1  0.15630000  0.03090000  0.07920000  1.0 0.0390981126
H  H856  1  0.45170000  0.07710000  0.42080000  1.0 0.0390981126
H  H857  1  0.07710000  0.42080000  0.45170000  1.0 0.0390981126
H  H858  1  0.03090000  0.07920000  0.15630000  1.0 0.0390981126
H  H859  1  0.46910000  0.62540000  0.04830000  1.0 0.0390981126
H  H860  1  0.42290000  0.87460000  0.34370000  1.0 0.0390981126
H  H861  1  0.07920000  0.15630000  0.03090000  1.0 0.0390981126
H  H862  1  0.42080000  0.45170000  0.07710000  1.0 0.0390981126
H  H863  1  0.87460000  0.34370000  0.42290000  1.0 0.0390981126
H  H864  1  0.62540000  0.04830000  0.46910000  1.0 0.0390981126
H  H865  1  0.97900000  0.56490000  0.17450000  1.0 0.071256841
H  H866  1  0.89040000  0.80450000  0.32550000  1.0 0.071256841
H  H867  1  0.60960000  0.93510000  0.91410000  1.0 0.071256841
H  H868  1  0.52100000  0.69550000  0.58590000  1.0 0.071256841
H  H869  1  0.17450000  0.97900000  0.56490000  1.0 0.071256841
H  H870  1  0.32550000  0.89040000  0.80450000  1.0 0.071256841
H  H871  1  0.91410000  0.60960000  0.93510000  1.0 0.071256841
H  H872  1  0.58590000  0.52100000  0.69550000  1.0 0.071256841
H  H873  1  0.56490000  0.17450000  0.97900000  1.0 0.071256841
H  H874  1  0.80450000  0.32550000  0.89040000  1.0 0.071256841
H  H875  1  0.93510000  0.91410000  0.60960000  1.0 0.071256841
H  H876  1  0.69550000  0.58590000  0.52100000  1.0 0.071256841
H  H877  1  0.69550000  0.60960000  0.17450000  1.0 0.071256841
H  H878  1  0.93510000  0.52100000  0.32550000  1.0 0.071256841
H  H879  1  0.80450000  0.97900000  0.91410000  1.0 0.071256841
H  H880  1  0.56490000  0.89040000  0.58590000  1.0 0.071256841
H  H881  1  0.89040000  0.58590000  0.56490000  1.0 0.071256841
H  H882  1  0.97900000  0.91410000  0.80450000  1.0 0.071256841
H  H883  1  0.52100000  0.32550000  0.93510000  1.0 0.071256841
H  H884  1  0.60960000  0.17450000  0.69550000  1.0 0.071256841
H  H885  1  0.91410000  0.80450000  0.97900000  1.0 0.071256841
H  H886  1  0.58590000  0.56490000  0.89040000  1.0 0.071256841
H  H887  1  0.17450000  0.69550000  0.60960000  1.0 0.071256841
H  H888  1  0.32550000  0.93510000  0.52100000  1.0 0.071256841
H  H889  1  0.02100000  0.43510000  0.82550000  1.0 0.071256841
H  H890  1  0.10960000  0.19550000  0.67450000  1.0 0.071256841
H  H891  1  0.39040000  0.06490000  0.08590000  1.0 0.071256841
H  H892  1  0.47900000  0.30450000  0.41410000  1.0 0.071256841
H  H893  1  0.82550000  0.02100000  0.43510000  1.0 0.071256841
H  H894  1  0.67450000  0.10960000  0.19550000  1.0 0.071256841
H  H895  1  0.08590000  0.39040000  0.06490000  1.0 0.071256841
H  H896  1  0.41410000  0.47900000  0.30450000  1.0 0.071256841
H  H897  1  0.43510000  0.82550000  0.02100000  1.0 0.071256841
H  H898  1  0.19550000  0.67450000  0.10960000  1.0 0.071256841
H  H899  1  0.06490000  0.08590000  0.39040000  1.0 0.071256841
H  H900  1  0.30450000  0.41410000  0.47900000  1.0 0.071256841
H  H901  1  0.30450000  0.39040000  0.82550000  1.0 0.071256841
H  H902  1  0.06490000  0.47900000  0.67450000  1.0 0.071256841
H  H903  1  0.19550000  0.02100000  0.08590000  1.0 0.071256841
H  H904  1  0.43510000  0.10960000  0.41410000  1.0 0.071256841
H  H905  1  0.10960000  0.41410000  0.43510000  1.0 0.071256841
H  H906  1  0.02100000  0.08590000  0.19550000  1.0 0.071256841
H  H907  1  0.47900000  0.67450000  0.06490000  1.0 0.071256841
H  H908  1  0.39040000  0.82550000  0.30450000  1.0 0.071256841
H  H909  1  0.08590000  0.19550000  0.02100000  1.0 0.071256841
H  H910  1  0.41410000  0.43510000  0.10960000  1.0 0.071256841
H  H911  1  0.82550000  0.30450000  0.39040000  1.0 0.071256841
H  H912  1  0.67450000  0.06490000  0.47900000  1.0 0.071256841
H  H913  1  0.98040000  0.52220000  0.14920000  1.0 0.079106117
H  H914  1  0.87300000  0.83120000  0.35080000  1.0 0.079106117
H  H915  1  0.62700000  0.97780000  0.95820000  1.0 0.079106117
H  H916  1  0.51960000  0.66880000  0.54180000  1.0 0.079106117
H  H917  1  0.14920000  0.98040000  0.52220000  1.0 0.079106117
H  H918  1  0.35080000  0.87300000  0.83120000  1.0 0.079106117
H  H919  1  0.95820000  0.62700000  0.97780000  1.0 0.079106117
H  H920  1  0.54180000  0.51960000  0.66880000  1.0 0.079106117
H  H921  1  0.52220000  0.14920000  0.98040000  1.0 0.079106117
H  H922  1  0.83120000  0.35080000  0.87300000  1.0 0.079106117
H  H923  1  0.97780000  0.95820000  0.62700000  1.0 0.079106117
H  H924  1  0.66880000  0.54180000  0.51960000  1.0 0.079106117
H  H925  1  0.66880000  0.62700000  0.14920000  1.0 0.079106117
H  H926  1  0.97780000  0.51960000  0.35080000  1.0 0.079106117
H  H927  1  0.83120000  0.98040000  0.95820000  1.0 0.079106117
H  H928  1  0.52220000  0.87300000  0.54180000  1.0 0.079106117
H  H929  1  0.87300000  0.54180000  0.52220000  1.0 0.079106117
H  H930  1  0.98040000  0.95820000  0.83120000  1.0 0.079106117
H  H931  1  0.51960000  0.35080000  0.97780000  1.0 0.079106117
H  H932  1  0.62700000  0.14920000  0.66880000  1.0 0.079106117
H  H933  1  0.95820000  0.83120000  0.98040000  1.0 0.079106117
H  H934  1  0.54180000  0.52220000  0.87300000  1.0 0.079106117
H  H935  1  0.14920000  0.66880000  0.62700000  1.0 0.079106117
H  H936  1  0.35080000  0.97780000  0.51960000  1.0 0.079106117
H  H937  1  0.01960000  0.47780000  0.85080000  1.0 0.079106117
H  H938  1  0.12700000  0.16880000  0.64920000  1.0 0.079106117
H  H939  1  0.37300000  0.02220000  0.04180000  1.0 0.079106117
H  H940  1  0.48040000  0.33120000  0.45820000  1.0 0.079106117
H  H941  1  0.85080000  0.01960000  0.47780000  1.0 0.079106117
H  H942  1  0.64920000  0.12700000  0.16880000  1.0 0.079106117
H  H943  1  0.04180000  0.37300000  0.02220000  1.0 0.079106117
H  H944  1  0.45820000  0.48040000  0.33120000  1.0 0.079106117
H  H945  1  0.47780000  0.85080000  0.01960000  1.0 0.079106117
H  H946  1  0.16880000  0.64920000  0.12700000  1.0 0.079106117
H  H947  1  0.02220000  0.04180000  0.37300000  1.0 0.079106117
H  H948  1  0.33120000  0.45820000  0.48040000  1.0 0.079106117
H  H949  1  0.33120000  0.37300000  0.85080000  1.0 0.079106117
H  H950  1  0.02220000  0.48040000  0.64920000  1.0 0.079106117
H  H951  1  0.16880000  0.01960000  0.04180000  1.0 0.079106117
H  H952  1  0.47780000  0.12700000  0.45820000  1.0 0.079106117
H  H953  1  0.12700000  0.45820000  0.47780000  1.0 0.079106117
H  H954  1  0.01960000  0.04180000  0.16880000  1.0 0.079106117
H  H955  1  0.48040000  0.64920000  0.02220000  1.0 0.079106117
H  H956  1  0.37300000  0.85080000  0.33120000  1.0 0.079106117
H  H957  1  0.04180000  0.16880000  0.01960000  1.0 0.079106117
H  H958  1  0.45820000  0.47780000  0.12700000  1.0 0.079106117
H  H959  1  0.85080000  0.33120000  0.37300000  1.0 0.079106117
H  H960  1  0.64920000  0.02220000  0.48040000  1.0 0.079106117
H  H961  1  0.89550000  0.22850000  0.02780000  1.0 0.3651570487
H  H962  1  0.70070000  0.86770000  0.47220000  1.0 0.3651570487
H  H963  1  0.79930000  0.27150000  0.16700000  1.0 0.3651570487
H  H964  1  0.60450000  0.63230000  0.33300000  1.0 0.3651570487
H  H965  1  0.02780000  0.89550000  0.22850000  1.0 0.3651570487
H  H966  1  0.47220000  0.70070000  0.86770000  1.0 0.3651570487
H  H967  1  0.16700000  0.79930000  0.27150000  1.0 0.3651570487
H  H968  1  0.33300000  0.60450000  0.63230000  1.0 0.3651570487
H  H969  1  0.22850000  0.02780000  0.89550000  1.0 0.3651570487
H  H970  1  0.86770000  0.47220000  0.70070000  1.0 0.3651570487
H  H971  1  0.27150000  0.16700000  0.79930000  1.0 0.3651570487
H  H972  1  0.63230000  0.33300000  0.60450000  1.0 0.3651570487
H  H973  1  0.63230000  0.79930000  0.02780000  1.0 0.3651570487
H  H974  1  0.27150000  0.60450000  0.47220000  1.0 0.3651570487
H  H975  1  0.86770000  0.89550000  0.16700000  1.0 0.3651570487
H  H976  1  0.22850000  0.70070000  0.33300000  1.0 0.3651570487
H  H977  1  0.70070000  0.33300000  0.22850000  1.0 0.3651570487
H  H978  1  0.89550000  0.16700000  0.86770000  1.0 0.3651570487
H  H979  1  0.60450000  0.47220000  0.27150000  1.0 0.3651570487
H  H980  1  0.79930000  0.02780000  0.63230000  1.0 0.3651570487
H  H981  1  0.16700000  0.86770000  0.89550000  1.0 0.3651570487
H  H982  1  0.33300000  0.22850000  0.70070000  1.0 0.3651570487
H  H983  1  0.02780000  0.63230000  0.79930000  1.0 0.3651570487
H  H984  1  0.47220000  0.27150000  0.60450000  1.0 0.3651570487
H  H985  1  0.10450000  0.77150000  0.97220000  1.0 0.3651570487
H  H986  1  0.29930000  0.13230000  0.52780000  1.0 0.3651570487
H  H987  1  0.20070000  0.72850000  0.83300000  1.0 0.3651570487
H  H988  1  0.39550000  0.36770000  0.66700000  1.0 0.3651570487
H  H989  1  0.97220000  0.10450000  0.77150000  1.0 0.3651570487
H  H990  1  0.52780000  0.29930000  0.13230000  1.0 0.3651570487
H  H991  1  0.83300000  0.20070000  0.72850000  1.0 0.3651570487
H  H992  1  0.66700000  0.39550000  0.36770000  1.0 0.3651570487
H  H993  1  0.77150000  0.97220000  0.10450000  1.0 0.3651570487
H  H994  1  0.13230000  0.52780000  0.29930000  1.0 0.3651570487
H  H995  1  0.72850000  0.83300000  0.20070000  1.0 0.3651570487
H  H996  1  0.36770000  0.66700000  0.39550000  1.0 0.3651570487
H  H997  1  0.36770000  0.20070000  0.97220000  1.0 0.3651570487
H  H998  1  0.72850000  0.39550000  0.52780000  1.0 0.3651570487
H  H999  1  0.13230000  0.10450000  0.83300000  1.0 0.3651570487
H  H1000  1  0.77150000  0.29930000  0.66700000  1.0 0.3651570487
H  H1001  1  0.29930000  0.66700000  0.77150000  1.0 0.3651570487
H  H1002  1  0.10450000  0.83300000  0.13230000  1.0 0.3651570487
H  H1003  1  0.39550000  0.52780000  0.72850000  1.0 0.3651570487
H  H1004  1  0.20070000  0.97220000  0.36770000  1.0 0.3651570487
H  H1005  1  0.83300000  0.13230000  0.10450000  1.0 0.3651570487
H  H1006  1  0.66700000  0.77150000  0.29930000  1.0 0.3651570487
H  H1007  1  0.97220000  0.36770000  0.20070000  1.0 0.3651570487
H  H1008  1  0.52780000  0.72850000  0.39550000  1.0 0.3651570487
H  H1009  1  0.86440000  0.41660000  0.31440000  1.0 0.1093315916
H  H1010  1  0.60220000  0.55000000  0.18560000  1.0 0.1093315916
H  H1011  1  0.89780000  0.08340000  0.94780000  1.0 0.1093315916
H  H1012  1  0.63560000  0.95000000  0.55220000  1.0 0.1093315916
H  H1013  1  0.31440000  0.86440000  0.41660000  1.0 0.1093315916
H  H1014  1  0.18560000  0.60220000  0.55000000  1.0 0.1093315916
H  H1015  1  0.94780000  0.89780000  0.08340000  1.0 0.1093315916
H  H1016  1  0.55220000  0.63560000  0.95000000  1.0 0.1093315916
H  H1017  1  0.41660000  0.31440000  0.86440000  1.0 0.1093315916
H  H1018  1  0.55000000  0.18560000  0.60220000  1.0 0.1093315916
H  H1019  1  0.08340000  0.94780000  0.89780000  1.0 0.1093315916
H  H1020  1  0.95000000  0.55220000  0.63560000  1.0 0.1093315916
H  H1021  1  0.95000000  0.89780000  0.31440000  1.0 0.1093315916
H  H1022  1  0.08340000  0.63560000  0.18560000  1.0 0.1093315916
H  H1023  1  0.55000000  0.86440000  0.94780000  1.0 0.1093315916
H  H1024  1  0.41660000  0.60220000  0.55220000  1.0 0.1093315916
H  H1025  1  0.60220000  0.55220000  0.41660000  1.0 0.1093315916
H  H1026  1  0.86440000  0.94780000  0.55000000  1.0 0.1093315916
H  H1027  1  0.63560000  0.18560000  0.08340000  1.0 0.1093315916
H  H1028  1  0.89780000  0.31440000  0.95000000  1.0 0.1093315916
H  H1029  1  0.94780000  0.55000000  0.86440000  1.0 0.1093315916
H  H1030  1  0.55220000  0.41660000  0.60220000  1.0 0.1093315916
H  H1031  1  0.31440000  0.95000000  0.89780000  1.0 0.1093315916
H  H1032  1  0.18560000  0.08340000  0.63560000  1.0 0.1093315916
H  H1033  1  0.13560000  0.58340000  0.68560000  1.0 0.1093315916
H  H1034  1  0.39780000  0.45000000  0.81440000  1.0 0.1093315916
H  H1035  1  0.10220000  0.91660000  0.05220000  1.0 0.1093315916
H  H1036  1  0.36440000  0.05000000  0.44780000  1.0 0.1093315916
H  H1037  1  0.68560000  0.13560000  0.58340000  1.0 0.1093315916
H  H1038  1  0.81440000  0.39780000  0.45000000  1.0 0.1093315916
H  H1039  1  0.05220000  0.10220000  0.91660000  1.0 0.1093315916
H  H1040  1  0.44780000  0.36440000  0.05000000  1.0 0.1093315916
H  H1041  1  0.58340000  0.68560000  0.13560000  1.0 0.1093315916
H  H1042  1  0.45000000  0.81440000  0.39780000  1.0 0.1093315916
H  H1043  1  0.91660000  0.05220000  0.10220000  1.0 0.1093315916
H  H1044  1  0.05000000  0.44780000  0.36440000  1.0 0.1093315916
H  H1045  1  0.05000000  0.10220000  0.68560000  1.0 0.1093315916
H  H1046  1  0.91660000  0.36440000  0.81440000  1.0 0.1093315916
H  H1047  1  0.45000000  0.13560000  0.05220000  1.0 0.1093315916
H  H1048  1  0.58340000  0.39780000  0.44780000  1.0 0.1093315916
H  H1049  1  0.39780000  0.44780000  0.58340000  1.0 0.1093315916
H  H1050  1  0.13560000  0.05220000  0.45000000  1.0 0.1093315916
H  H1051  1  0.36440000  0.81440000  0.91660000  1.0 0.1093315916
H  H1052  1  0.10220000  0.68560000  0.05000000  1.0 0.1093315916
H  H1053  1  0.05220000  0.45000000  0.13560000  1.0 0.1093315916
H  H1054  1  0.44780000  0.58340000  0.39780000  1.0 0.1093315916
H  H1055  1  0.68560000  0.05000000  0.10220000  1.0 0.1093315916
H  H1056  1  0.81440000  0.91660000  0.36440000  1.0 0.1093315916
H  H1057  1  0.90060000  0.43460000  0.30260000  1.0 0.1093315916
H  H1058  1  0.63200000  0.59800000  0.19740000  1.0 0.1093315916
H  H1059  1  0.86800000  0.06540000  0.96600000  1.0 0.1093315916
H  H1060  1  0.59940000  0.90200000  0.53400000  1.0 0.1093315916
H  H1061  1  0.30260000  0.90060000  0.43460000  1.0 0.1093315916
H  H1062  1  0.19740000  0.63200000  0.59800000  1.0 0.1093315916
H  H1063  1  0.96600000  0.86800000  0.06540000  1.0 0.1093315916
H  H1064  1  0.53400000  0.59940000  0.90200000  1.0 0.1093315916
H  H1065  1  0.43460000  0.30260000  0.90060000  1.0 0.1093315916
H  H1066  1  0.59800000  0.19740000  0.63200000  1.0 0.1093315916
H  H1067  1  0.06540000  0.96600000  0.86800000  1.0 0.1093315916
H  H1068  1  0.90200000  0.53400000  0.59940000  1.0 0.1093315916
H  H1069  1  0.90200000  0.86800000  0.30260000  1.0 0.1093315916
H  H1070  1  0.06540000  0.59940000  0.19740000  1.0 0.1093315916
H  H1071  1  0.59800000  0.90060000  0.96600000  1.0 0.1093315916
H  H1072  1  0.43460000  0.63200000  0.53400000  1.0 0.1093315916
H  H1073  1  0.63200000  0.53400000  0.43460000  1.0 0.1093315916
H  H1074  1  0.90060000  0.96600000  0.59800000  1.0 0.1093315916
H  H1075  1  0.59940000  0.19740000  0.06540000  1.0 0.1093315916
H  H1076  1  0.86800000  0.30260000  0.90200000  1.0 0.1093315916
H  H1077  1  0.96600000  0.59800000  0.90060000  1.0 0.1093315916
H  H1078  1  0.53400000  0.43460000  0.63200000  1.0 0.1093315916
H  H1079  1  0.30260000  0.90200000  0.86800000  1.0 0.1093315916
H  H1080  1  0.19740000  0.06540000  0.59940000  1.0 0.1093315916
H  H1081  1  0.09940000  0.56540000  0.69740000  1.0 0.1093315916
H  H1082  1  0.36800000  0.40200000  0.80260000  1.0 0.1093315916
H  H1083  1  0.13200000  0.93460000  0.03400000  1.0 0.1093315916
H  H1084  1  0.40060000  0.09800000  0.46600000  1.0 0.1093315916
H  H1085  1  0.69740000  0.09940000  0.56540000  1.0 0.1093315916
H  H1086  1  0.80260000  0.36800000  0.40200000  1.0 0.1093315916
H  H1087  1  0.03400000  0.13200000  0.93460000  1.0 0.1093315916
H  H1088  1  0.46600000  0.40060000  0.09800000  1.0 0.1093315916
H  H1089  1  0.56540000  0.69740000  0.09940000  1.0 0.1093315916
H  H1090  1  0.40200000  0.80260000  0.36800000  1.0 0.1093315916
H  H1091  1  0.93460000  0.03400000  0.13200000  1.0 0.1093315916
H  H1092  1  0.09800000  0.46600000  0.40060000  1.0 0.1093315916
H  H1093  1  0.09800000  0.13200000  0.69740000  1.0 0.1093315916
H  H1094  1  0.93460000  0.40060000  0.80260000  1.0 0.1093315916
H  H1095  1  0.40200000  0.09940000  0.03400000  1.0 0.1093315916
H  H1096  1  0.56540000  0.36800000  0.46600000  1.0 0.1093315916
H  H1097  1  0.36800000  0.46600000  0.56540000  1.0 0.1093315916
H  H1098  1  0.09940000  0.03400000  0.40200000  1.0 0.1093315916
H  H1099  1  0.40060000  0.80260000  0.93460000  1.0 0.1093315916
H  H1100  1  0.13200000  0.69740000  0.09800000  1.0 0.1093315916
H  H1101  1  0.03400000  0.40200000  0.09940000  1.0 0.1093315916
H  H1102  1  0.46600000  0.56540000  0.36800000  1.0 0.1093315916
H  H1103  1  0.69740000  0.09800000  0.13200000  1.0 0.1093315916
H  H1104  1  0.80260000  0.93460000  0.40060000  1.0 0.1093315916
H  H1105  1  0.91300000  0.42290000  0.39090000  1.0 0.090007057
H  H1106  1  0.53200000  0.52210000  0.10910000  1.0 0.090007057
H  H1107  1  0.96800000  0.07710000  0.99010000  1.0 0.090007057
H  H1108  1  0.58700000  0.97790000  0.50990000  1.0 0.090007057
H  H1109  1  0.39090000  0.91300000  0.42290000  1.0 0.090007057
H  H1110  1  0.10910000  0.53200000  0.52210000  1.0 0.090007057
H  H1111  1  0.99010000  0.96800000  0.07710000  1.0 0.090007057
H  H1112  1  0.50990000  0.58700000  0.97790000  1.0 0.090007057
H  H1113  1  0.42290000  0.39090000  0.91300000  1.0 0.090007057
H  H1114  1  0.52210000  0.10910000  0.53200000  1.0 0.090007057
H  H1115  1  0.07710000  0.99010000  0.96800000  1.0 0.090007057
H  H1116  1  0.97790000  0.50990000  0.58700000  1.0 0.090007057
H  H1117  1  0.97790000  0.96800000  0.39090000  1.0 0.090007057
H  H1118  1  0.07710000  0.58700000  0.10910000  1.0 0.090007057
H  H1119  1  0.52210000  0.91300000  0.99010000  1.0 0.090007057
H  H1120  1  0.42290000  0.53200000  0.50990000  1.0 0.090007057
H  H1121  1  0.53200000  0.50990000  0.42290000  1.0 0.090007057
H  H1122  1  0.91300000  0.99010000  0.52210000  1.0 0.090007057
H  H1123  1  0.58700000  0.10910000  0.07710000  1.0 0.090007057
H  H1124  1  0.96800000  0.39090000  0.97790000  1.0 0.090007057
H  H1125  1  0.99010000  0.52210000  0.91300000  1.0 0.090007057
H  H1126  1  0.50990000  0.42290000  0.53200000  1.0 0.090007057
H  H1127  1  0.39090000  0.97790000  0.96800000  1.0 0.090007057
H  H1128  1  0.10910000  0.07710000  0.58700000  1.0 0.090007057
H  H1129  1  0.08700000  0.57710000  0.60910000  1.0 0.090007057
H  H1130  1  0.46800000  0.47790000  0.89090000  1.0 0.090007057
H  H1131  1  0.03200000  0.92290000  0.00990000  1.0 0.090007057
H  H1132  1  0.41300000  0.02210000  0.49010000  1.0 0.090007057
H  H1133  1  0.60910000  0.08700000  0.57710000  1.0 0.090007057
H  H1134  1  0.89090000  0.46800000  0.47790000  1.0 0.090007057
H  H1135  1  0.00990000  0.03200000  0.92290000  1.0 0.090007057
H  H1136  1  0.49010000  0.41300000  0.02210000  1.0 0.090007057
H  H1137  1  0.57710000  0.60910000  0.08700000  1.0 0.090007057
H  H1138  1  0.47790000  0.89090000  0.46800000  1.0 0.090007057
H  H1139  1  0.92290000  0.00990000  0.03200000  1.0 0.090007057
H  H1140  1  0.02210000  0.49010000  0.41300000  1.0 0.090007057
H  H1141  1  0.02210000  0.03200000  0.60910000  1.0 0.090007057
H  H1142  1  0.92290000  0.41300000  0.89090000  1.0 0.090007057
H  H1143  1  0.47790000  0.08700000  0.00990000  1.0 0.090007057
H  H1144  1  0.57710000  0.46800000  0.49010000  1.0 0.090007057
H  H1145  1  0.46800000  0.49010000  0.57710000  1.0 0.090007057
H  H1146  1  0.08700000  0.00990000  0.47790000  1.0 0.090007057
H  H1147  1  0.41300000  0.89090000  0.92290000  1.0 0.090007057
H  H1148  1  0.03200000  0.60910000  0.02210000  1.0 0.090007057
H  H1149  1  0.00990000  0.47790000  0.08700000  1.0 0.090007057
H  H1150  1  0.49010000  0.57710000  0.46800000  1.0 0.090007057
H  H1151  1  0.60910000  0.02210000  0.03200000  1.0 0.090007057
H  H1152  1  0.89090000  0.92290000  0.41300000  1.0 0.090007057
H  H1153  1  0.96560000  0.39620000  0.41900000  1.0 0.079106117
H  H1154  1  0.47720000  0.54660000  0.08100000  1.0 0.079106117
H  H1155  1  0.02280000  0.10380000  0.06940000  1.0 0.079106117
H  H1156  1  0.53440000  0.95340000  0.43060000  1.0 0.079106117
H  H1157  1  0.41900000  0.96560000  0.39620000  1.0 0.079106117
H  H1158  1  0.08100000  0.47720000  0.54660000  1.0 0.079106117
H  H1159  1  0.06940000  0.02280000  0.10380000  1.0 0.079106117
H  H1160  1  0.43060000  0.53440000  0.95340000  1.0 0.079106117
H  H1161  1  0.39620000  0.41900000  0.96560000  1.0 0.079106117
H  H1162  1  0.54660000  0.08100000  0.47720000  1.0 0.079106117
H  H1163  1  0.10380000  0.06940000  0.02280000  1.0 0.079106117
H  H1164  1  0.95340000  0.43060000  0.53440000  1.0 0.079106117
H  H1165  1  0.95340000  0.02280000  0.41900000  1.0 0.079106117
H  H1166  1  0.10380000  0.53440000  0.08100000  1.0 0.079106117
H  H1167  1  0.54660000  0.96560000  0.06940000  1.0 0.079106117
H  H1168  1  0.39620000  0.47720000  0.43060000  1.0 0.079106117
H  H1169  1  0.47720000  0.43060000  0.39620000  1.0 0.079106117
H  H1170  1  0.96560000  0.06940000  0.54660000  1.0 0.079106117
H  H1171  1  0.53440000  0.08100000  0.10380000  1.0 0.079106117
H  H1172  1  0.02280000  0.41900000  0.95340000  1.0 0.079106117
H  H1173  1  0.06940000  0.54660000  0.96560000  1.0 0.079106117
H  H1174  1  0.43060000  0.39620000  0.47720000  1.0 0.079106117
H  H1175  1  0.41900000  0.95340000  0.02280000  1.0 0.079106117
H  H1176  1  0.08100000  0.10380000  0.53440000  1.0 0.079106117
H  H1177  1  0.03440000  0.60380000  0.58100000  1.0 0.079106117
H  H1178  1  0.52280000  0.45340000  0.91900000  1.0 0.079106117
H  H1179  1  0.97720000  0.89620000  0.93060000  1.0 0.079106117
H  H1180  1  0.46560000  0.04660000  0.56940000  1.0 0.079106117
H  H1181  1  0.58100000  0.03440000  0.60380000  1.0 0.079106117
H  H1182  1  0.91900000  0.52280000  0.45340000  1.0 0.079106117
H  H1183  1  0.93060000  0.97720000  0.89620000  1.0 0.079106117
H  H1184  1  0.56940000  0.46560000  0.04660000  1.0 0.079106117
H  H1185  1  0.60380000  0.58100000  0.03440000  1.0 0.079106117
H  H1186  1  0.45340000  0.91900000  0.52280000  1.0 0.079106117
H  H1187  1  0.89620000  0.93060000  0.97720000  1.0 0.079106117
H  H1188  1  0.04660000  0.56940000  0.46560000  1.0 0.079106117
H  H1189  1  0.04660000  0.97720000  0.58100000  1.0 0.079106117
H  H1190  1  0.89620000  0.46560000  0.91900000  1.0 0.079106117
H  H1191  1  0.45340000  0.03440000  0.93060000  1.0 0.079106117
H  H1192  1  0.60380000  0.52280000  0.56940000  1.0 0.079106117
H  H1193  1  0.52280000  0.56940000  0.60380000  1.0 0.079106117
H  H1194  1  0.03440000  0.93060000  0.45340000  1.0 0.079106117
H  H1195  1  0.46560000  0.91900000  0.89620000  1.0 0.079106117
H  H1196  1  0.97720000  0.58100000  0.04660000  1.0 0.079106117
H  H1197  1  0.93060000  0.45340000  0.03440000  1.0 0.079106117
H  H1198  1  0.56940000  0.60380000  0.52280000  1.0 0.079106117
H  H1199  1  0.58100000  0.04660000  0.97720000  1.0 0.079106117
H  H1200  1  0.91900000  0.89620000  0.46560000  1.0 0.079106117
H  H1201  1  0.98330000  0.36280000  0.36510000  1.0 0.0991345342
H  H1202  1  0.49770000  0.61820000  0.13490000  1.0 0.0991345342
H  H1203  1  0.00230000  0.13720000  0.12050000  1.0 0.0991345342
H  H1204  1  0.51670000  0.88180000  0.37950000  1.0 0.0991345342
H  H1205  1  0.36510000  0.98330000  0.36280000  1.0 0.0991345342
H  H1206  1  0.13490000  0.49770000  0.61820000  1.0 0.0991345342
H  H1207  1  0.12050000  0.00230000  0.13720000  1.0 0.0991345342
H  H1208  1  0.37950000  0.51670000  0.88180000  1.0 0.0991345342
H  H1209  1  0.36280000  0.36510000  0.98330000  1.0 0.0991345342
H  H1210  1  0.61820000  0.13490000  0.49770000  1.0 0.0991345342
H  H1211  1  0.13720000  0.12050000  0.00230000  1.0 0.0991345342
H  H1212  1  0.88180000  0.37950000  0.51670000  1.0 0.0991345342
H  H1213  1  0.88180000  0.00230000  0.36510000  1.0 0.0991345342
H  H1214  1  0.13720000  0.51670000  0.13490000  1.0 0.0991345342
H  H1215  1  0.61820000  0.98330000  0.12050000  1.0 0.0991345342
H  H1216  1  0.36280000  0.49770000  0.37950000  1.0 0.0991345342
H  H1217  1  0.49770000  0.37950000  0.36280000  1.0 0.0991345342
H  H1218  1  0.98330000  0.12050000  0.61820000  1.0 0.0991345342
H  H1219  1  0.51670000  0.13490000  0.13720000  1.0 0.0991345342
H  H1220  1  0.00230000  0.36510000  0.88180000  1.0 0.0991345342
H  H1221  1  0.12050000  0.61820000  0.98330000  1.0 0.0991345342
H  H1222  1  0.37950000  0.36280000  0.49770000  1.0 0.0991345342
H  H1223  1  0.36510000  0.88180000  0.00230000  1.0 0.0991345342
H  H1224  1  0.13490000  0.13720000  0.51670000  1.0 0.0991345342
H  H1225  1  0.01670000  0.63720000  0.63490000  1.0 0.0991345342
H  H1226  1  0.50230000  0.38180000  0.86510000  1.0 0.0991345342
H  H1227  1  0.99770000  0.86280000  0.87950000  1.0 0.0991345342
H  H1228  1  0.48330000  0.11820000  0.62050000  1.0 0.0991345342
H  H1229  1  0.63490000  0.01670000  0.63720000  1.0 0.0991345342
H  H1230  1  0.86510000  0.50230000  0.38180000  1.0 0.0991345342
H  H1231  1  0.87950000  0.99770000  0.86280000  1.0 0.0991345342
H  H1232  1  0.62050000  0.48330000  0.11820000  1.0 0.0991345342
H  H1233  1  0.63720000  0.63490000  0.01670000  1.0 0.0991345342
H  H1234  1  0.38180000  0.86510000  0.50230000  1.0 0.0991345342
H  H1235  1  0.86280000  0.87950000  0.99770000  1.0 0.0991345342
H  H1236  1  0.11820000  0.62050000  0.48330000  1.0 0.0991345342
H  H1237  1  0.11820000  0.99770000  0.63490000  1.0 0.0991345342
H  H1238  1  0.86280000  0.48330000  0.86510000  1.0 0.0991345342
H  H1239  1  0.38180000  0.01670000  0.87950000  1.0 0.0991345342
H  H1240  1  0.63720000  0.50230000  0.62050000  1.0 0.0991345342
H  H1241  1  0.50230000  0.62050000  0.63720000  1.0 0.0991345342
H  H1242  1  0.01670000  0.87950000  0.38180000  1.0 0.0991345342
H  H1243  1  0.48330000  0.86510000  0.86280000  1.0 0.0991345342
H  H1244  1  0.99770000  0.63490000  0.11820000  1.0 0.0991345342
H  H1245  1  0.87950000  0.38180000  0.01670000  1.0 0.0991345342
H  H1246  1  0.62050000  0.63720000  0.50230000  1.0 0.0991345342
H  H1247  1  0.63490000  0.11820000  0.99770000  1.0 0.0991345342
H  H1248  1  0.86510000  0.86280000  0.48330000  1.0 0.0991345342
H  H1249  1  0.89460000  0.44170000  0.13110000  1.0 0.071256841
H  H1250  1  0.81060000  0.76350000  0.36890000  1.0 0.071256841
H  H1251  1  0.68940000  0.05830000  0.95290000  1.0 0.071256841
H  H1252  1  0.60540000  0.73650000  0.54710000  1.0 0.071256841
H  H1253  1  0.13110000  0.89460000  0.44170000  1.0 0.071256841
H  H1254  1  0.36890000  0.81060000  0.76350000  1.0 0.071256841
H  H1255  1  0.95290000  0.68940000  0.05830000  1.0 0.071256841
H  H1256  1  0.54710000  0.60540000  0.73650000  1.0 0.071256841
H  H1257  1  0.44170000  0.13110000  0.89460000  1.0 0.071256841
H  H1258  1  0.76350000  0.36890000  0.81060000  1.0 0.071256841
H  H1259  1  0.05830000  0.95290000  0.68940000  1.0 0.071256841
H  H1260  1  0.73650000  0.54710000  0.60540000  1.0 0.071256841
H  H1261  1  0.73650000  0.68940000  0.13110000  1.0 0.071256841
H  H1262  1  0.05830000  0.60540000  0.36890000  1.0 0.071256841
H  H1263  1  0.76350000  0.89460000  0.95290000  1.0 0.071256841
H  H1264  1  0.44170000  0.81060000  0.54710000  1.0 0.071256841
H  H1265  1  0.81060000  0.54710000  0.44170000  1.0 0.071256841
H  H1266  1  0.89460000  0.95290000  0.76350000  1.0 0.071256841
H  H1267  1  0.60540000  0.36890000  0.05830000  1.0 0.071256841
H  H1268  1  0.68940000  0.13110000  0.73650000  1.0 0.071256841
H  H1269  1  0.95290000  0.76350000  0.89460000  1.0 0.071256841
H  H1270  1  0.54710000  0.44170000  0.81060000  1.0 0.071256841
H  H1271  1  0.13110000  0.73650000  0.68940000  1.0 0.071256841
H  H1272  1  0.36890000  0.05830000  0.60540000  1.0 0.071256841
H  H1273  1  0.10540000  0.55830000  0.86890000  1.0 0.071256841
H  H1274  1  0.18940000  0.23650000  0.63110000  1.0 0.071256841
H  H1275  1  0.31060000  0.94170000  0.04710000  1.0 0.071256841
H  H1276  1  0.39460000  0.26350000  0.45290000  1.0 0.071256841
H  H1277  1  0.86890000  0.10540000  0.55830000  1.0 0.071256841
H  H1278  1  0.63110000  0.18940000  0.23650000  1.0 0.071256841
H  H1279  1  0.04710000  0.31060000  0.94170000  1.0 0.071256841
H  H1280  1  0.45290000  0.39460000  0.26350000  1.0 0.071256841
H  H1281  1  0.55830000  0.86890000  0.10540000  1.0 0.071256841
H  H1282  1  0.23650000  0.63110000  0.18940000  1.0 0.071256841
H  H1283  1  0.94170000  0.04710000  0.31060000  1.0 0.071256841
H  H1284  1  0.26350000  0.45290000  0.39460000  1.0 0.071256841
H  H1285  1  0.26350000  0.31060000  0.86890000  1.0 0.071256841
H  H1286  1  0.94170000  0.39460000  0.63110000  1.0 0.071256841
H  H1287  1  0.23650000  0.10540000  0.04710000  1.0 0.071256841
H  H1288  1  0.55830000  0.18940000  0.45290000  1.0 0.071256841
H  H1289  1  0.18940000  0.45290000  0.55830000  1.0 0.071256841
H  H1290  1  0.10540000  0.04710000  0.23650000  1.0 0.071256841
H  H1291  1  0.39460000  0.63110000  0.94170000  1.0 0.071256841
H  H1292  1  0.31060000  0.86890000  0.26350000  1.0 0.071256841
H  H1293  1  0.04710000  0.23650000  0.10540000  1.0 0.071256841
H  H1294  1  0.45290000  0.55830000  0.18940000  1.0 0.071256841
H  H1295  1  0.86890000  0.26350000  0.31060000  1.0 0.071256841
H  H1296  1  0.63110000  0.94170000  0.39460000  1.0 0.071256841
H  H1297  1  0.94350000  0.45230000  0.15140000  1.0 0.0506389114
H  H1298  1  0.80090000  0.79210000  0.34860000  1.0 0.0506389114
H  H1299  1  0.69910000  0.04770000  0.99120000  1.0 0.0506389114
H  H1300  1  0.55650000  0.70790000  0.50880000  1.0 0.0506389114
H  H1301  1  0.15140000  0.94350000  0.45230000  1.0 0.0506389114
H  H1302  1  0.34860000  0.80090000  0.79210000  1.0 0.0506389114
H  H1303  1  0.99120000  0.69910000  0.04770000  1.0 0.0506389114
H  H1304  1  0.50880000  0.55650000  0.70790000  1.0 0.0506389114
H  H1305  1  0.45230000  0.15140000  0.94350000  1.0 0.0506389114
H  H1306  1  0.79210000  0.34860000  0.80090000  1.0 0.0506389114
H  H1307  1  0.04770000  0.99120000  0.69910000  1.0 0.0506389114
H  H1308  1  0.70790000  0.50880000  0.55650000  1.0 0.0506389114
H  H1309  1  0.70790000  0.69910000  0.15140000  1.0 0.0506389114
H  H1310  1  0.04770000  0.55650000  0.34860000  1.0 0.0506389114
H  H1311  1  0.79210000  0.94350000  0.99120000  1.0 0.0506389114
H  H1312  1  0.45230000  0.80090000  0.50880000  1.0 0.0506389114
H  H1313  1  0.80090000  0.50880000  0.45230000  1.0 0.0506389114
H  H1314  1  0.94350000  0.99120000  0.79210000  1.0 0.0506389114
H  H1315  1  0.55650000  0.34860000  0.04770000  1.0 0.0506389114
H  H1316  1  0.69910000  0.15140000  0.70790000  1.0 0.0506389114
H  H1317  1  0.99120000  0.79210000  0.94350000  1.0 0.0506389114
H  H1318  1  0.50880000  0.45230000  0.80090000  1.0 0.0506389114
H  H1319  1  0.15140000  0.70790000  0.69910000  1.0 0.0506389114
H  H1320  1  0.34860000  0.04770000  0.55650000  1.0 0.0506389114
H  H1321  1  0.05650000  0.54770000  0.84860000  1.0 0.0506389114
H  H1322  1  0.19910000  0.20790000  0.65140000  1.0 0.0506389114
H  H1323  1  0.30090000  0.95230000  0.00880000  1.0 0.0506389114
H  H1324  1  0.44350000  0.29210000  0.49120000  1.0 0.0506389114
H  H1325  1  0.84860000  0.05650000  0.54770000  1.0 0.0506389114
H  H1326  1  0.65140000  0.19910000  0.20790000  1.0 0.0506389114
H  H1327  1  0.00880000  0.30090000  0.95230000  1.0 0.0506389114
H  H1328  1  0.49120000  0.44350000  0.29210000  1.0 0.0506389114
H  H1329  1  0.54770000  0.84860000  0.05650000  1.0 0.0506389114
H  H1330  1  0.20790000  0.65140000  0.19910000  1.0 0.0506389114
H  H1331  1  0.95230000  0.00880000  0.30090000  1.0 0.0506389114
H  H1332  1  0.29210000  0.49120000  0.44350000  1.0 0.0506389114
H  H1333  1  0.29210000  0.30090000  0.84860000  1.0 0.0506389114
H  H1334  1  0.95230000  0.44350000  0.65140000  1.0 0.0506389114
H  H1335  1  0.20790000  0.05650000  0.00880000  1.0 0.0506389114
H  H1336  1  0.54770000  0.19910000  0.49120000  1.0 0.0506389114
H  H1337  1  0.19910000  0.49120000  0.54770000  1.0 0.0506389114
H  H1338  1  0.05650000  0.00880000  0.20790000  1.0 0.0506389114
H  H1339  1  0.44350000  0.65140000  0.95230000  1.0 0.0506389114
H  H1340  1  0.30090000  0.84860000  0.29210000  1.0 0.0506389114
H  H1341  1  0.00880000  0.20790000  0.05650000  1.0 0.0506389114
H  H1342  1  0.49120000  0.54770000  0.19910000  1.0 0.0506389114
H  H1343  1  0.84860000  0.29210000  0.30090000  1.0 0.0506389114
H  H1344  1  0.65140000  0.95230000  0.44350000  1.0 0.0506389114
H  H1345  1  0.96140000  0.52640000  0.20460000  1.0 0.071256841
H  H1346  1  0.82180000  0.75680000  0.29540000  1.0 0.071256841
H  H1347  1  0.67820000  0.97360000  0.93500000  1.0 0.071256841
H  H1348  1  0.53860000  0.74320000  0.56500000  1.0 0.071256841
H  H1349  1  0.20460000  0.96140000  0.52640000  1.0 0.071256841
H  H1350  1  0.29540000  0.82180000  0.75680000  1.0 0.071256841
H  H1351  1  0.93500000  0.67820000  0.97360000  1.0 0.071256841
H  H1352  1  0.56500000  0.53860000  0.74320000  1.0 0.071256841
H  H1353  1  0.52640000  0.20460000  0.96140000  1.0 0.071256841
H  H1354  1  0.75680000  0.29540000  0.82180000  1.0 0.071256841
H  H1355  1  0.97360000  0.93500000  0.67820000  1.0 0.071256841
H  H1356  1  0.74320000  0.56500000  0.53860000  1.0 0.071256841
H  H1357  1  0.74320000  0.67820000  0.20460000  1.0 0.071256841
H  H1358  1  0.97360000  0.53860000  0.29540000  1.0 0.071256841
H  H1359  1  0.75680000  0.96140000  0.93500000  1.0 0.071256841
H  H1360  1  0.52640000  0.82180000  0.56500000  1.0 0.071256841
H  H1361  1  0.82180000  0.56500000  0.52640000  1.0 0.071256841
H  H1362  1  0.96140000  0.93500000  0.75680000  1.0 0.071256841
H  H1363  1  0.53860000  0.29540000  0.97360000  1.0 0.071256841
H  H1364  1  0.67820000  0.20460000  0.74320000  1.0 0.071256841
H  H1365  1  0.93500000  0.75680000  0.96140000  1.0 0.071256841
H  H1366  1  0.56500000  0.52640000  0.82180000  1.0 0.071256841
H  H1367  1  0.20460000  0.74320000  0.67820000  1.0 0.071256841
H  H1368  1  0.29540000  0.97360000  0.53860000  1.0 0.071256841
H  H1369  1  0.03860000  0.47360000  0.79540000  1.0 0.071256841
H  H1370  1  0.17820000  0.24320000  0.70460000  1.0 0.071256841
H  H1371  1  0.32180000  0.02640000  0.06500000  1.0 0.071256841
H  H1372  1  0.46140000  0.25680000  0.43500000  1.0 0.071256841
H  H1373  1  0.79540000  0.03860000  0.47360000  1.0 0.071256841
H  H1374  1  0.70460000  0.17820000  0.24320000  1.0 0.071256841
H  H1375  1  0.06500000  0.32180000  0.02640000  1.0 0.071256841
H  H1376  1  0.43500000  0.46140000  0.25680000  1.0 0.071256841
H  H1377  1  0.47360000  0.79540000  0.03860000  1.0 0.071256841
H  H1378  1  0.24320000  0.70460000  0.17820000  1.0 0.071256841
H  H1379  1  0.02640000  0.06500000  0.32180000  1.0 0.071256841
H  H1380  1  0.25680000  0.43500000  0.46140000  1.0 0.071256841
H  H1381  1  0.25680000  0.32180000  0.79540000  1.0 0.071256841
H  H1382  1  0.02640000  0.46140000  0.70460000  1.0 0.071256841
H  H1383  1  0.24320000  0.03860000  0.06500000  1.0 0.071256841
H  H1384  1  0.47360000  0.17820000  0.43500000  1.0 0.071256841
H  H1385  1  0.17820000  0.43500000  0.47360000  1.0 0.071256841
H  H1386  1  0.03860000  0.06500000  0.24320000  1.0 0.071256841
H  H1387  1  0.46140000  0.70460000  0.02640000  1.0 0.071256841
H  H1388  1  0.32180000  0.79540000  0.25680000  1.0 0.071256841
H  H1389  1  0.06500000  0.24320000  0.03860000  1.0 0.071256841
H  H1390  1  0.43500000  0.47360000  0.17820000  1.0 0.071256841
H  H1391  1  0.79540000  0.25680000  0.32180000  1.0 0.071256841
H  H1392  1  0.70460000  0.02640000  0.46140000  1.0 0.071256841
H  H1393  1  0.91180000  0.51240000  0.17520000  1.0 0.0596220977
H  H1394  1  0.83720000  0.73660000  0.32480000  1.0 0.0596220977
H  H1395  1  0.66280000  0.98760000  0.89940000  1.0 0.0596220977
H  H1396  1  0.58820000  0.76340000  0.60060000  1.0 0.0596220977
H  H1397  1  0.17520000  0.91180000  0.51240000  1.0 0.0596220977
H  H1398  1  0.32480000  0.83720000  0.73660000  1.0 0.0596220977
H  H1399  1  0.89940000  0.66280000  0.98760000  1.0 0.0596220977
H  H1400  1  0.60060000  0.58820000  0.76340000  1.0 0.0596220977
H  H1401  1  0.51240000  0.17520000  0.91180000  1.0 0.0596220977
H  H1402  1  0.73660000  0.32480000  0.83720000  1.0 0.0596220977
H  H1403  1  0.98760000  0.89940000  0.66280000  1.0 0.0596220977
H  H1404  1  0.76340000  0.60060000  0.58820000  1.0 0.0596220977
H  H1405  1  0.76340000  0.66280000  0.17520000  1.0 0.0596220977
H  H1406  1  0.98760000  0.58820000  0.32480000  1.0 0.0596220977
H  H1407  1  0.73660000  0.91180000  0.89940000  1.0 0.0596220977
H  H1408  1  0.51240000  0.83720000  0.60060000  1.0 0.0596220977
H  H1409  1  0.83720000  0.60060000  0.51240000  1.0 0.0596220977
H  H1410  1  0.91180000  0.89940000  0.73660000  1.0 0.0596220977
H  H1411  1  0.58820000  0.32480000  0.98760000  1.0 0.0596220977
H  H1412  1  0.66280000  0.17520000  0.76340000  1.0 0.0596220977
H  H1413  1  0.89940000  0.73660000  0.91180000  1.0 0.0596220977
H  H1414  1  0.60060000  0.51240000  0.83720000  1.0 0.0596220977
H  H1415  1  0.17520000  0.76340000  0.66280000  1.0 0.0596220977
H  H1416  1  0.32480000  0.98760000  0.58820000  1.0 0.0596220977
H  H1417  1  0.08820000  0.48760000  0.82480000  1.0 0.0596220977
H  H1418  1  0.16280000  0.26340000  0.67520000  1.0 0.0596220977
H  H1419  1  0.33720000  0.01240000  0.10060000  1.0 0.0596220977
H  H1420  1  0.41180000  0.23660000  0.39940000  1.0 0.0596220977
H  H1421  1  0.82480000  0.08820000  0.48760000  1.0 0.0596220977
H  H1422  1  0.67520000  0.16280000  0.26340000  1.0 0.0596220977
H  H1423  1  0.10060000  0.33720000  0.01240000  1.0 0.0596220977
H  H1424  1  0.39940000  0.41180000  0.23660000  1.0 0.0596220977
H  H1425  1  0.48760000  0.82480000  0.08820000  1.0 0.0596220977
H  H1426  1  0.26340000  0.67520000  0.16280000  1.0 0.0596220977
H  H1427  1  0.01240000  0.10060000  0.33720000  1.0 0.0596220977
H  H1428  1  0.23660000  0.39940000  0.41180000  1.0 0.0596220977
H  H1429  1  0.23660000  0.33720000  0.82480000  1.0 0.0596220977
H  H1430  1  0.01240000  0.41180000  0.67520000  1.0 0.0596220977
H  H1431  1  0.26340000  0.08820000  0.10060000  1.0 0.0596220977
H  H1432  1  0.48760000  0.16280000  0.39940000  1.0 0.0596220977
H  H1433  1  0.16280000  0.39940000  0.48760000  1.0 0.0596220977
H  H1434  1  0.08820000  0.10060000  0.26340000  1.0 0.0596220977
H  H1435  1  0.41180000  0.67520000  0.01240000  1.0 0.0596220977
H  H1436  1  0.33720000  0.82480000  0.23660000  1.0 0.0596220977
H  H1437  1  0.10060000  0.26340000  0.08820000  1.0 0.0596220977
H  H1438  1  0.39940000  0.48760000  0.16280000  1.0 0.0596220977
H  H1439  1  0.82480000  0.23660000  0.33720000  1.0 0.0596220977
H  H1440  1  0.67520000  0.01240000  0.41180000  1.0 0.0596220977
H  H1441  1  0.97250000  0.51640000  0.14210000  1.0 0.090007057
H  H1442  1  0.87430000  0.83040000  0.35790000  1.0 0.090007057
H  H1443  1  0.62570000  0.98360000  0.95610000  1.0 0.090007057
H  H1444  1  0.52750000  0.66960000  0.54390000  1.0 0.090007057
H  H1445  1  0.14210000  0.97250000  0.51640000  1.0 0.090007057
H  H1446  1  0.35790000  0.87430000  0.83040000  1.0 0.090007057
H  H1447  1  0.95610000  0.62570000  0.98360000  1.0 0.090007057
H  H1448  1  0.54390000  0.52750000  0.66960000  1.0 0.090007057
H  H1449  1  0.51640000  0.14210000  0.97250000  1.0 0.090007057
H  H1450  1  0.83040000  0.35790000  0.87430000  1.0 0.090007057
H  H1451  1  0.98360000  0.95610000  0.62570000  1.0 0.090007057
H  H1452  1  0.66960000  0.54390000  0.52750000  1.0 0.090007057
H  H1453  1  0.66960000  0.62570000  0.14210000  1.0 0.090007057
H  H1454  1  0.98360000  0.52750000  0.35790000  1.0 0.090007057
H  H1455  1  0.83040000  0.97250000  0.95610000  1.0 0.090007057
H  H1456  1  0.51640000  0.87430000  0.54390000  1.0 0.090007057
H  H1457  1  0.87430000  0.54390000  0.51640000  1.0 0.090007057
H  H1458  1  0.97250000  0.95610000  0.83040000  1.0 0.090007057
H  H1459  1  0.52750000  0.35790000  0.98360000  1.0 0.090007057
H  H1460  1  0.62570000  0.14210000  0.66960000  1.0 0.090007057
H  H1461  1  0.95610000  0.83040000  0.97250000  1.0 0.090007057
H  H1462  1  0.54390000  0.51640000  0.87430000  1.0 0.090007057
H  H1463  1  0.14210000  0.66960000  0.62570000  1.0 0.090007057
H  H1464  1  0.35790000  0.98360000  0.52750000  1.0 0.090007057
H  H1465  1  0.02750000  0.48360000  0.85790000  1.0 0.090007057
H  H1466  1  0.12570000  0.16960000  0.64210000  1.0 0.090007057
H  H1467  1  0.37430000  0.01640000  0.04390000  1.0 0.090007057
H  H1468  1  0.47250000  0.33040000  0.45610000  1.0 0.090007057
H  H1469  1  0.85790000  0.02750000  0.48360000  1.0 0.090007057
H  H1470  1  0.64210000  0.12570000  0.16960000  1.0 0.090007057
H  H1471  1  0.04390000  0.37430000  0.01640000  1.0 0.090007057
H  H1472  1  0.45610000  0.47250000  0.33040000  1.0 0.090007057
H  H1473  1  0.48360000  0.85790000  0.02750000  1.0 0.090007057
H  H1474  1  0.16960000  0.64210000  0.12570000  1.0 0.090007057
H  H1475  1  0.01640000  0.04390000  0.37430000  1.0 0.090007057
H  H1476  1  0.33040000  0.45610000  0.47250000  1.0 0.090007057
H  H1477  1  0.33040000  0.37430000  0.85790000  1.0 0.090007057
H  H1478  1  0.01640000  0.47250000  0.64210000  1.0 0.090007057
H  H1479  1  0.16960000  0.02750000  0.04390000  1.0 0.090007057
H  H1480  1  0.48360000  0.12570000  0.45610000  1.0 0.090007057
H  H1481  1  0.12570000  0.45610000  0.48360000  1.0 0.090007057
H  H1482  1  0.02750000  0.04390000  0.16960000  1.0 0.090007057
H  H1483  1  0.47250000  0.64210000  0.01640000  1.0 0.090007057
H  H1484  1  0.37430000  0.85790000  0.33040000  1.0 0.090007057
H  H1485  1  0.04390000  0.16960000  0.02750000  1.0 0.090007057
H  H1486  1  0.45610000  0.48360000  0.12570000  1.0 0.090007057
H  H1487  1  0.85790000  0.33040000  0.37430000  1.0 0.090007057
H  H1488  1  0.64210000  0.01640000  0.47250000  1.0 0.090007057
H  H1489  1  0.92290000  0.50230000  0.11260000  1.0 0.0506389114
H  H1490  1  0.88970000  0.81030000  0.38740000  1.0 0.0506389114
H  H1491  1  0.61030000  0.99770000  0.92060000  1.0 0.0506389114
H  H1492  1  0.57710000  0.68970000  0.57940000  1.0 0.0506389114
H  H1493  1  0.11260000  0.92290000  0.50230000  1.0 0.0506389114
H  H1494  1  0.38740000  0.88970000  0.81030000  1.0 0.0506389114
H  H1495  1  0.92060000  0.61030000  0.99770000  1.0 0.0506389114
H  H1496  1  0.57940000  0.57710000  0.68970000  1.0 0.0506389114
H  H1497  1  0.50230000  0.11260000  0.92290000  1.0 0.0506389114
H  H1498  1  0.81030000  0.38740000  0.88970000  1.0 0.0506389114
H  H1499  1  0.99770000  0.92060000  0.61030000  1.0 0.0506389114
H  H1500  1  0.68970000  0.57940000  0.57710000  1.0 0.0506389114
H  H1501  1  0.68970000  0.61030000  0.11260000  1.0 0.0506389114
H  H1502  1  0.99770000  0.57710000  0.38740000  1.0 0.0506389114
H  H1503  1  0.81030000  0.92290000  0.92060000  1.0 0.0506389114
H  H1504  1  0.50230000  0.88970000  0.57940000  1.0 0.0506389114
H  H1505  1  0.88970000  0.57940000  0.50230000  1.0 0.0506389114
H  H1506  1  0.92290000  0.92060000  0.81030000  1.0 0.0506389114
H  H1507  1  0.57710000  0.38740000  0.99770000  1.0 0.0506389114
H  H1508  1  0.61030000  0.11260000  0.68970000  1.0 0.0506389114
H  H1509  1  0.92060000  0.81030000  0.92290000  1.0 0.0506389114
H  H1510  1  0.57940000  0.50230000  0.88970000  1.0 0.0506389114
H  H1511  1  0.11260000  0.68970000  0.61030000  1.0 0.0506389114
H  H1512  1  0.38740000  0.99770000  0.57710000  1.0 0.0506389114
H  H1513  1  0.07710000  0.49770000  0.88740000  1.0 0.0506389114
H  H1514  1  0.11030000  0.18970000  0.61260000  1.0 0.0506389114
H  H1515  1  0.38970000  0.00230000  0.07940000  1.0 0.0506389114
H  H1516  1  0.42290000  0.31030000  0.42060000  1.0 0.0506389114
H  H1517  1  0.88740000  0.07710000  0.49770000  1.0 0.0506389114
H  H1518  1  0.61260000  0.11030000  0.18970000  1.0 0.0506389114
H  H1519  1  0.07940000  0.38970000  0.00230000  1.0 0.0506389114
H  H1520  1  0.42060000  0.42290000  0.31030000  1.0 0.0506389114
H  H1521  1  0.49770000  0.88740000  0.07710000  1.0 0.0506389114
H  H1522  1  0.18970000  0.61260000  0.11030000  1.0 0.0506389114
H  H1523  1  0.00230000  0.07940000  0.38970000  1.0 0.0506389114
H  H1524  1  0.31030000  0.42060000  0.42290000  1.0 0.0506389114
H  H1525  1  0.31030000  0.38970000  0.88740000  1.0 0.0506389114
H  H1526  1  0.00230000  0.42290000  0.61260000  1.0 0.0506389114
H  H1527  1  0.18970000  0.07710000  0.07940000  1.0 0.0506389114
H  H1528  1  0.49770000  0.11030000  0.42060000  1.0 0.0506389114
H  H1529  1  0.11030000  0.42060000  0.49770000  1.0 0.0506389114
H  H1530  1  0.07710000  0.07940000  0.18970000  1.0 0.0506389114
H  H1531  1  0.42290000  0.61260000  0.00230000  1.0 0.0506389114
H  H1532  1  0.38970000  0.88740000  0.31030000  1.0 0.0506389114
H  H1533  1  0.07940000  0.18970000  0.07710000  1.0 0.0506389114
H  H1534  1  0.42060000  0.49770000  0.11030000  1.0 0.0506389114
H  H1535  1  0.88740000  0.31030000  0.38970000  1.0 0.0506389114
H  H1536  1  0.61260000  0.00230000  0.42290000  1.0 0.0506389114
H  H1537  1  0.96910000  0.57740000  0.13690000  1.0 0.0596220977
H  H1538  1  0.94050000  0.83220000  0.36310000  1.0 0.0596220977
H  H1539  1  0.55950000  0.92260000  0.89170000  1.0 0.0596220977
H  H1540  1  0.53090000  0.66780000  0.60830000  1.0 0.0596220977
H  H1541  1  0.13690000  0.96910000  0.57740000  1.0 0.0596220977
H  H1542  1  0.36310000  0.94050000  0.83220000  1.0 0.0596220977
H  H1543  1  0.89170000  0.55950000  0.92260000  1.0 0.0596220977
H  H1544  1  0.60830000  0.53090000  0.66780000  1.0 0.0596220977
H  H1545  1  0.57740000  0.13690000  0.96910000  1.0 0.0596220977
H  H1546  1  0.83220000  0.36310000  0.94050000  1.0 0.0596220977
H  H1547  1  0.92260000  0.89170000  0.55950000  1.0 0.0596220977
H  H1548  1  0.66780000  0.60830000  0.53090000  1.0 0.0596220977
H  H1549  1  0.66780000  0.55950000  0.13690000  1.0 0.0596220977
H  H1550  1  0.92260000  0.53090000  0.36310000  1.0 0.0596220977
H  H1551  1  0.83220000  0.96910000  0.89170000  1.0 0.0596220977
H  H1552  1  0.57740000  0.94050000  0.60830000  1.0 0.0596220977
H  H1553  1  0.94050000  0.60830000  0.57740000  1.0 0.0596220977
H  H1554  1  0.96910000  0.89170000  0.83220000  1.0 0.0596220977
H  H1555  1  0.53090000  0.36310000  0.92260000  1.0 0.0596220977
H  H1556  1  0.55950000  0.13690000  0.66780000  1.0 0.0596220977
H  H1557  1  0.89170000  0.83220000  0.96910000  1.0 0.0596220977
H  H1558  1  0.60830000  0.57740000  0.94050000  1.0 0.0596220977
H  H1559  1  0.13690000  0.66780000  0.55950000  1.0 0.0596220977
H  H1560  1  0.36310000  0.92260000  0.53090000  1.0 0.0596220977
H  H1561  1  0.03090000  0.42260000  0.86310000  1.0 0.0596220977
H  H1562  1  0.05950000  0.16780000  0.63690000  1.0 0.0596220977
H  H1563  1  0.44050000  0.07740000  0.10830000  1.0 0.0596220977
H  H1564  1  0.46910000  0.33220000  0.39170000  1.0 0.0596220977
H  H1565  1  0.86310000  0.03090000  0.42260000  1.0 0.0596220977
H  H1566  1  0.63690000  0.05950000  0.16780000  1.0 0.0596220977
H  H1567  1  0.10830000  0.44050000  0.07740000  1.0 0.0596220977
H  H1568  1  0.39170000  0.46910000  0.33220000  1.0 0.0596220977
H  H1569  1  0.42260000  0.86310000  0.03090000  1.0 0.0596220977
H  H1570  1  0.16780000  0.63690000  0.05950000  1.0 0.0596220977
H  H1571  1  0.07740000  0.10830000  0.44050000  1.0 0.0596220977
H  H1572  1  0.33220000  0.39170000  0.46910000  1.0 0.0596220977
H  H1573  1  0.33220000  0.44050000  0.86310000  1.0 0.0596220977
H  H1574  1  0.07740000  0.46910000  0.63690000  1.0 0.0596220977
H  H1575  1  0.16780000  0.03090000  0.10830000  1.0 0.0596220977
H  H1576  1  0.42260000  0.05950000  0.39170000  1.0 0.0596220977
H  H1577  1  0.05950000  0.39170000  0.42260000  1.0 0.0596220977
H  H1578  1  0.03090000  0.10830000  0.16780000  1.0 0.0596220977
H  H1579  1  0.46910000  0.63690000  0.07740000  1.0 0.0596220977
H  H1580  1  0.44050000  0.86310000  0.33220000  1.0 0.0596220977
H  H1581  1  0.10830000  0.16780000  0.03090000  1.0 0.0596220977
H  H1582  1  0.39170000  0.42260000  0.05950000  1.0 0.0596220977
H  H1583  1  0.86310000  0.33220000  0.44050000  1.0 0.0596220977
H  H1584  1  0.63690000  0.07740000  0.46910000  1.0 0.0596220977
H  H1585  1  0.93760000  0.57450000  0.15710000  1.0 0.0596220977
H  H1586  1  0.91740000  0.78050000  0.34290000  1.0 0.0596220977
H  H1587  1  0.58260000  0.92550000  0.86310000  1.0 0.0596220977
H  H1588  1  0.56240000  0.71950000  0.63690000  1.0 0.0596220977
H  H1589  1  0.15710000  0.93760000  0.57450000  1.0 0.0596220977
H  H1590  1  0.34290000  0.91740000  0.78050000  1.0 0.0596220977
H  H1591  1  0.86310000  0.58260000  0.92550000  1.0 0.0596220977
H  H1592  1  0.63690000  0.56240000  0.71950000  1.0 0.0596220977
H  H1593  1  0.57450000  0.15710000  0.93760000  1.0 0.0596220977
H  H1594  1  0.78050000  0.34290000  0.91740000  1.0 0.0596220977
H  H1595  1  0.92550000  0.86310000  0.58260000  1.0 0.0596220977
H  H1596  1  0.71950000  0.63690000  0.56240000  1.0 0.0596220977
H  H1597  1  0.71950000  0.58260000  0.15710000  1.0 0.0596220977
H  H1598  1  0.92550000  0.56240000  0.34290000  1.0 0.0596220977
H  H1599  1  0.78050000  0.93760000  0.86310000  1.0 0.0596220977
H  H1600  1  0.57450000  0.91740000  0.63690000  1.0 0.0596220977
H  H1601  1  0.91740000  0.63690000  0.57450000  1.0 0.0596220977
H  H1602  1  0.93760000  0.86310000  0.78050000  1.0 0.0596220977
H  H1603  1  0.56240000  0.34290000  0.92550000  1.0 0.0596220977
H  H1604  1  0.58260000  0.15710000  0.71950000  1.0 0.0596220977
H  H1605  1  0.86310000  0.78050000  0.93760000  1.0 0.0596220977
H  H1606  1  0.63690000  0.57450000  0.91740000  1.0 0.0596220977
H  H1607  1  0.15710000  0.71950000  0.58260000  1.0 0.0596220977
H  H1608  1  0.34290000  0.92550000  0.56240000  1.0 0.0596220977
H  H1609  1  0.06240000  0.42550000  0.84290000  1.0 0.0596220977
H  H1610  1  0.08260000  0.21950000  0.65710000  1.0 0.0596220977
H  H1611  1  0.41740000  0.07450000  0.13690000  1.0 0.0596220977
H  H1612  1  0.43760000  0.28050000  0.36310000  1.0 0.0596220977
H  H1613  1  0.84290000  0.06240000  0.42550000  1.0 0.0596220977
H  H1614  1  0.65710000  0.08260000  0.21950000  1.0 0.0596220977
H  H1615  1  0.13690000  0.41740000  0.07450000  1.0 0.0596220977
H  H1616  1  0.36310000  0.43760000  0.28050000  1.0 0.0596220977
H  H1617  1  0.42550000  0.84290000  0.06240000  1.0 0.0596220977
H  H1618  1  0.21950000  0.65710000  0.08260000  1.0 0.0596220977
H  H1619  1  0.07450000  0.13690000  0.41740000  1.0 0.0596220977
H  H1620  1  0.28050000  0.36310000  0.43760000  1.0 0.0596220977
H  H1621  1  0.28050000  0.41740000  0.84290000  1.0 0.0596220977
H  H1622  1  0.07450000  0.43760000  0.65710000  1.0 0.0596220977
H  H1623  1  0.21950000  0.06240000  0.13690000  1.0 0.0596220977
H  H1624  1  0.42550000  0.08260000  0.36310000  1.0 0.0596220977
H  H1625  1  0.08260000  0.36310000  0.42550000  1.0 0.0596220977
H  H1626  1  0.06240000  0.13690000  0.21950000  1.0 0.0596220977
H  H1627  1  0.43760000  0.65710000  0.07450000  1.0 0.0596220977
H  H1628  1  0.41740000  0.84290000  0.28050000  1.0 0.0596220977
H  H1629  1  0.13690000  0.21950000  0.06240000  1.0 0.0596220977
H  H1630  1  0.36310000  0.42550000  0.08260000  1.0 0.0596220977
H  H1631  1  0.84290000  0.28050000  0.41740000  1.0 0.0596220977
H  H1632  1  0.65710000  0.07450000  0.43760000  1.0 0.0596220977
H  H1633  1  0.98730000  0.58860000  0.18650000  1.0 0.079106117
H  H1634  1  0.90210000  0.80080000  0.31350000  1.0 0.079106117
H  H1635  1  0.59790000  0.91140000  0.89870000  1.0 0.079106117
H  H1636  1  0.51270000  0.69920000  0.60130000  1.0 0.079106117
H  H1637  1  0.18650000  0.98730000  0.58860000  1.0 0.079106117
H  H1638  1  0.31350000  0.90210000  0.80080000  1.0 0.079106117
H  H1639  1  0.89870000  0.59790000  0.91140000  1.0 0.079106117
H  H1640  1  0.60130000  0.51270000  0.69920000  1.0 0.079106117
H  H1641  1  0.58860000  0.18650000  0.98730000  1.0 0.079106117
H  H1642  1  0.80080000  0.31350000  0.90210000  1.0 0.079106117
H  H1643  1  0.91140000  0.89870000  0.59790000  1.0 0.079106117
H  H1644  1  0.69920000  0.60130000  0.51270000  1.0 0.079106117
H  H1645  1  0.69920000  0.59790000  0.18650000  1.0 0.079106117
H  H1646  1  0.91140000  0.51270000  0.31350000  1.0 0.079106117
H  H1647  1  0.80080000  0.98730000  0.89870000  1.0 0.079106117
H  H1648  1  0.58860000  0.90210000  0.60130000  1.0 0.079106117
H  H1649  1  0.90210000  0.60130000  0.58860000  1.0 0.079106117
H  H1650  1  0.98730000  0.89870000  0.80080000  1.0 0.079106117
H  H1651  1  0.51270000  0.31350000  0.91140000  1.0 0.079106117
H  H1652  1  0.59790000  0.18650000  0.69920000  1.0 0.079106117
H  H1653  1  0.89870000  0.80080000  0.98730000  1.0 0.079106117
H  H1654  1  0.60130000  0.58860000  0.90210000  1.0 0.079106117
H  H1655  1  0.18650000  0.69920000  0.59790000  1.0 0.079106117
H  H1656  1  0.31350000  0.91140000  0.51270000  1.0 0.079106117
H  H1657  1  0.01270000  0.41140000  0.81350000  1.0 0.079106117
H  H1658  1  0.09790000  0.19920000  0.68650000  1.0 0.079106117
H  H1659  1  0.40210000  0.08860000  0.10130000  1.0 0.079106117
H  H1660  1  0.48730000  0.30080000  0.39870000  1.0 0.079106117
H  H1661  1  0.81350000  0.01270000  0.41140000  1.0 0.079106117
H  H1662  1  0.68650000  0.09790000  0.19920000  1.0 0.079106117
H  H1663  1  0.10130000  0.40210000  0.08860000  1.0 0.079106117
H  H1664  1  0.39870000  0.48730000  0.30080000  1.0 0.079106117
H  H1665  1  0.41140000  0.81350000  0.01270000  1.0 0.079106117
H  H1666  1  0.19920000  0.68650000  0.09790000  1.0 0.079106117
H  H1667  1  0.08860000  0.10130000  0.40210000  1.0 0.079106117
H  H1668  1  0.30080000  0.39870000  0.48730000  1.0 0.079106117
H  H1669  1  0.30080000  0.40210000  0.81350000  1.0 0.079106117
H  H1670  1  0.08860000  0.48730000  0.68650000  1.0 0.079106117
H  H1671  1  0.19920000  0.01270000  0.10130000  1.0 0.079106117
H  H1672  1  0.41140000  0.09790000  0.39870000  1.0 0.079106117
H  H1673  1  0.09790000  0.39870000  0.41140000  1.0 0.079106117
H  H1674  1  0.01270000  0.10130000  0.19920000  1.0 0.079106117
H  H1675  1  0.48730000  0.68650000  0.08860000  1.0 0.079106117
H  H1676  1  0.40210000  0.81350000  0.30080000  1.0 0.079106117
H  H1677  1  0.10130000  0.19920000  0.01270000  1.0 0.079106117
H  H1678  1  0.39870000  0.41140000  0.09790000  1.0 0.079106117
H  H1679  1  0.81350000  0.30080000  0.40210000  1.0 0.079106117
H  H1680  1  0.68650000  0.08860000  0.48730000  1.0 0.079106117
C  C1  1  0.81471000  0.33162000  0.24651000  1.0 0.5344665251
C  C2  1  0.58511000  0.56820000  0.25349000  1.0 0.5344665251
C  C3  1  0.91489000  0.16838000  0.98309000  1.0 0.5344665251
C  C4  1  0.68529000  0.93180000  0.51691000  1.0 0.5344665251
C  C5  1  0.24651000  0.81471000  0.33162000  1.0 0.5344665251
C  C6  1  0.25349000  0.58511000  0.56820000  1.0 0.5344665251
C  C7  1  0.98309000  0.91489000  0.16838000  1.0 0.5344665251
C  C8  1  0.51691000  0.68529000  0.93180000  1.0 0.5344665251
C  C9  1  0.33162000  0.24651000  0.81471000  1.0 0.5344665251
C  C10  1  0.56820000  0.25349000  0.58511000  1.0 0.5344665251
C  C11  1  0.16838000  0.98309000  0.91489000  1.0 0.5344665251
C  C12  1  0.93180000  0.51691000  0.68529000  1.0 0.5344665251
C  C13  1  0.93180000  0.91489000  0.24651000  1.0 0.5344665251
C  C14  1  0.16838000  0.68529000  0.25349000  1.0 0.5344665251
C  C15  1  0.56820000  0.81471000  0.98309000  1.0 0.5344665251
C  C16  1  0.33162000  0.58511000  0.51691000  1.0 0.5344665251
C  C17  1  0.58511000  0.51691000  0.33162000  1.0 0.5344665251
C  C18  1  0.81471000  0.98309000  0.56820000  1.0 0.5344665251
C  C19  1  0.68529000  0.25349000  0.16838000  1.0 0.5344665251
C  C20  1  0.91489000  0.24651000  0.93180000  1.0 0.5344665251
C  C21  1  0.98309000  0.56820000  0.81471000  1.0 0.5344665251
C  C22  1  0.51691000  0.33162000  0.58511000  1.0 0.5344665251
C  C23  1  0.24651000  0.93180000  0.91489000  1.0 0.5344665251
C  C24  1  0.25349000  0.16838000  0.68529000  1.0 0.5344665251
C  C25  1  0.18529000  0.66838000  0.75349000  1.0 0.5344665251
C  C26  1  0.41489000  0.43180000  0.74651000  1.0 0.5344665251
C  C27  1  0.08511000  0.83162000  0.01691000  1.0 0.5344665251
C  C28  1  0.31471000  0.06820000  0.48309000  1.0 0.5344665251
C  C29  1  0.75349000  0.18529000  0.66838000  1.0 0.5344665251
C  C30  1  0.74651000  0.41489000  0.43180000  1.0 0.5344665251
C  C31  1  0.01691000  0.08511000  0.83162000  1.0 0.5344665251
C  C32  1  0.48309000  0.31471000  0.06820000  1.0 0.5344665251
C  C33  1  0.66838000  0.75349000  0.18529000  1.0 0.5344665251
C  C34  1  0.43180000  0.74651000  0.41489000  1.0 0.5344665251
C  C35  1  0.83162000  0.01691000  0.08511000  1.0 0.5344665251
C  C36  1  0.06820000  0.48309000  0.31471000  1.0 0.5344665251
C  C37  1  0.06820000  0.08511000  0.75349000  1.0 0.5344665251
C  C38  1  0.83162000  0.31471000  0.74651000  1.0 0.5344665251
C  C39  1  0.43180000  0.18529000  0.01691000  1.0 0.5344665251
C  C40  1  0.66838000  0.41489000  0.48309000  1.0 0.5344665251
C  C41  1  0.41489000  0.48309000  0.66838000  1.0 0.5344665251
C  C42  1  0.18529000  0.01691000  0.43180000  1.0 0.5344665251
C  C43  1  0.31471000  0.74651000  0.83162000  1.0 0.5344665251
C  C44  1  0.08511000  0.75349000  0.06820000  1.0 0.5344665251
C  C45  1  0.01691000  0.43180000  0.18529000  1.0 0.5344665251
C  C46  1  0.48309000  0.66838000  0.41489000  1.0 0.5344665251
C  C47  1  0.75349000  0.06820000  0.08511000  1.0 0.5344665251
C  C48  1  0.74651000  0.83162000  0.31471000  1.0 0.5344665251
C  C49  1  0.85136000  0.37215000  0.25509000  1.0 -0.0393411619
C  C50  1  0.61706000  0.59627000  0.24491000  1.0 -0.0393411619
C  C51  1  0.88294000  0.12785000  0.97921000  1.0 -0.0393411619
C  C52  1  0.64864000  0.90373000  0.52079000  1.0 -0.0393411619
C  C53  1  0.25509000  0.85136000  0.37215000  1.0 -0.0393411619
C  C54  1  0.24491000  0.61706000  0.59627000  1.0 -0.0393411619
C  C55  1  0.97921000  0.88294000  0.12785000  1.0 -0.0393411619
C  C56  1  0.52079000  0.64864000  0.90373000  1.0 -0.0393411619
C  C57  1  0.37215000  0.25509000  0.85136000  1.0 -0.0393411619
C  C58  1  0.59627000  0.24491000  0.61706000  1.0 -0.0393411619
C  C59  1  0.12785000  0.97921000  0.88294000  1.0 -0.0393411619
C  C60  1  0.90373000  0.52079000  0.64864000  1.0 -0.0393411619
C  C61  1  0.90373000  0.88294000  0.25509000  1.0 -0.0393411619
C  C62  1  0.12785000  0.64864000  0.24491000  1.0 -0.0393411619
C  C63  1  0.59627000  0.85136000  0.97921000  1.0 -0.0393411619
C  C64  1  0.37215000  0.61706000  0.52079000  1.0 -0.0393411619
C  C65  1  0.61706000  0.52079000  0.37215000  1.0 -0.0393411619
C  C66  1  0.85136000  0.97921000  0.59627000  1.0 -0.0393411619
C  C67  1  0.64864000  0.24491000  0.12785000  1.0 -0.0393411619
C  C68  1  0.88294000  0.25509000  0.90373000  1.0 -0.0393411619
C  C69  1  0.97921000  0.59627000  0.85136000  1.0 -0.0393411619
C  C70  1  0.52079000  0.37215000  0.61706000  1.0 -0.0393411619
C  C71  1  0.25509000  0.90373000  0.88294000  1.0 -0.0393411619
C  C72  1  0.24491000  0.12785000  0.64864000  1.0 -0.0393411619
C  C73  1  0.14864000  0.62785000  0.74491000  1.0 -0.0393411619
C  C74  1  0.38294000  0.40373000  0.75509000  1.0 -0.0393411619
C  C75  1  0.11706000  0.87215000  0.02079000  1.0 -0.0393411619
C  C76  1  0.35136000  0.09627000  0.47921000  1.0 -0.0393411619
C  C77  1  0.74491000  0.14864000  0.62785000  1.0 -0.0393411619
C  C78  1  0.75509000  0.38294000  0.40373000  1.0 -0.0393411619
C  C79  1  0.02079000  0.11706000  0.87215000  1.0 -0.0393411619
C  C80  1  0.47921000  0.35136000  0.09627000  1.0 -0.0393411619
C  C81  1  0.62785000  0.74491000  0.14864000  1.0 -0.0393411619
C  C82  1  0.40373000  0.75509000  0.38294000  1.0 -0.0393411619
C  C83  1  0.87215000  0.02079000  0.11706000  1.0 -0.0393411619
C  C84  1  0.09627000  0.47921000  0.35136000  1.0 -0.0393411619
C  C85  1  0.09627000  0.11706000  0.74491000  1.0 -0.0393411619
C  C86  1  0.87215000  0.35136000  0.75509000  1.0 -0.0393411619
C  C87  1  0.40373000  0.14864000  0.02079000  1.0 -0.0393411619
C  C88  1  0.62785000  0.38294000  0.47921000  1.0 -0.0393411619
C  C89  1  0.38294000  0.47921000  0.62785000  1.0 -0.0393411619
C  C90  1  0.14864000  0.02079000  0.40373000  1.0 -0.0393411619
C  C91  1  0.35136000  0.75509000  0.87215000  1.0 -0.0393411619
C  C92  1  0.11706000  0.74491000  0.09627000  1.0 -0.0393411619
C  C93  1  0.02079000  0.40373000  0.14864000  1.0 -0.0393411619
C  C94  1  0.47921000  0.62785000  0.38294000  1.0 -0.0393411619
C  C95  1  0.74491000  0.09627000  0.11706000  1.0 -0.0393411619
C  C96  1  0.75509000  0.87215000  0.35136000  1.0 -0.0393411619
C  C97  1  0.88198000  0.40901000  0.30243000  1.0 -0.2790903981
C  C98  1  0.60658000  0.57955000  0.19757000  1.0 -0.2790903981
C  C99  1  0.89342000  0.09099000  0.97297000  1.0 -0.2790903981
C  C100  1  0.61802000  0.92045000  0.52703000  1.0 -0.2790903981
C  C101  1  0.30243000  0.88198000  0.40901000  1.0 -0.2790903981
C  C102  1  0.19757000  0.60658000  0.57955000  1.0 -0.2790903981
C  C103  1  0.97297000  0.89342000  0.09099000  1.0 -0.2790903981
C  C104  1  0.52703000  0.61802000  0.92045000  1.0 -0.2790903981
C  C105  1  0.40901000  0.30243000  0.88198000  1.0 -0.2790903981
C  C106  1  0.57955000  0.19757000  0.60658000  1.0 -0.2790903981
C  C107  1  0.09099000  0.97297000  0.89342000  1.0 -0.2790903981
C  C108  1  0.92045000  0.52703000  0.61802000  1.0 -0.2790903981
C  C109  1  0.92045000  0.89342000  0.30243000  1.0 -0.2790903981
C  C110  1  0.09099000  0.61802000  0.19757000  1.0 -0.2790903981
C  C111  1  0.57955000  0.88198000  0.97297000  1.0 -0.2790903981
C  C112  1  0.40901000  0.60658000  0.52703000  1.0 -0.2790903981
C  C113  1  0.60658000  0.52703000  0.40901000  1.0 -0.2790903981
C  C114  1  0.88198000  0.97297000  0.57955000  1.0 -0.2790903981
C  C115  1  0.61802000  0.19757000  0.09099000  1.0 -0.2790903981
C  C116  1  0.89342000  0.30243000  0.92045000  1.0 -0.2790903981
C  C117  1  0.97297000  0.57955000  0.88198000  1.0 -0.2790903981
C  C118  1  0.52703000  0.40901000  0.60658000  1.0 -0.2790903981
C  C119  1  0.30243000  0.92045000  0.89342000  1.0 -0.2790903981
C  C120  1  0.19757000  0.09099000  0.61802000  1.0 -0.2790903981
C  C121  1  0.11802000  0.59099000  0.69757000  1.0 -0.2790903981
C  C122  1  0.39342000  0.42045000  0.80243000  1.0 -0.2790903981
C  C123  1  0.10658000  0.90901000  0.02703000  1.0 -0.2790903981
C  C124  1  0.38198000  0.07955000  0.47297000  1.0 -0.2790903981
C  C125  1  0.69757000  0.11802000  0.59099000  1.0 -0.2790903981
C  C126  1  0.80243000  0.39342000  0.42045000  1.0 -0.2790903981
C  C127  1  0.02703000  0.10658000  0.90901000  1.0 -0.2790903981
C  C128  1  0.47297000  0.38198000  0.07955000  1.0 -0.2790903981
C  C129  1  0.59099000  0.69757000  0.11802000  1.0 -0.2790903981
C  C130  1  0.42045000  0.80243000  0.39342000  1.0 -0.2790903981
C  C131  1  0.90901000  0.02703000  0.10658000  1.0 -0.2790903981
C  C132  1  0.07955000  0.47297000  0.38198000  1.0 -0.2790903981
C  C133  1  0.07955000  0.10658000  0.69757000  1.0 -0.2790903981
C  C134  1  0.90901000  0.38198000  0.80243000  1.0 -0.2790903981
C  C135  1  0.42045000  0.11802000  0.02703000  1.0 -0.2790903981
C  C136  1  0.59099000  0.39342000  0.47297000  1.0 -0.2790903981
C  C137  1  0.39342000  0.47297000  0.59099000  1.0 -0.2790903981
C  C138  1  0.11802000  0.02703000  0.42045000  1.0 -0.2790903981
C  C139  1  0.38198000  0.80243000  0.90901000  1.0 -0.2790903981
C  C140  1  0.10658000  0.69757000  0.07955000  1.0 -0.2790903981
C  C141  1  0.02703000  0.42045000  0.11802000  1.0 -0.2790903981
C  C142  1  0.47297000  0.59099000  0.39342000  1.0 -0.2790903981
C  C143  1  0.69757000  0.07955000  0.10658000  1.0 -0.2790903981
C  C144  1  0.80243000  0.90901000  0.38198000  1.0 -0.2790903981
C  C145  1  0.91552000  0.39820000  0.32612000  1.0 0.0108479955
C  C146  1  0.57208000  0.58940000  0.17388000  1.0 0.0108479955
C  C147  1  0.92792000  0.10180000  0.01732000  1.0 0.0108479955
C  C148  1  0.58448000  0.91060000  0.48268000  1.0 0.0108479955
C  C149  1  0.32612000  0.91552000  0.39820000  1.0 0.0108479955
C  C150  1  0.17388000  0.57208000  0.58940000  1.0 0.0108479955
C  C151  1  0.01732000  0.92792000  0.10180000  1.0 0.0108479955
C  C152  1  0.48268000  0.58448000  0.91060000  1.0 0.0108479955
C  C153  1  0.39820000  0.32612000  0.91552000  1.0 0.0108479955
C  C154  1  0.58940000  0.17388000  0.57208000  1.0 0.0108479955
C  C155  1  0.10180000  0.01732000  0.92792000  1.0 0.0108479955
C  C156  1  0.91060000  0.48268000  0.58448000  1.0 0.0108479955
C  C157  1  0.91060000  0.92792000  0.32612000  1.0 0.0108479955
C  C158  1  0.10180000  0.58448000  0.17388000  1.0 0.0108479955
C  C159  1  0.58940000  0.91552000  0.01732000  1.0 0.0108479955
C  C160  1  0.39820000  0.57208000  0.48268000  1.0 0.0108479955
C  C161  1  0.57208000  0.48268000  0.39820000  1.0 0.0108479955
C  C162  1  0.91552000  0.01732000  0.58940000  1.0 0.0108479955
C  C163  1  0.58448000  0.17388000  0.10180000  1.0 0.0108479955
C  C164  1  0.92792000  0.32612000  0.91060000  1.0 0.0108479955
C  C165  1  0.01732000  0.58940000  0.91552000  1.0 0.0108479955
C  C166  1  0.48268000  0.39820000  0.57208000  1.0 0.0108479955
C  C167  1  0.32612000  0.91060000  0.92792000  1.0 0.0108479955
C  C168  1  0.17388000  0.10180000  0.58448000  1.0 0.0108479955
C  C169  1  0.08448000  0.60180000  0.67388000  1.0 0.0108479955
C  C170  1  0.42792000  0.41060000  0.82612000  1.0 0.0108479955
C  C171  1  0.07208000  0.89820000  0.98268000  1.0 0.0108479955
C  C172  1  0.41552000  0.08940000  0.51732000  1.0 0.0108479955
C  C173  1  0.67388000  0.08448000  0.60180000  1.0 0.0108479955
C  C174  1  0.82612000  0.42792000  0.41060000  1.0 0.0108479955
C  C175  1  0.98268000  0.07208000  0.89820000  1.0 0.0108479955
C  C176  1  0.51732000  0.41552000  0.08940000  1.0 0.0108479955
C  C177  1  0.60180000  0.67388000  0.08448000  1.0 0.0108479955
C  C178  1  0.41060000  0.82612000  0.42792000  1.0 0.0108479955
C  C179  1  0.89820000  0.98268000  0.07208000  1.0 0.0108479955
C  C180  1  0.08940000  0.51732000  0.41552000  1.0 0.0108479955
C  C181  1  0.08940000  0.07208000  0.67388000  1.0 0.0108479955
C  C182  1  0.89820000  0.41552000  0.82612000  1.0 0.0108479955
C  C183  1  0.41060000  0.08448000  0.98268000  1.0 0.0108479955
C  C184  1  0.60180000  0.42792000  0.51732000  1.0 0.0108479955
C  C185  1  0.42792000  0.51732000  0.60180000  1.0 0.0108479955
C  C186  1  0.08448000  0.98268000  0.41060000  1.0 0.0108479955
C  C187  1  0.41552000  0.82612000  0.89820000  1.0 0.0108479955
C  C188  1  0.07208000  0.67388000  0.08940000  1.0 0.0108479955
C  C189  1  0.98268000  0.41060000  0.08448000  1.0 0.0108479955
C  C190  1  0.51732000  0.60180000  0.42792000  1.0 0.0108479955
C  C191  1  0.67388000  0.08940000  0.07208000  1.0 0.0108479955
C  C192  1  0.82612000  0.89820000  0.41552000  1.0 0.0108479955
C  C193  1  0.93280000  0.37520000  0.30940000  1.0 -0.0910822153
C  C194  1  0.56580000  0.62340000  0.19060000  1.0 -0.0910822153
C  C195  1  0.93420000  0.12480000  0.05760000  1.0 -0.0910822153
C  C196  1  0.56720000  0.87660000  0.44240000  1.0 -0.0910822153
C  C197  1  0.30940000  0.93280000  0.37520000  1.0 -0.0910822153
C  C198  1  0.19060000  0.56580000  0.62340000  1.0 -0.0910822153
C  C199  1  0.05760000  0.93420000  0.12480000  1.0 -0.0910822153
C  C200  1  0.44240000  0.56720000  0.87660000  1.0 -0.0910822153
C  C201  1  0.37520000  0.30940000  0.93280000  1.0 -0.0910822153
C  C202  1  0.62340000  0.19060000  0.56580000  1.0 -0.0910822153
C  C203  1  0.12480000  0.05760000  0.93420000  1.0 -0.0910822153
C  C204  1  0.87660000  0.44240000  0.56720000  1.0 -0.0910822153
C  C205  1  0.87660000  0.93420000  0.30940000  1.0 -0.0910822153
C  C206  1  0.12480000  0.56720000  0.19060000  1.0 -0.0910822153
C  C207  1  0.62340000  0.93280000  0.05760000  1.0 -0.0910822153
C  C208  1  0.37520000  0.56580000  0.44240000  1.0 -0.0910822153
C  C209  1  0.56580000  0.44240000  0.37520000  1.0 -0.0910822153
C  C210  1  0.93280000  0.05760000  0.62340000  1.0 -0.0910822153
C  C211  1  0.56720000  0.19060000  0.12480000  1.0 -0.0910822153
C  C212  1  0.93420000  0.30940000  0.87660000  1.0 -0.0910822153
C  C213  1  0.05760000  0.62340000  0.93280000  1.0 -0.0910822153
C  C214  1  0.44240000  0.37520000  0.56580000  1.0 -0.0910822153
C  C215  1  0.30940000  0.87660000  0.93420000  1.0 -0.0910822153
C  C216  1  0.19060000  0.12480000  0.56720000  1.0 -0.0910822153
C  C217  1  0.06720000  0.62480000  0.69060000  1.0 -0.0910822153
C  C218  1  0.43420000  0.37660000  0.80940000  1.0 -0.0910822153
C  C219  1  0.06580000  0.87520000  0.94240000  1.0 -0.0910822153
C  C220  1  0.43280000  0.12340000  0.55760000  1.0 -0.0910822153
C  C221  1  0.69060000  0.06720000  0.62480000  1.0 -0.0910822153
C  C222  1  0.80940000  0.43420000  0.37660000  1.0 -0.0910822153
C  C223  1  0.94240000  0.06580000  0.87520000  1.0 -0.0910822153
C  C224  1  0.55760000  0.43280000  0.12340000  1.0 -0.0910822153
C  C225  1  0.62480000  0.69060000  0.06720000  1.0 -0.0910822153
C  C226  1  0.37660000  0.80940000  0.43420000  1.0 -0.0910822153
C  C227  1  0.87520000  0.94240000  0.06580000  1.0 -0.0910822153
C  C228  1  0.12340000  0.55760000  0.43280000  1.0 -0.0910822153
C  C229  1  0.12340000  0.06580000  0.69060000  1.0 -0.0910822153
C  C230  1  0.87520000  0.43280000  0.80940000  1.0 -0.0910822153
C  C231  1  0.37660000  0.06720000  0.94240000  1.0 -0.0910822153
C  C232  1  0.62480000  0.43420000  0.55760000  1.0 -0.0910822153
C  C233  1  0.43420000  0.55760000  0.62480000  1.0 -0.0910822153
C  C234  1  0.06720000  0.94240000  0.37660000  1.0 -0.0910822153
C  C235  1  0.43280000  0.80940000  0.87520000  1.0 -0.0910822153
C  C236  1  0.06580000  0.69060000  0.12340000  1.0 -0.0910822153
C  C237  1  0.94240000  0.37660000  0.06720000  1.0 -0.0910822153
C  C238  1  0.55760000  0.62480000  0.43420000  1.0 -0.0910822153
C  C239  1  0.69060000  0.12340000  0.06580000  1.0 -0.0910822153
C  C240  1  0.80940000  0.87520000  0.43280000  1.0 -0.0910822153
C  C241  1  0.96500000  0.37170000  0.34330000  1.0 -0.0599936927
C  C242  1  0.52840000  0.62170000  0.15670000  1.0 -0.0599936927
C  C243  1  0.97160000  0.12830000  0.09330000  1.0 -0.0599936927
C  C244  1  0.53500000  0.87830000  0.40670000  1.0 -0.0599936927
C  C245  1  0.34330000  0.96500000  0.37170000  1.0 -0.0599936927
C  C246  1  0.15670000  0.52840000  0.62170000  1.0 -0.0599936927
C  C247  1  0.09330000  0.97160000  0.12830000  1.0 -0.0599936927
C  C248  1  0.40670000  0.53500000  0.87830000  1.0 -0.0599936927
C  C249  1  0.37170000  0.34330000  0.96500000  1.0 -0.0599936927
C  C250  1  0.62170000  0.15670000  0.52840000  1.0 -0.0599936927
C  C251  1  0.12830000  0.09330000  0.97160000  1.0 -0.0599936927
C  C252  1  0.87830000  0.40670000  0.53500000  1.0 -0.0599936927
C  C253  1  0.87830000  0.97160000  0.34330000  1.0 -0.0599936927
C  C254  1  0.12830000  0.53500000  0.15670000  1.0 -0.0599936927
C  C255  1  0.62170000  0.96500000  0.09330000  1.0 -0.0599936927
C  C256  1  0.37170000  0.52840000  0.40670000  1.0 -0.0599936927
C  C257  1  0.52840000  0.40670000  0.37170000  1.0 -0.0599936927
C  C258  1  0.96500000  0.09330000  0.62170000  1.0 -0.0599936927
C  C259  1  0.53500000  0.15670000  0.12830000  1.0 -0.0599936927
C  C260  1  0.97160000  0.34330000  0.87830000  1.0 -0.0599936927
C  C261  1  0.09330000  0.62170000  0.96500000  1.0 -0.0599936927
C  C262  1  0.40670000  0.37170000  0.52840000  1.0 -0.0599936927
C  C263  1  0.34330000  0.87830000  0.97160000  1.0 -0.0599936927
C  C264  1  0.15670000  0.12830000  0.53500000  1.0 -0.0599936927
C  C265  1  0.03500000  0.62830000  0.65670000  1.0 -0.0599936927
C  C266  1  0.47160000  0.37830000  0.84330000  1.0 -0.0599936927
C  C267  1  0.02840000  0.87170000  0.90670000  1.0 -0.0599936927
C  C268  1  0.46500000  0.12170000  0.59330000  1.0 -0.0599936927
C  C269  1  0.65670000  0.03500000  0.62830000  1.0 -0.0599936927
C  C270  1  0.84330000  0.47160000  0.37830000  1.0 -0.0599936927
C  C271  1  0.90670000  0.02840000  0.87170000  1.0 -0.0599936927
C  C272  1  0.59330000  0.46500000  0.12170000  1.0 -0.0599936927
C  C273  1  0.62830000  0.65670000  0.03500000  1.0 -0.0599936927
C  C274  1  0.37830000  0.84330000  0.47160000  1.0 -0.0599936927
C  C275  1  0.87170000  0.90670000  0.02840000  1.0 -0.0599936927
C  C276  1  0.12170000  0.59330000  0.46500000  1.0 -0.0599936927
C  C277  1  0.12170000  0.02840000  0.65670000  1.0 -0.0599936927
C  C278  1  0.87170000  0.46500000  0.84330000  1.0 -0.0599936927
C  C279  1  0.37830000  0.03500000  0.90670000  1.0 -0.0599936927
C  C280  1  0.62830000  0.47160000  0.59330000  1.0 -0.0599936927
C  C281  1  0.47160000  0.59330000  0.62830000  1.0 -0.0599936927
C  C282  1  0.03500000  0.90670000  0.37830000  1.0 -0.0599936927
C  C283  1  0.46500000  0.84330000  0.87170000  1.0 -0.0599936927
C  C284  1  0.02840000  0.65670000  0.12170000  1.0 -0.0599936927
C  C285  1  0.90670000  0.37830000  0.03500000  1.0 -0.0599936927
C  C286  1  0.59330000  0.62830000  0.47160000  1.0 -0.0599936927
C  C287  1  0.65670000  0.12170000  0.02840000  1.0 -0.0599936927
C  C288  1  0.84330000  0.87170000  0.46500000  1.0 -0.0599936927
C  C289  1  0.96950000  0.39210000  0.38300000  1.0 -0.0659642131
C  C290  1  0.50910000  0.58650000  0.11700000  1.0 -0.0659642131
C  C291  1  0.99090000  0.10790000  0.07740000  1.0 -0.0659642131
C  C292  1  0.53050000  0.91350000  0.42260000  1.0 -0.0659642131
C  C293  1  0.38300000  0.96950000  0.39210000  1.0 -0.0659642131
C  C294  1  0.11700000  0.50910000  0.58650000  1.0 -0.0659642131
C  C295  1  0.07740000  0.99090000  0.10790000  1.0 -0.0659642131
C  C296  1  0.42260000  0.53050000  0.91350000  1.0 -0.0659642131
C  C297  1  0.39210000  0.38300000  0.96950000  1.0 -0.0659642131
C  C298  1  0.58650000  0.11700000  0.50910000  1.0 -0.0659642131
C  C299  1  0.10790000  0.07740000  0.99090000  1.0 -0.0659642131
C  C300  1  0.91350000  0.42260000  0.53050000  1.0 -0.0659642131
C  C301  1  0.91350000  0.99090000  0.38300000  1.0 -0.0659642131
C  C302  1  0.10790000  0.53050000  0.11700000  1.0 -0.0659642131
C  C303  1  0.58650000  0.96950000  0.07740000  1.0 -0.0659642131
C  C304  1  0.39210000  0.50910000  0.42260000  1.0 -0.0659642131
C  C305  1  0.50910000  0.42260000  0.39210000  1.0 -0.0659642131
C  C306  1  0.96950000  0.07740000  0.58650000  1.0 -0.0659642131
C  C307  1  0.53050000  0.11700000  0.10790000  1.0 -0.0659642131
C  C308  1  0.99090000  0.38300000  0.91350000  1.0 -0.0659642131
C  C309  1  0.07740000  0.58650000  0.96950000  1.0 -0.0659642131
C  C310  1  0.42260000  0.39210000  0.50910000  1.0 -0.0659642131
C  C311  1  0.38300000  0.91350000  0.99090000  1.0 -0.0659642131
C  C312  1  0.11700000  0.10790000  0.53050000  1.0 -0.0659642131
C  C313  1  0.03050000  0.60790000  0.61700000  1.0 -0.0659642131
C  C314  1  0.49090000  0.41350000  0.88300000  1.0 -0.0659642131
C  C315  1  0.00910000  0.89210000  0.92260000  1.0 -0.0659642131
C  C316  1  0.46950000  0.08650000  0.57740000  1.0 -0.0659642131
C  C317  1  0.61700000  0.03050000  0.60790000  1.0 -0.0659642131
C  C318  1  0.88300000  0.49090000  0.41350000  1.0 -0.0659642131
C  C319  1  0.92260000  0.00910000  0.89210000  1.0 -0.0659642131
C  C320  1  0.57740000  0.46950000  0.08650000  1.0 -0.0659642131
C  C321  1  0.60790000  0.61700000  0.03050000  1.0 -0.0659642131
C  C322  1  0.41350000  0.88300000  0.49090000  1.0 -0.0659642131
C  C323  1  0.89210000  0.92260000  0.00910000  1.0 -0.0659642131
C  C324  1  0.08650000  0.57740000  0.46950000  1.0 -0.0659642131
C  C325  1  0.08650000  0.00910000  0.61700000  1.0 -0.0659642131
C  C326  1  0.89210000  0.46950000  0.88300000  1.0 -0.0659642131
C  C327  1  0.41350000  0.03050000  0.92260000  1.0 -0.0659642131
C  C328  1  0.60790000  0.49090000  0.57740000  1.0 -0.0659642131
C  C329  1  0.49090000  0.57740000  0.60790000  1.0 -0.0659642131
C  C330  1  0.03050000  0.92260000  0.41350000  1.0 -0.0659642131
C  C331  1  0.46950000  0.88300000  0.89210000  1.0 -0.0659642131
C  C332  1  0.00910000  0.61700000  0.08650000  1.0 -0.0659642131
C  C333  1  0.92260000  0.41350000  0.03050000  1.0 -0.0659642131
C  C334  1  0.57740000  0.60790000  0.49090000  1.0 -0.0659642131
C  C335  1  0.61700000  0.08650000  0.00910000  1.0 -0.0659642131
C  C336  1  0.88300000  0.89210000  0.46950000  1.0 -0.0659642131
C  C337  1  0.85355000  0.37330000  0.21989000  1.0 -0.1912504241
C  C338  1  0.65341000  0.63366000  0.28011000  1.0 -0.1912504241
C  C339  1  0.84659000  0.12670000  0.98025000  1.0 -0.1912504241
C  C340  1  0.64645000  0.86634000  0.51975000  1.0 -0.1912504241
C  C341  1  0.21989000  0.85355000  0.37330000  1.0 -0.1912504241
C  C342  1  0.28011000  0.65341000  0.63366000  1.0 -0.1912504241
C  C343  1  0.98025000  0.84659000  0.12670000  1.0 -0.1912504241
C  C344  1  0.51975000  0.64645000  0.86634000  1.0 -0.1912504241
C  C345  1  0.37330000  0.21989000  0.85355000  1.0 -0.1912504241
C  C346  1  0.63366000  0.28011000  0.65341000  1.0 -0.1912504241
C  C347  1  0.12670000  0.98025000  0.84659000  1.0 -0.1912504241
C  C348  1  0.86634000  0.51975000  0.64645000  1.0 -0.1912504241
C  C349  1  0.86634000  0.84659000  0.21989000  1.0 -0.1912504241
C  C350  1  0.12670000  0.64645000  0.28011000  1.0 -0.1912504241
C  C351  1  0.63366000  0.85355000  0.98025000  1.0 -0.1912504241
C  C352  1  0.37330000  0.65341000  0.51975000  1.0 -0.1912504241
C  C353  1  0.65341000  0.51975000  0.37330000  1.0 -0.1912504241
C  C354  1  0.85355000  0.98025000  0.63366000  1.0 -0.1912504241
C  C355  1  0.64645000  0.28011000  0.12670000  1.0 -0.1912504241
C  C356  1  0.84659000  0.21989000  0.86634000  1.0 -0.1912504241
C  C357  1  0.98025000  0.63366000  0.85355000  1.0 -0.1912504241
C  C358  1  0.51975000  0.37330000  0.65341000  1.0 -0.1912504241
C  C359  1  0.21989000  0.86634000  0.84659000  1.0 -0.1912504241
C  C360  1  0.28011000  0.12670000  0.64645000  1.0 -0.1912504241
C  C361  1  0.14645000  0.62670000  0.78011000  1.0 -0.1912504241
C  C362  1  0.34659000  0.36634000  0.71989000  1.0 -0.1912504241
C  C363  1  0.15341000  0.87330000  0.01975000  1.0 -0.1912504241
C  C364  1  0.35355000  0.13366000  0.48025000  1.0 -0.1912504241
C  C365  1  0.78011000  0.14645000  0.62670000  1.0 -0.1912504241
C  C366  1  0.71989000  0.34659000  0.36634000  1.0 -0.1912504241
C  C367  1  0.01975000  0.15341000  0.87330000  1.0 -0.1912504241
C  C368  1  0.48025000  0.35355000  0.13366000  1.0 -0.1912504241
C  C369  1  0.62670000  0.78011000  0.14645000  1.0 -0.1912504241
C  C370  1  0.36634000  0.71989000  0.34659000  1.0 -0.1912504241
C  C371  1  0.87330000  0.01975000  0.15341000  1.0 -0.1912504241
C  C372  1  0.13366000  0.48025000  0.35355000  1.0 -0.1912504241
C  C373  1  0.13366000  0.15341000  0.78011000  1.0 -0.1912504241
C  C374  1  0.87330000  0.35355000  0.71989000  1.0 -0.1912504241
C  C375  1  0.36634000  0.14645000  0.01975000  1.0 -0.1912504241
C  C376  1  0.62670000  0.34659000  0.48025000  1.0 -0.1912504241
C  C377  1  0.34659000  0.48025000  0.62670000  1.0 -0.1912504241
C  C378  1  0.14645000  0.01975000  0.36634000  1.0 -0.1912504241
C  C379  1  0.35355000  0.71989000  0.87330000  1.0 -0.1912504241
C  C380  1  0.15341000  0.78011000  0.13366000  1.0 -0.1912504241
C  C381  1  0.01975000  0.36634000  0.14645000  1.0 -0.1912504241
C  C382  1  0.48025000  0.62670000  0.34659000  1.0 -0.1912504241
C  C383  1  0.78011000  0.13366000  0.15341000  1.0 -0.1912504241
C  C384  1  0.71989000  0.87330000  0.35355000  1.0 -0.1912504241
C  C385  1  0.88705000  0.40720000  0.21953000  1.0 0.1191190211
C  C386  1  0.68767000  0.66752000  0.28047000  1.0 0.1191190211
C  C387  1  0.81233000  0.09280000  0.97985000  1.0 0.1191190211
C  C388  1  0.61295000  0.83248000  0.52015000  1.0 0.1191190211
C  C389  1  0.21953000  0.88705000  0.40720000  1.0 0.1191190211
C  C390  1  0.28047000  0.68767000  0.66752000  1.0 0.1191190211
C  C391  1  0.97985000  0.81233000  0.09280000  1.0 0.1191190211
C  C392  1  0.52015000  0.61295000  0.83248000  1.0 0.1191190211
C  C393  1  0.40720000  0.21953000  0.88705000  1.0 0.1191190211
C  C394  1  0.66752000  0.28047000  0.68767000  1.0 0.1191190211
C  C395  1  0.09280000  0.97985000  0.81233000  1.0 0.1191190211
C  C396  1  0.83248000  0.52015000  0.61295000  1.0 0.1191190211
C  C397  1  0.83248000  0.81233000  0.21953000  1.0 0.1191190211
C  C398  1  0.09280000  0.61295000  0.28047000  1.0 0.1191190211
C  C399  1  0.66752000  0.88705000  0.97985000  1.0 0.1191190211
C  C400  1  0.40720000  0.68767000  0.52015000  1.0 0.1191190211
C  C401  1  0.68767000  0.52015000  0.40720000  1.0 0.1191190211
C  C402  1  0.88705000  0.97985000  0.66752000  1.0 0.1191190211
C  C403  1  0.61295000  0.28047000  0.09280000  1.0 0.1191190211
C  C404  1  0.81233000  0.21953000  0.83248000  1.0 0.1191190211
C  C405  1  0.97985000  0.66752000  0.88705000  1.0 0.1191190211
C  C406  1  0.52015000  0.40720000  0.68767000  1.0 0.1191190211
C  C407  1  0.21953000  0.83248000  0.81233000  1.0 0.1191190211
C  C408  1  0.28047000  0.09280000  0.61295000  1.0 0.1191190211
C  C409  1  0.11295000  0.59280000  0.78047000  1.0 0.1191190211
C  C410  1  0.31233000  0.33248000  0.71953000  1.0 0.1191190211
C  C411  1  0.18767000  0.90720000  0.02015000  1.0 0.1191190211
C  C412  1  0.38705000  0.16752000  0.47985000  1.0 0.1191190211
C  C413  1  0.78047000  0.11295000  0.59280000  1.0 0.1191190211
C  C414  1  0.71953000  0.31233000  0.33248000  1.0 0.1191190211
C  C415  1  0.02015000  0.18767000  0.90720000  1.0 0.1191190211
C  C416  1  0.47985000  0.38705000  0.16752000  1.0 0.1191190211
C  C417  1  0.59280000  0.78047000  0.11295000  1.0 0.1191190211
C  C418  1  0.33248000  0.71953000  0.31233000  1.0 0.1191190211
C  C419  1  0.90720000  0.02015000  0.18767000  1.0 0.1191190211
C  C420  1  0.16752000  0.47985000  0.38705000  1.0 0.1191190211
C  C421  1  0.16752000  0.18767000  0.78047000  1.0 0.1191190211
C  C422  1  0.90720000  0.38705000  0.71953000  1.0 0.1191190211
C  C423  1  0.33248000  0.11295000  0.02015000  1.0 0.1191190211
C  C424  1  0.59280000  0.31233000  0.47985000  1.0 0.1191190211
C  C425  1  0.31233000  0.47985000  0.59280000  1.0 0.1191190211
C  C426  1  0.11295000  0.02015000  0.33248000  1.0 0.1191190211
C  C427  1  0.38705000  0.71953000  0.90720000  1.0 0.1191190211
C  C428  1  0.18767000  0.78047000  0.16752000  1.0 0.1191190211
C  C429  1  0.02015000  0.33248000  0.11295000  1.0 0.1191190211
C  C430  1  0.47985000  0.59280000  0.31233000  1.0 0.1191190211
C  C431  1  0.78047000  0.16752000  0.18767000  1.0 0.1191190211
C  C432  1  0.71953000  0.90720000  0.38705000  1.0 0.1191190211
C  C433  1  0.93157000  0.43574000  0.24841000  1.0 -0.162963646
C  C434  1  0.68733000  0.68316000  0.25159000  1.0 -0.162963646
C  C435  1  0.81267000  0.06426000  0.99583000  1.0 -0.162963646
C  C436  1  0.56843000  0.81684000  0.50417000  1.0 -0.162963646
C  C437  1  0.24841000  0.93157000  0.43574000  1.0 -0.162963646
C  C438  1  0.25159000  0.68733000  0.68316000  1.0 -0.162963646
C  C439  1  0.99583000  0.81267000  0.06426000  1.0 -0.162963646
C  C440  1  0.50417000  0.56843000  0.81684000  1.0 -0.162963646
C  C441  1  0.43574000  0.24841000  0.93157000  1.0 -0.162963646
C  C442  1  0.68316000  0.25159000  0.68733000  1.0 -0.162963646
C  C443  1  0.06426000  0.99583000  0.81267000  1.0 -0.162963646
C  C444  1  0.81684000  0.50417000  0.56843000  1.0 -0.162963646
C  C445  1  0.81684000  0.81267000  0.24841000  1.0 -0.162963646
C  C446  1  0.06426000  0.56843000  0.25159000  1.0 -0.162963646
C  C447  1  0.68316000  0.93157000  0.99583000  1.0 -0.162963646
C  C448  1  0.43574000  0.68733000  0.50417000  1.0 -0.162963646
C  C449  1  0.68733000  0.50417000  0.43574000  1.0 -0.162963646
C  C450  1  0.93157000  0.99583000  0.68316000  1.0 -0.162963646
C  C451  1  0.56843000  0.25159000  0.06426000  1.0 -0.162963646
C  C452  1  0.81267000  0.24841000  0.81684000  1.0 -0.162963646
C  C453  1  0.99583000  0.68316000  0.93157000  1.0 -0.162963646
C  C454  1  0.50417000  0.43574000  0.68733000  1.0 -0.162963646
C  C455  1  0.24841000  0.81684000  0.81267000  1.0 -0.162963646
C  C456  1  0.25159000  0.06426000  0.56843000  1.0 -0.162963646
C  C457  1  0.06843000  0.56426000  0.75159000  1.0 -0.162963646
C  C458  1  0.31267000  0.31684000  0.74841000  1.0 -0.162963646
C  C459  1  0.18733000  0.93574000  0.00417000  1.0 -0.162963646
C  C460  1  0.43157000  0.18316000  0.49583000  1.0 -0.162963646
C  C461  1  0.75159000  0.06843000  0.56426000  1.0 -0.162963646
C  C462  1  0.74841000  0.31267000  0.31684000  1.0 -0.162963646
C  C463  1  0.00417000  0.18733000  0.93574000  1.0 -0.162963646
C  C464  1  0.49583000  0.43157000  0.18316000  1.0 -0.162963646
C  C465  1  0.56426000  0.75159000  0.06843000  1.0 -0.162963646
C  C466  1  0.31684000  0.74841000  0.31267000  1.0 -0.162963646
C  C467  1  0.93574000  0.00417000  0.18733000  1.0 -0.162963646
C  C468  1  0.18316000  0.49583000  0.43157000  1.0 -0.162963646
C  C469  1  0.18316000  0.18733000  0.75159000  1.0 -0.162963646
C  C470  1  0.93574000  0.43157000  0.74841000  1.0 -0.162963646
C  C471  1  0.31684000  0.06843000  0.00417000  1.0 -0.162963646
C  C472  1  0.56426000  0.31267000  0.49583000  1.0 -0.162963646
C  C473  1  0.31267000  0.49583000  0.56426000  1.0 -0.162963646
C  C474  1  0.06843000  0.00417000  0.31684000  1.0 -0.162963646
C  C475  1  0.43157000  0.74841000  0.93574000  1.0 -0.162963646
C  C476  1  0.18733000  0.75159000  0.18316000  1.0 -0.162963646
C  C477  1  0.00417000  0.31684000  0.06843000  1.0 -0.162963646
C  C478  1  0.49583000  0.56426000  0.31267000  1.0 -0.162963646
C  C479  1  0.75159000  0.18316000  0.18733000  1.0 -0.162963646
C  C480  1  0.74841000  0.93574000  0.43157000  1.0 -0.162963646
C  C481  1  0.91741000  0.44294000  0.18955000  1.0 0.1474487615
C  C482  1  0.75339000  0.72786000  0.31045000  1.0 0.1474487615
C  C483  1  0.74661000  0.05706000  0.97447000  1.0 0.1474487615
C  C484  1  0.58259000  0.77214000  0.52553000  1.0 0.1474487615
C  C485  1  0.18955000  0.91741000  0.44294000  1.0 0.1474487615
C  C486  1  0.31045000  0.75339000  0.72786000  1.0 0.1474487615
C  C487  1  0.97447000  0.74661000  0.05706000  1.0 0.1474487615
C  C488  1  0.52553000  0.58259000  0.77214000  1.0 0.1474487615
C  C489  1  0.44294000  0.18955000  0.91741000  1.0 0.1474487615
C  C490  1  0.72786000  0.31045000  0.75339000  1.0 0.1474487615
C  C491  1  0.05706000  0.97447000  0.74661000  1.0 0.1474487615
C  C492  1  0.77214000  0.52553000  0.58259000  1.0 0.1474487615
C  C493  1  0.77214000  0.74661000  0.18955000  1.0 0.1474487615
C  C494  1  0.05706000  0.58259000  0.31045000  1.0 0.1474487615
C  C495  1  0.72786000  0.91741000  0.97447000  1.0 0.1474487615
C  C496  1  0.44294000  0.75339000  0.52553000  1.0 0.1474487615
C  C497  1  0.75339000  0.52553000  0.44294000  1.0 0.1474487615
C  C498  1  0.91741000  0.97447000  0.72786000  1.0 0.1474487615
C  C499  1  0.58259000  0.31045000  0.05706000  1.0 0.1474487615
C  C500  1  0.74661000  0.18955000  0.77214000  1.0 0.1474487615
C  C501  1  0.97447000  0.72786000  0.91741000  1.0 0.1474487615
C  C502  1  0.52553000  0.44294000  0.75339000  1.0 0.1474487615
C  C503  1  0.18955000  0.77214000  0.74661000  1.0 0.1474487615
C  C504  1  0.31045000  0.05706000  0.58259000  1.0 0.1474487615
C  C505  1  0.08259000  0.55706000  0.81045000  1.0 0.1474487615
C  C506  1  0.24661000  0.27214000  0.68955000  1.0 0.1474487615
C  C507  1  0.25339000  0.94294000  0.02553000  1.0 0.1474487615
C  C508  1  0.41741000  0.22786000  0.47447000  1.0 0.1474487615
C  C509  1  0.81045000  0.08259000  0.55706000  1.0 0.1474487615
C  C510  1  0.68955000  0.24661000  0.27214000  1.0 0.1474487615
C  C511  1  0.02553000  0.25339000  0.94294000  1.0 0.1474487615
C  C512  1  0.47447000  0.41741000  0.22786000  1.0 0.1474487615
C  C513  1  0.55706000  0.81045000  0.08259000  1.0 0.1474487615
C  C514  1  0.27214000  0.68955000  0.24661000  1.0 0.1474487615
C  C515  1  0.94294000  0.02553000  0.25339000  1.0 0.1474487615
C  C516  1  0.22786000  0.47447000  0.41741000  1.0 0.1474487615
C  C517  1  0.22786000  0.25339000  0.81045000  1.0 0.1474487615
C  C518  1  0.94294000  0.41741000  0.68955000  1.0 0.1474487615
C  C519  1  0.27214000  0.08259000  0.02553000  1.0 0.1474487615
C  C520  1  0.55706000  0.24661000  0.47447000  1.0 0.1474487615
C  C521  1  0.24661000  0.47447000  0.55706000  1.0 0.1474487615
C  C522  1  0.08259000  0.02553000  0.27214000  1.0 0.1474487615
C  C523  1  0.41741000  0.68955000  0.94294000  1.0 0.1474487615
C  C524  1  0.25339000  0.81045000  0.22786000  1.0 0.1474487615
C  C525  1  0.02553000  0.27214000  0.08259000  1.0 0.1474487615
C  C526  1  0.47447000  0.55706000  0.24661000  1.0 0.1474487615
C  C527  1  0.81045000  0.22786000  0.25339000  1.0 0.1474487615
C  C528  1  0.68955000  0.94294000  0.41741000  1.0 0.1474487615
C  C529  1  0.83794000  0.38410000  0.13864000  1.0 -0.2468995123
C  C530  1  0.74546000  0.69930000  0.36136000  1.0 -0.2468995123
C  C531  1  0.75454000  0.11590000  0.95384000  1.0 -0.2468995123
C  C532  1  0.66206000  0.80070000  0.54616000  1.0 -0.2468995123
C  C533  1  0.13864000  0.83794000  0.38410000  1.0 -0.2468995123
C  C534  1  0.36136000  0.74546000  0.69930000  1.0 -0.2468995123
C  C535  1  0.95384000  0.75454000  0.11590000  1.0 -0.2468995123
C  C536  1  0.54616000  0.66206000  0.80070000  1.0 -0.2468995123
C  C537  1  0.38410000  0.13864000  0.83794000  1.0 -0.2468995123
C  C538  1  0.69930000  0.36136000  0.74546000  1.0 -0.2468995123
C  C539  1  0.11590000  0.95384000  0.75454000  1.0 -0.2468995123
C  C540  1  0.80070000  0.54616000  0.66206000  1.0 -0.2468995123
C  C541  1  0.80070000  0.75454000  0.13864000  1.0 -0.2468995123
C  C542  1  0.11590000  0.66206000  0.36136000  1.0 -0.2468995123
C  C543  1  0.69930000  0.83794000  0.95384000  1.0 -0.2468995123
C  C544  1  0.38410000  0.74546000  0.54616000  1.0 -0.2468995123
C  C545  1  0.74546000  0.54616000  0.38410000  1.0 -0.2468995123
C  C546  1  0.83794000  0.95384000  0.69930000  1.0 -0.2468995123
C  C547  1  0.66206000  0.36136000  0.11590000  1.0 -0.2468995123
C  C548  1  0.75454000  0.13864000  0.80070000  1.0 -0.2468995123
C  C549  1  0.95384000  0.69930000  0.83794000  1.0 -0.2468995123
C  C550  1  0.54616000  0.38410000  0.74546000  1.0 -0.2468995123
C  C551  1  0.13864000  0.80070000  0.75454000  1.0 -0.2468995123
C  C552  1  0.36136000  0.11590000  0.66206000  1.0 -0.2468995123
C  C553  1  0.16206000  0.61590000  0.86136000  1.0 -0.2468995123
C  C554  1  0.25454000  0.30070000  0.63864000  1.0 -0.2468995123
C  C555  1  0.24546000  0.88410000  0.04616000  1.0 -0.2468995123
C  C556  1  0.33794000  0.19930000  0.45384000  1.0 -0.2468995123
C  C557  1  0.86136000  0.16206000  0.61590000  1.0 -0.2468995123
C  C558  1  0.63864000  0.25454000  0.30070000  1.0 -0.2468995123
C  C559  1  0.04616000  0.24546000  0.88410000  1.0 -0.2468995123
C  C560  1  0.45384000  0.33794000  0.19930000  1.0 -0.2468995123
C  C561  1  0.61590000  0.86136000  0.16206000  1.0 -0.2468995123
C  C562  1  0.30070000  0.63864000  0.25454000  1.0 -0.2468995123
C  C563  1  0.88410000  0.04616000  0.24546000  1.0 -0.2468995123
C  C564  1  0.19930000  0.45384000  0.33794000  1.0 -0.2468995123
C  C565  1  0.19930000  0.24546000  0.86136000  1.0 -0.2468995123
C  C566  1  0.88410000  0.33794000  0.63864000  1.0 -0.2468995123
C  C567  1  0.30070000  0.16206000  0.04616000  1.0 -0.2447051205
C  C568  1  0.61590000  0.25454000  0.45384000  1.0 -0.2468995123
C  C569  1  0.25454000  0.45384000  0.61590000  1.0 -0.2468995123
C  C570  1  0.16206000  0.04616000  0.30070000  1.0 -0.2468995123
C  C571  1  0.33794000  0.63864000  0.88410000  1.0 -0.2468995123
C  C572  1  0.24546000  0.86136000  0.19930000  1.0 -0.2468995123
C  C573  1  0.04616000  0.30070000  0.16206000  1.0 -0.2468995123
C  C574  1  0.45384000  0.61590000  0.25454000  1.0 -0.2468995123
C  C575  1  0.86136000  0.19930000  0.24546000  1.0 -0.2468995123
C  C576  1  0.63864000  0.88410000  0.33794000  1.0 -0.2468995123
C  C577  1  0.84175000  0.34788000  0.10821000  1.0 0.079106117
C  C578  1  0.73967000  0.73354000  0.39179000  1.0 0.079106117
C  C579  1  0.76033000  0.15212000  0.99387000  1.0 0.079106117
C  C580  1  0.65825000  0.76646000  0.50613000  1.0 0.079106117
C  C581  1  0.10821000  0.84175000  0.34788000  1.0 0.079106117
C  C582  1  0.39179000  0.73967000  0.73354000  1.0 0.079106117
C  C583  1  0.99387000  0.76033000  0.15212000  1.0 0.079106117
C  C584  1  0.50613000  0.65825000  0.76646000  1.0 0.079106117
C  C585  1  0.34788000  0.10821000  0.84175000  1.0 0.079106117
C  C586  1  0.73354000  0.39179000  0.73967000  1.0 0.079106117
C  C587  1  0.15212000  0.99387000  0.76033000  1.0 0.079106117
C  C588  1  0.76646000  0.50613000  0.65825000  1.0 0.079106117
C  C589  1  0.76646000  0.76033000  0.10821000  1.0 0.079106117
C  C590  1  0.15212000  0.65825000  0.39179000  1.0 0.079106117
C  C591  1  0.73354000  0.84175000  0.99387000  1.0 0.079106117
C  C592  1  0.34788000  0.73967000  0.50613000  1.0 0.079106117
C  C593  1  0.73967000  0.50613000  0.34788000  1.0 0.079106117
C  C594  1  0.84175000  0.99387000  0.73354000  1.0 0.079106117
C  C595  1  0.65825000  0.39179000  0.15212000  1.0 0.079106117
C  C596  1  0.76033000  0.10821000  0.76646000  1.0 0.079106117
C  C597  1  0.99387000  0.73354000  0.84175000  1.0 0.079106117
C  C598  1  0.50613000  0.34788000  0.73967000  1.0 0.079106117
C  C599  1  0.10821000  0.76646000  0.76033000  1.0 0.079106117
C  C600  1  0.39179000  0.15212000  0.65825000  1.0 0.079106117
C  C601  1  0.15825000  0.65212000  0.89179000  1.0 0.079106117
C  C602  1  0.26033000  0.26646000  0.60821000  1.0 0.079106117
C  C603  1  0.23967000  0.84788000  0.00613000  1.0 0.079106117
C  C604  1  0.34175000  0.23354000  0.49387000  1.0 0.079106117
C  C605  1  0.89179000  0.15825000  0.65212000  1.0 0.079106117
C  C606  1  0.60821000  0.26033000  0.26646000  1.0 0.079106117
C  C607  1  0.00613000  0.23967000  0.84788000  1.0 0.079106117
C  C608  1  0.49387000  0.34175000  0.23354000  1.0 0.079106117
C  C609  1  0.65212000  0.89179000  0.15825000  1.0 0.079106117
C  C610  1  0.26646000  0.60821000  0.26033000  1.0 0.079106117
C  C611  1  0.84788000  0.00613000  0.23967000  1.0 0.079106117
C  C612  1  0.23354000  0.49387000  0.34175000  1.0 0.079106117
C  C613  1  0.23354000  0.23967000  0.89179000  1.0 0.079106117
C  C614  1  0.84788000  0.34175000  0.60821000  1.0 0.079106117
C  C615  1  0.26646000  0.15825000  0.00613000  1.0 0.079106117
C  C616  1  0.65212000  0.26033000  0.49387000  1.0 0.079106117
C  C617  1  0.26033000  0.49387000  0.65212000  1.0 0.079106117
C  C618  1  0.15825000  0.00613000  0.26646000  1.0 0.079106117
C  C619  1  0.34175000  0.60821000  0.84788000  1.0 0.079106117
C  C620  1  0.23967000  0.89179000  0.23354000  1.0 0.079106117
C  C621  1  0.00613000  0.26646000  0.15825000  1.0 0.079106117
C  C622  1  0.49387000  0.65212000  0.26033000  1.0 0.079106117
C  C623  1  0.89179000  0.23354000  0.23967000  1.0 0.079106117
C  C624  1  0.60821000  0.84788000  0.34175000  1.0 0.079106117
C  C625  1  0.87198000  0.33485000  0.12461000  1.0 -0.1292827729
C  C626  1  0.71024000  0.74737000  0.37539000  1.0 -0.1292827729
C  C627  1  0.78976000  0.16515000  0.03713000  1.0 -0.1292827729
C  C628  1  0.62802000  0.75263000  0.46287000  1.0 -0.1292827729
C  C629  1  0.12461000  0.87198000  0.33485000  1.0 -0.1292827729
C  C630  1  0.37539000  0.71024000  0.74737000  1.0 -0.1292827729
C  C631  1  0.03713000  0.78976000  0.16515000  1.0 -0.1292827729
C  C632  1  0.46287000  0.62802000  0.75263000  1.0 -0.1292827729
C  C633  1  0.33485000  0.12461000  0.87198000  1.0 -0.1292827729
C  C634  1  0.74737000  0.37539000  0.71024000  1.0 -0.1292827729
C  C635  1  0.16515000  0.03713000  0.78976000  1.0 -0.1292827729
C  C636  1  0.75263000  0.46287000  0.62802000  1.0 -0.1292827729
C  C637  1  0.75263000  0.78976000  0.12461000  1.0 -0.1292827729
C  C638  1  0.16515000  0.62802000  0.37539000  1.0 -0.1292827729
C  C639  1  0.74737000  0.87198000  0.03713000  1.0 -0.1292827729
C  C640  1  0.33485000  0.71024000  0.46287000  1.0 -0.1292827729
C  C641  1  0.71024000  0.46287000  0.33485000  1.0 -0.1292827729
C  C642  1  0.87198000  0.03713000  0.74737000  1.0 -0.1292827729
C  C643  1  0.62802000  0.37539000  0.16515000  1.0 -0.1292827729
C  C644  1  0.78976000  0.12461000  0.75263000  1.0 -0.1292827729
C  C645  1  0.03713000  0.74737000  0.87198000  1.0 -0.1292827729
C  C646  1  0.46287000  0.33485000  0.71024000  1.0 -0.1292827729
C  C647  1  0.12461000  0.75263000  0.78976000  1.0 -0.1292827729
C  C648  1  0.37539000  0.16515000  0.62802000  1.0 -0.1292827729
C  C649  1  0.12802000  0.66515000  0.87539000  1.0 -0.1292827729
C  C650  1  0.28976000  0.25263000  0.62461000  1.0 -0.1292827729
C  C651  1  0.21024000  0.83485000  0.96287000  1.0 -0.1292827729
C  C652  1  0.37198000  0.24737000  0.53713000  1.0 -0.1292827729
C  C653  1  0.87539000  0.12802000  0.66515000  1.0 -0.1292827729
C  C654  1  0.62461000  0.28976000  0.25263000  1.0 -0.1292827729
C  C655  1  0.96287000  0.21024000  0.83485000  1.0 -0.1292827729
C  C656  1  0.53713000  0.37198000  0.24737000  1.0 -0.1292827729
C  C657  1  0.66515000  0.87539000  0.12802000  1.0 -0.1292827729
C  C658  1  0.25263000  0.62461000  0.28976000  1.0 -0.1292827729
C  C659  1  0.83485000  0.96287000  0.21024000  1.0 -0.1292827729
C  C660  1  0.24737000  0.53713000  0.37198000  1.0 -0.1292827729
C  C661  1  0.24737000  0.21024000  0.87539000  1.0 -0.1292827729
C  C662  1  0.83485000  0.37198000  0.62461000  1.0 -0.1292827729
C  C663  1  0.25263000  0.12802000  0.96287000  1.0 -0.1292827729
C  C664  1  0.66515000  0.28976000  0.53713000  1.0 -0.1292827729
C  C665  1  0.28976000  0.53713000  0.66515000  1.0 -0.1292827729
C  C666  1  0.12802000  0.96287000  0.25263000  1.0 -0.1292827729
C  C667  1  0.37198000  0.62461000  0.83485000  1.0 -0.1292827729
C  C668  1  0.21024000  0.87539000  0.24737000  1.0 -0.1292827729
C  C669  1  0.96287000  0.25263000  0.12802000  1.0 -0.1292827729
C  C670  1  0.53713000  0.66515000  0.28976000  1.0 -0.1292827729
C  C671  1  0.87539000  0.24737000  0.21024000  1.0 -0.1292827729
C  C672  1  0.62461000  0.83485000  0.37198000  1.0 -0.1292827729
C  C673  1  0.87600000  0.30309000  0.09631000  1.0 -0.114761407
C  C674  1  0.70678000  0.77969000  0.40369000  1.0 -0.1151455515
C  C675  1  0.79322000  0.19691000  0.07291000  1.0 -0.1151455515
C  C676  1  0.62400000  0.72031000  0.42709000  1.0 -0.1151455515
C  C677  1  0.09631000  0.87600000  0.30309000  1.0 -0.1151455515
C  C678  1  0.40369000  0.70678000  0.77969000  1.0 -0.1151455515
C  C679  1  0.07291000  0.79322000  0.19691000  1.0 -0.1151455515
C  C680  1  0.42709000  0.62400000  0.72031000  1.0 -0.1151455515
C  C681  1  0.30309000  0.09631000  0.87600000  1.0 -0.1151455515
C  C682  1  0.77969000  0.40369000  0.70678000  1.0 -0.1151455515
C  C683  1  0.19691000  0.07291000  0.79322000  1.0 -0.1151455515
C  C684  1  0.72031000  0.42709000  0.62400000  1.0 -0.1151455515
C  C685  1  0.72031000  0.79322000  0.09631000  1.0 -0.114761407
C  C686  1  0.19691000  0.62400000  0.40369000  1.0 -0.1151455515
C  C687  1  0.77969000  0.87600000  0.07291000  1.0 -0.114761407
C  C688  1  0.30309000  0.70678000  0.42709000  1.0 -0.1151455515
C  C689  1  0.70678000  0.42709000  0.30309000  1.0 -0.1151455515
C  C690  1  0.87600000  0.07291000  0.77969000  1.0 -0.1151455515
C  C691  1  0.62400000  0.40369000  0.19691000  1.0 -0.1151455515
C  C692  1  0.79322000  0.09631000  0.72031000  1.0 -0.114761407
C  C693  1  0.07291000  0.77969000  0.87600000  1.0 -0.1151455515
C  C694  1  0.42709000  0.30309000  0.70678000  1.0 -0.1151455515
C  C695  1  0.09631000  0.72031000  0.79322000  1.0 -0.1151455515
C  C696  1  0.40369000  0.19691000  0.62400000  1.0 -0.1151455515
C  C697  1  0.12400000  0.69691000  0.90369000  1.0 -0.1151455515
C  C698  1  0.29322000  0.22031000  0.59631000  1.0 -0.1151455515
C  C699  1  0.20678000  0.80309000  0.92709000  1.0 -0.1151455515
C  C700  1  0.37600000  0.27969000  0.57291000  1.0 -0.1151455515
C  C701  1  0.90369000  0.12400000  0.69691000  1.0 -0.1151455515
C  C702  1  0.59631000  0.29322000  0.22031000  1.0 -0.1151455515
C  C703  1  0.92709000  0.20678000  0.80309000  1.0 -0.1151455515
C  C704  1  0.57291000  0.37600000  0.27969000  1.0 -0.1151455515
C  C705  1  0.69691000  0.90369000  0.12400000  1.0 -0.114761407
C  C706  1  0.22031000  0.59631000  0.29322000  1.0 -0.1151455515
C  C707  1  0.80309000  0.92709000  0.20678000  1.0 -0.1151455515
C  C708  1  0.27969000  0.57291000  0.37600000  1.0 -0.1151455515
C  C709  1  0.27969000  0.20678000  0.90369000  1.0 -0.1151455515
C  C710  1  0.80309000  0.37600000  0.59631000  1.0 -0.1151455515
C  C711  1  0.22031000  0.12400000  0.92709000  1.0 -0.1151455515
C  C712  1  0.69691000  0.29322000  0.57291000  1.0 -0.1151455515
C  C713  1  0.29322000  0.57291000  0.69691000  1.0 -0.1151455515
C  C714  1  0.12400000  0.92709000  0.22031000  1.0 -0.1151455515
C  C715  1  0.37600000  0.59631000  0.80309000  1.0 -0.1151455515
C  C716  1  0.20678000  0.90369000  0.27969000  1.0 -0.114761407
C  C717  1  0.92709000  0.22031000  0.12400000  1.0 -0.1151455515
C  C718  1  0.57291000  0.69691000  0.29322000  1.0 -0.1151455515
C  C719  1  0.90369000  0.27969000  0.20678000  1.0 -0.1151455515
C  C720  1  0.59631000  0.80309000  0.37600000  1.0 -0.1151455515
C  C721  1  0.84989000  0.28333000  0.05088000  1.0 -0.0659642131
C  C722  1  0.73245000  0.79901000  0.44912000  1.0 -0.0659642131
C  C723  1  0.76755000  0.21667000  0.06656000  1.0 -0.0659642131
C  C724  1  0.65011000  0.70099000  0.43344000  1.0 -0.0659642131
C  C725  1  0.05088000  0.84989000  0.28333000  1.0 -0.0659642131
C  C726  1  0.44912000  0.73245000  0.79901000  1.0 -0.0659642131
C  C727  1  0.06656000  0.76755000  0.21667000  1.0 -0.0659642131
C  C728  1  0.43344000  0.65011000  0.70099000  1.0 -0.0659642131
C  C729  1  0.28333000  0.05088000  0.84989000  1.0 -0.0599936927
C  C730  1  0.79901000  0.44912000  0.73245000  1.0 -0.0659642131
C  C731  1  0.21667000  0.06656000  0.76755000  1.0 -0.0599936927
C  C732  1  0.70099000  0.43344000  0.65011000  1.0 -0.0659642131
C  C733  1  0.70099000  0.76755000  0.05088000  1.0 -0.0659642131
C  C734  1  0.21667000  0.65011000  0.44912000  1.0 -0.0659642131
C  C735  1  0.79901000  0.84989000  0.06656000  1.0 -0.0659642131
C  C736  1  0.28333000  0.73245000  0.43344000  1.0 -0.0659642131
C  C737  1  0.73245000  0.43344000  0.28333000  1.0 -0.0659642131
C  C738  1  0.84989000  0.06656000  0.79901000  1.0 -0.0599936927
C  C739  1  0.65011000  0.44912000  0.21667000  1.0 -0.0659642131
C  C740  1  0.76755000  0.05088000  0.70099000  1.0 -0.0659642131
C  C741  1  0.06656000  0.79901000  0.84989000  1.0 -0.0659642131
C  C742  1  0.43344000  0.28333000  0.73245000  1.0 -0.0599936927
C  C743  1  0.05088000  0.70099000  0.76755000  1.0 -0.0599936927
C  C744  1  0.44912000  0.21667000  0.65011000  1.0 -0.0599936927
C  C745  1  0.15011000  0.71667000  0.94912000  1.0 -0.0599936927
C  C746  1  0.26755000  0.20099000  0.55088000  1.0 -0.0599936927
C  C747  1  0.23245000  0.78333000  0.93344000  1.0 -0.0659642131
C  C748  1  0.34989000  0.29901000  0.56656000  1.0 -0.0659642131
C  C749  1  0.94912000  0.15011000  0.71667000  1.0 -0.0659642131
C  C750  1  0.55088000  0.26755000  0.20099000  1.0 -0.0659642131
C  C751  1  0.93344000  0.23245000  0.78333000  1.0 -0.0599936927
C  C752  1  0.56656000  0.34989000  0.29901000  1.0 -0.0659642131
C  C753  1  0.71667000  0.94912000  0.15011000  1.0 -0.0659642131
C  C754  1  0.20099000  0.55088000  0.26755000  1.0 -0.0659642131
C  C755  1  0.78333000  0.93344000  0.23245000  1.0 -0.0659642131
C  C756  1  0.29901000  0.56656000  0.34989000  1.0 -0.0659642131
C  C757  1  0.29901000  0.23245000  0.94912000  1.0 -0.0599936927
C  C758  1  0.78333000  0.34989000  0.55088000  1.0 -0.0659642131
C  C759  1  0.20099000  0.15011000  0.93344000  1.0 -0.0599936927
C  C760  1  0.71667000  0.26755000  0.56656000  1.0 -0.0659642131
C  C761  1  0.26755000  0.56656000  0.71667000  1.0 -0.0659642131
C  C762  1  0.15011000  0.93344000  0.20099000  1.0 -0.0659642131
C  C763  1  0.34989000  0.55088000  0.78333000  1.0 -0.0659642131
C  C764  1  0.23245000  0.94912000  0.29901000  1.0 -0.0659642131
C  C765  1  0.93344000  0.20099000  0.15011000  1.0 -0.0659642131
C  C766  1  0.56656000  0.71667000  0.26755000  1.0 -0.0659642131
C  C767  1  0.94912000  0.29901000  0.23245000  1.0 -0.0659642131
C  C768  1  0.55088000  0.78333000  0.34989000  1.0 -0.0659642131
C  C769  1  0.81887000  0.29524000  0.03435000  1.0 -0.1031873059
C  C770  1  0.76089000  0.78452000  0.46565000  1.0 -0.1031873059
C  C771  1  0.73911000  0.20476000  0.02363000  1.0 -0.1031873059
C  C772  1  0.68113000  0.71548000  0.47637000  1.0 -0.1031873059
C  C773  1  0.03435000  0.81887000  0.29524000  1.0 -0.1031873059
C  C774  1  0.46565000  0.76089000  0.78452000  1.0 -0.1031873059
C  C775  1  0.02363000  0.73911000  0.20476000  1.0 -0.1031873059
C  C776  1  0.47637000  0.68113000  0.71548000  1.0 -0.1031873059
C  C777  1  0.29524000  0.03435000  0.81887000  1.0 -0.1031873059
C  C778  1  0.78452000  0.46565000  0.76089000  1.0 -0.1031873059
C  C779  1  0.20476000  0.02363000  0.73911000  1.0 -0.1031873059
C  C780  1  0.71548000  0.47637000  0.68113000  1.0 -0.1031873059
C  C781  1  0.71548000  0.73911000  0.03435000  1.0 -0.1031873059
C  C782  1  0.20476000  0.68113000  0.46565000  1.0 -0.1031873059
C  C783  1  0.78452000  0.81887000  0.02363000  1.0 -0.1031873059
C  C784  1  0.29524000  0.76089000  0.47637000  1.0 -0.1031873059
C  C785  1  0.76089000  0.47637000  0.29524000  1.0 -0.1031873059
C  C786  1  0.81887000  0.02363000  0.78452000  1.0 -0.1031873059
C  C787  1  0.68113000  0.46565000  0.20476000  1.0 -0.1031873059
C  C788  1  0.73911000  0.03435000  0.71548000  1.0 -0.1031873059
C  C789  1  0.02363000  0.78452000  0.81887000  1.0 -0.1031873059
C  C790  1  0.47637000  0.29524000  0.76089000  1.0 -0.1031873059
C  C791  1  0.03435000  0.71548000  0.73911000  1.0 -0.1031873059
C  C792  1  0.46565000  0.20476000  0.68113000  1.0 -0.1031873059
C  C793  1  0.18113000  0.70476000  0.96565000  1.0 -0.1031873059
C  C794  1  0.23911000  0.21548000  0.53435000  1.0 -0.1031873059
C  C795  1  0.26089000  0.79524000  0.97637000  1.0 -0.1031873059
C  C796  1  0.31887000  0.28452000  0.52363000  1.0 -0.1031873059
C  C797  1  0.96565000  0.18113000  0.70476000  1.0 -0.1031873059
C  C798  1  0.53435000  0.23911000  0.21548000  1.0 -0.1031873059
C  C799  1  0.97637000  0.26089000  0.79524000  1.0 -0.1031873059
C  C800  1  0.52363000  0.31887000  0.28452000  1.0 -0.1031873059
C  C801  1  0.70476000  0.96565000  0.18113000  1.0 -0.1031873059
C  C802  1  0.21548000  0.53435000  0.23911000  1.0 -0.1031873059
C  C803  1  0.79524000  0.97637000  0.26089000  1.0 -0.1031873059
C  C804  1  0.28452000  0.52363000  0.31887000  1.0 -0.1031873059
C  C805  1  0.28452000  0.26089000  0.96565000  1.0 -0.1031873059
C  C806  1  0.79524000  0.31887000  0.53435000  1.0 -0.1031873059
C  C807  1  0.21548000  0.18113000  0.97637000  1.0 -0.1031873059
C  C808  1  0.70476000  0.23911000  0.52363000  1.0 -0.1031873059
C  C809  1  0.23911000  0.52363000  0.70476000  1.0 -0.1031873059
C  C810  1  0.18113000  0.97637000  0.21548000  1.0 -0.1031873059
C  C811  1  0.31887000  0.53435000  0.79524000  1.0 -0.1031873059
C  C812  1  0.26089000  0.96565000  0.28452000  1.0 -0.1031873059
C  C813  1  0.97637000  0.21548000  0.18113000  1.0 -0.1031873059
C  C814  1  0.52363000  0.70476000  0.23911000  1.0 -0.1031873059
C  C815  1  0.96565000  0.28452000  0.26089000  1.0 -0.1031873059
C  C816  1  0.53435000  0.79524000  0.31887000  1.0 -0.1031873059
C  C817  1  0.81533000  0.32736000  0.06261000  1.0 -0.1292827729
C  C818  1  0.76475000  0.75272000  0.43739000  1.0 -0.1292827729
C  C819  1  0.73525000  0.17264000  0.98797000  1.0 -0.1292827729
C  C820  1  0.68467000  0.74728000  0.51203000  1.0 -0.1292827729
C  C821  1  0.06261000  0.81533000  0.32736000  1.0 -0.1292827729
C  C822  1  0.43739000  0.76475000  0.75272000  1.0 -0.1292827729
C  C823  1  0.98797000  0.73525000  0.17264000  1.0 -0.1292827729
C  C824  1  0.51203000  0.68467000  0.74728000  1.0 -0.1292827729
C  C825  1  0.32736000  0.06261000  0.81533000  1.0 -0.1292827729
C  C826  1  0.75272000  0.43739000  0.76475000  1.0 -0.1292827729
C  C827  1  0.17264000  0.98797000  0.73525000  1.0 -0.1292827729
C  C828  1  0.74728000  0.51203000  0.68467000  1.0 -0.1292827729
C  C829  1  0.74728000  0.73525000  0.06261000  1.0 -0.1292827729
C  C830  1  0.17264000  0.68467000  0.43739000  1.0 -0.1292827729
C  C831  1  0.75272000  0.81533000  0.98797000  1.0 -0.1292827729
C  C832  1  0.32736000  0.76475000  0.51203000  1.0 -0.1292827729
C  C833  1  0.76475000  0.51203000  0.32736000  1.0 -0.1292827729
C  C834  1  0.81533000  0.98797000  0.75272000  1.0 -0.1292827729
C  C835  1  0.68467000  0.43739000  0.17264000  1.0 -0.1292827729
C  C836  1  0.73525000  0.06261000  0.74728000  1.0 -0.1292827729
C  C837  1  0.98797000  0.75272000  0.81533000  1.0 -0.1292827729
C  C838  1  0.51203000  0.32736000  0.76475000  1.0 -0.1292827729
C  C839  1  0.06261000  0.74728000  0.73525000  1.0 -0.1292827729
C  C840  1  0.43739000  0.17264000  0.68467000  1.0 -0.1292827729
C  C841  1  0.18467000  0.67264000  0.93739000  1.0 -0.1292827729
C  C842  1  0.23525000  0.24728000  0.56261000  1.0 -0.1292827729
C  C843  1  0.26475000  0.82736000  0.01203000  1.0 -0.1292827729
C  C844  1  0.31533000  0.25272000  0.48797000  1.0 -0.1292827729
C  C845  1  0.93739000  0.18467000  0.67264000  1.0 -0.1292827729
C  C846  1  0.56261000  0.23525000  0.24728000  1.0 -0.1292827729
C  C847  1  0.01203000  0.26475000  0.82736000  1.0 -0.1292827729
C  C848  1  0.48797000  0.31533000  0.25272000  1.0 -0.1292827729
C  C849  1  0.67264000  0.93739000  0.18467000  1.0 -0.1292827729
C  C850  1  0.24728000  0.56261000  0.23525000  1.0 -0.1292827729
C  C851  1  0.82736000  0.01203000  0.26475000  1.0 -0.1292827729
C  C852  1  0.25272000  0.48797000  0.31533000  1.0 -0.1292827729
C  C853  1  0.25272000  0.26475000  0.93739000  1.0 -0.1292827729
C  C854  1  0.82736000  0.31533000  0.56261000  1.0 -0.1292827729
C  C855  1  0.24728000  0.18467000  0.01203000  1.0 -0.1292827729
C  C856  1  0.67264000  0.23525000  0.48797000  1.0 -0.1292827729
C  C857  1  0.23525000  0.48797000  0.67264000  1.0 -0.1292827729
C  C858  1  0.18467000  0.01203000  0.24728000  1.0 -0.1292827729
C  C859  1  0.31533000  0.56261000  0.82736000  1.0 -0.1292827729
C  C860  1  0.26475000  0.93739000  0.25272000  1.0 -0.1292827729
C  C861  1  0.01203000  0.24728000  0.18467000  1.0 -0.1292827729
C  C862  1  0.48797000  0.67264000  0.23525000  1.0 -0.1292827729
C  C863  1  0.93739000  0.25272000  0.26475000  1.0 -0.1292827729
C  C864  1  0.56261000  0.82736000  0.31533000  1.0 -0.1292827729
C  C865  1  0.85581000  0.25091000  0.02040000  1.0 0.5455113254
C  C866  1  0.73051000  0.83541000  0.47960000  1.0 0.5455113254
C  C867  1  0.76949000  0.24909000  0.10490000  1.0 0.5455113254
C  C868  1  0.64419000  0.66459000  0.39510000  1.0 0.5455113254
C  C869  1  0.02040000  0.85581000  0.25091000  1.0 0.5455113254
C  C870  1  0.47960000  0.73051000  0.83541000  1.0 0.5455113254
C  C871  1  0.10490000  0.76949000  0.24909000  1.0 0.5455113254
C  C872  1  0.39510000  0.64419000  0.66459000  1.0 0.5455113254
C  C873  1  0.25091000  0.02040000  0.85581000  1.0 0.5455113254
C  C874  1  0.83541000  0.47960000  0.73051000  1.0 0.5455113254
C  C875  1  0.24909000  0.10490000  0.76949000  1.0 0.5455113254
C  C876  1  0.66459000  0.39510000  0.64419000  1.0 0.5455113254
C  C877  1  0.66459000  0.76949000  0.02040000  1.0 0.5455113254
C  C878  1  0.24909000  0.64419000  0.47960000  1.0 0.5455113254
C  C879  1  0.83541000  0.85581000  0.10490000  1.0 0.5455113254
C  C880  1  0.25091000  0.73051000  0.39510000  1.0 0.5455113254
C  C881  1  0.73051000  0.39510000  0.25091000  1.0 0.5455113254
C  C882  1  0.85581000  0.10490000  0.83541000  1.0 0.5455113254
C  C883  1  0.64419000  0.47960000  0.24909000  1.0 0.5455113254
C  C884  1  0.76949000  0.02040000  0.66459000  1.0 0.5455113254
C  C885  1  0.10490000  0.83541000  0.85581000  1.0 0.5455113254
C  C886  1  0.39510000  0.25091000  0.73051000  1.0 0.5455113254
C  C887  1  0.02040000  0.66459000  0.76949000  1.0 0.5455113254
C  C888  1  0.47960000  0.24909000  0.64419000  1.0 0.5455113254
C  C889  1  0.14419000  0.74909000  0.97960000  1.0 0.5455113254
C  C890  1  0.26949000  0.16459000  0.52040000  1.0 0.5455113254
C  C891  1  0.23051000  0.75091000  0.89510000  1.0 0.5455113254
C  C892  1  0.35581000  0.33541000  0.60490000  1.0 0.5455113254
C  C893  1  0.97960000  0.14419000  0.74909000  1.0 0.5455113254
C  C894  1  0.52040000  0.26949000  0.16459000  1.0 0.5455113254
C  C895  1  0.89510000  0.23051000  0.75091000  1.0 0.5455113254
C  C896  1  0.60490000  0.35581000  0.33541000  1.0 0.5455113254
C  C897  1  0.74909000  0.97960000  0.14419000  1.0 0.5455113254
C  C898  1  0.16459000  0.52040000  0.26949000  1.0 0.5455113254
C  C899  1  0.75091000  0.89510000  0.23051000  1.0 0.5455113254
C  C900  1  0.33541000  0.60490000  0.35581000  1.0 0.5455113254
C  C901  1  0.33541000  0.23051000  0.97960000  1.0 0.5455113254
C  C902  1  0.75091000  0.35581000  0.52040000  1.0 0.5455113254
C  C903  1  0.16459000  0.14419000  0.89510000  1.0 0.5455113254
C  C904  1  0.74909000  0.26949000  0.60490000  1.0 0.5455113254
C  C905  1  0.26949000  0.60490000  0.74909000  1.0 0.5455113254
C  C906  1  0.14419000  0.89510000  0.16459000  1.0 0.5455113254
C  C907  1  0.35581000  0.52040000  0.75091000  1.0 0.5455113254
C  C908  1  0.23051000  0.97960000  0.33541000  1.0 0.5455113254
C  C909  1  0.89510000  0.16459000  0.14419000  1.0 0.5455113254
C  C910  1  0.60490000  0.74909000  0.26949000  1.0 0.5455113254
C  C911  1  0.97960000  0.33541000  0.23051000  1.0 0.5455113254
C  C912  1  0.52040000  0.75091000  0.35581000  1.0 0.5455113254
C  C913  1  0.92260000  0.45866000  0.15830000  1.0 -0.2447051205
C  C914  1  0.80036000  0.76430000  0.34170000  1.0 -0.2468995123
C  C915  1  0.69964000  0.04134000  0.96394000  1.0 -0.2468995123
C  C916  1  0.57740000  0.73570000  0.53606000  1.0 -0.2468995123
C  C917  1  0.15830000  0.92260000  0.45866000  1.0 -0.2468995123
C  C918  1  0.34170000  0.80036000  0.76430000  1.0 -0.2468995123
C  C919  1  0.96394000  0.69964000  0.04134000  1.0 -0.2447051205
C  C920  1  0.53606000  0.57740000  0.73570000  1.0 -0.2468995123
C  C921  1  0.45866000  0.15830000  0.92260000  1.0 -0.2468995123
C  C922  1  0.76430000  0.34170000  0.80036000  1.0 -0.2447051205
C  C923  1  0.04134000  0.96394000  0.69964000  1.0 -0.2468995123
C  C924  1  0.73570000  0.53606000  0.57740000  1.0 -0.2447051205
C  C925  1  0.73570000  0.69964000  0.15830000  1.0 -0.2447051205
C  C926  1  0.04134000  0.57740000  0.34170000  1.0 -0.2468995123
C  C927  1  0.76430000  0.92260000  0.96394000  1.0 -0.2468995123
C  C928  1  0.45866000  0.80036000  0.53606000  1.0 -0.2468995123
C  C929  1  0.80036000  0.53606000  0.45866000  1.0 -0.2447051205
C  C930  1  0.92260000  0.96394000  0.76430000  1.0 -0.2468995123
C  C931  1  0.57740000  0.34170000  0.04134000  1.0 -0.2447051205
C  C932  1  0.69964000  0.15830000  0.73570000  1.0 -0.2447051205
C  C933  1  0.96394000  0.76430000  0.92260000  1.0 -0.2468995123
C  C934  1  0.53606000  0.45866000  0.80036000  1.0 -0.2468995123
C  C935  1  0.15830000  0.73570000  0.69964000  1.0 -0.2468995123
C  C936  1  0.34170000  0.04134000  0.57740000  1.0 -0.2468995123
C  C937  1  0.07740000  0.54134000  0.84170000  1.0 -0.2468995123
C  C938  1  0.19964000  0.23570000  0.65830000  1.0 -0.2468995123
C  C939  1  0.30036000  0.95866000  0.03606000  1.0 -0.2447051205
C  C940  1  0.42260000  0.26430000  0.46394000  1.0 -0.2447051205
C  C941  1  0.84170000  0.07740000  0.54134000  1.0 -0.2447051205
C  C942  1  0.65830000  0.19964000  0.23570000  1.0 -0.2447051205
C  C943  1  0.03606000  0.30036000  0.95866000  1.0 -0.2468995123
C  C944  1  0.46394000  0.42260000  0.26430000  1.0 -0.2447051205
C  C945  1  0.54134000  0.84170000  0.07740000  1.0 -0.2447051205
C  C946  1  0.23570000  0.65830000  0.19964000  1.0 -0.2468995123
C  C947  1  0.95866000  0.03606000  0.30036000  1.0 -0.2447051205
C  C948  1  0.26430000  0.46394000  0.42260000  1.0 -0.2468995123
C  C949  1  0.26430000  0.30036000  0.84170000  1.0 -0.2468995123
C  C950  1  0.95866000  0.42260000  0.65830000  1.0 -0.2447051205
C  C951  1  0.23570000  0.07740000  0.03606000  1.0 -0.2447051205
C  C952  1  0.54134000  0.19964000  0.46394000  1.0 -0.2447051205
C  C953  1  0.19964000  0.46394000  0.54134000  1.0 -0.2468995123
C  C954  1  0.07740000  0.03606000  0.23570000  1.0 -0.2447051205
C  C955  1  0.42260000  0.65830000  0.95866000  1.0 -0.2468995123
C  C956  1  0.30036000  0.84170000  0.26430000  1.0 -0.2468995123
C  C957  1  0.03606000  0.23570000  0.07740000  1.0 -0.2447051205
C  C958  1  0.46394000  0.54134000  0.19964000  1.0 -0.2447051205
C  C959  1  0.84170000  0.26430000  0.30036000  1.0 -0.2447051205
C  C960  1  0.65830000  0.95866000  0.42260000  1.0 -0.2447051205
C  C961  1  0.90900000  0.49470000  0.16170000  1.0 -0.1031873059
C  C962  1  0.83300000  0.74730000  0.33830000  1.0 -0.1031873059
C  C963  1  0.66700000  0.00530000  0.91430000  1.0 -0.1031873059
C  C964  1  0.59100000  0.75270000  0.58570000  1.0 -0.1031873059
C  C965  1  0.16170000  0.90900000  0.49470000  1.0 -0.1031873059
C  C966  1  0.33830000  0.83300000  0.74730000  1.0 -0.1031873059
C  C967  1  0.91430000  0.66700000  0.00530000  1.0 -0.1031873059
C  C968  1  0.58570000  0.59100000  0.75270000  1.0 -0.1031873059
C  C969  1  0.49470000  0.16170000  0.90900000  1.0 -0.1031873059
C  C970  1  0.74730000  0.33830000  0.83300000  1.0 -0.1031873059
C  C971  1  0.00530000  0.91430000  0.66700000  1.0 -0.1031873059
C  C972  1  0.75270000  0.58570000  0.59100000  1.0 -0.1031873059
C  C973  1  0.75270000  0.66700000  0.16170000  1.0 -0.1031873059
C  C974  1  0.00530000  0.59100000  0.33830000  1.0 -0.1031873059
C  C975  1  0.74730000  0.90900000  0.91430000  1.0 -0.1031873059
C  C976  1  0.49470000  0.83300000  0.58570000  1.0 -0.1031873059
C  C977  1  0.83300000  0.58570000  0.49470000  1.0 -0.1031873059
C  C978  1  0.90900000  0.91430000  0.74730000  1.0 -0.1031873059
C  C979  1  0.59100000  0.33830000  0.00530000  1.0 -0.1031873059
C  C980  1  0.66700000  0.16170000  0.75270000  1.0 -0.1031873059
C  C981  1  0.91430000  0.74730000  0.90900000  1.0 -0.1031873059
C  C982  1  0.58570000  0.49470000  0.83300000  1.0 -0.1031873059
C  C983  1  0.16170000  0.75270000  0.66700000  1.0 -0.1031873059
C  C984  1  0.33830000  0.00530000  0.59100000  1.0 -0.1031873059
C  C985  1  0.09100000  0.50530000  0.83830000  1.0 -0.1031873059
C  C986  1  0.16700000  0.25270000  0.66170000  1.0 -0.1031873059
C  C987  1  0.33300000  0.99470000  0.08570000  1.0 -0.1031873059
C  C988  1  0.40900000  0.24730000  0.41430000  1.0 -0.1031873059
C  C989  1  0.83830000  0.09100000  0.50530000  1.0 -0.1031873059
C  C990  1  0.66170000  0.16700000  0.25270000  1.0 -0.1031873059
C  C991  1  0.08570000  0.33300000  0.99470000  1.0 -0.1031873059
C  C992  1  0.41430000  0.40900000  0.24730000  1.0 -0.1031873059
C  C993  1  0.50530000  0.83830000  0.09100000  1.0 -0.1031873059
C  C994  1  0.25270000  0.66170000  0.16700000  1.0 -0.1031873059
C  C995  1  0.99470000  0.08570000  0.33300000  1.0 -0.1031873059
C  C996  1  0.24730000  0.41430000  0.40900000  1.0 -0.1031873059
C  C997  1  0.24730000  0.33300000  0.83830000  1.0 -0.1031873059
C  C998  1  0.99470000  0.40900000  0.66170000  1.0 -0.1031873059
C  C999  1  0.25270000  0.09100000  0.08570000  1.0 -0.1031873059
C  C1000  1  0.50530000  0.16700000  0.41430000  1.0 -0.1031873059
C  C1001  1  0.16700000  0.41430000  0.50530000  1.0 -0.1031873059
C  C1002  1  0.09100000  0.08570000  0.25270000  1.0 -0.1031873059
C  C1003  1  0.40900000  0.66170000  0.99470000  1.0 -0.1031873059
C  C1004  1  0.33300000  0.83830000  0.24730000  1.0 -0.1031873059
C  C1005  1  0.08570000  0.25270000  0.09100000  1.0 -0.1031873059
C  C1006  1  0.41430000  0.50530000  0.16700000  1.0 -0.1031873059
C  C1007  1  0.83830000  0.24730000  0.33300000  1.0 -0.1031873059
C  C1008  1  0.66170000  0.99470000  0.40900000  1.0 -0.1031873059
C  C1009  1  0.91630000  0.51040000  0.12930000  1.0 -0.0599936927
C  C1010  1  0.88110000  0.78700000  0.37070000  1.0 -0.0599936927
C  C1011  1  0.61890000  0.98960000  0.90590000  1.0 -0.0659642131
C  C1012  1  0.58370000  0.71300000  0.59410000  1.0 -0.0599936927
C  C1013  1  0.12930000  0.91630000  0.51040000  1.0 -0.0659642131
C  C1014  1  0.37070000  0.88110000  0.78700000  1.0 -0.0659642131
C  C1015  1  0.90590000  0.61890000  0.98960000  1.0 -0.0599936927
C  C1016  1  0.59410000  0.58370000  0.71300000  1.0 -0.0599936927
C  C1017  1  0.51040000  0.12930000  0.91630000  1.0 -0.0599936927
C  C1018  1  0.78700000  0.37070000  0.88110000  1.0 -0.0599936927
C  C1019  1  0.98960000  0.90590000  0.61890000  1.0 -0.0599936927
C  C1020  1  0.71300000  0.59410000  0.58370000  1.0 -0.0599936927
C  C1021  1  0.71300000  0.61890000  0.12930000  1.0 -0.0599936927
C  C1022  1  0.98960000  0.58370000  0.37070000  1.0 -0.0599936927
C  C1023  1  0.78700000  0.91630000  0.90590000  1.0 -0.0599936927
C  C1024  1  0.51040000  0.88110000  0.59410000  1.0 -0.0659642131
C  C1025  1  0.88110000  0.59410000  0.51040000  1.0 -0.0599936927
C  C1026  1  0.91630000  0.90590000  0.78700000  1.0 -0.0599936927
C  C1027  1  0.58370000  0.37070000  0.98960000  1.0 -0.0659642131
C  C1028  1  0.61890000  0.12930000  0.71300000  1.0 -0.0599936927
C  C1029  1  0.90590000  0.78700000  0.91630000  1.0 -0.0599936927
C  C1030  1  0.59410000  0.51040000  0.88110000  1.0 -0.0659642131
C  C1031  1  0.12930000  0.71300000  0.61890000  1.0 -0.0659642131
C  C1032  1  0.37070000  0.98960000  0.58370000  1.0 -0.0659642131
C  C1033  1  0.08370000  0.48960000  0.87070000  1.0 -0.0659642131
C  C1034  1  0.11890000  0.21300000  0.62930000  1.0 -0.0659642131
C  C1035  1  0.38110000  0.01040000  0.09410000  1.0 -0.0599936927
C  C1036  1  0.41630000  0.28700000  0.40590000  1.0 -0.0599936927
C  C1037  1  0.87070000  0.08370000  0.48960000  1.0 -0.0599936927
C  C1038  1  0.62930000  0.11890000  0.21300000  1.0 -0.0599936927
C  C1039  1  0.09410000  0.38110000  0.01040000  1.0 -0.0659642131
C  C1040  1  0.40590000  0.41630000  0.28700000  1.0 -0.0599936927
C  C1041  1  0.48960000  0.87070000  0.08370000  1.0 -0.0599936927
C  C1042  1  0.21300000  0.62930000  0.11890000  1.0 -0.0659642131
C  C1043  1  0.01040000  0.09410000  0.38110000  1.0 -0.0659642131
C  C1044  1  0.28700000  0.40590000  0.41630000  1.0 -0.0659642131
C  C1045  1  0.28700000  0.38110000  0.87070000  1.0 -0.0659642131
C  C1046  1  0.01040000  0.41630000  0.62930000  1.0 -0.0659642131
C  C1047  1  0.21300000  0.08370000  0.09410000  1.0 -0.0599936927
C  C1048  1  0.48960000  0.11890000  0.40590000  1.0 -0.0599936927
C  C1049  1  0.11890000  0.40590000  0.48960000  1.0 -0.0659642131
C  C1050  1  0.08370000  0.09410000  0.21300000  1.0 -0.0659642131
C  C1051  1  0.41630000  0.62930000  0.01040000  1.0 -0.0599936927
C  C1052  1  0.38110000  0.87070000  0.28700000  1.0 -0.0659642131
C  C1053  1  0.09410000  0.21300000  0.08370000  1.0 -0.0659642131
C  C1054  1  0.40590000  0.48960000  0.11890000  1.0 -0.0599936927
C  C1055  1  0.87070000  0.28700000  0.38110000  1.0 -0.0599936927
C  C1056  1  0.62930000  0.01040000  0.41630000  1.0 -0.0599936927
C  C1057  1  0.96580000  0.53910000  0.14610000  1.0 -0.1292827729
C  C1058  1  0.89300000  0.81970000  0.35390000  1.0 -0.1292827729
C  C1059  1  0.60700000  0.96090000  0.92670000  1.0 -0.1292827729
C  C1060  1  0.53420000  0.68030000  0.57330000  1.0 -0.1292827729
C  C1061  1  0.14610000  0.96580000  0.53910000  1.0 -0.1292827729
C  C1062  1  0.35390000  0.89300000  0.81970000  1.0 -0.1292827729
C  C1063  1  0.92670000  0.60700000  0.96090000  1.0 -0.1292827729
C  C1064  1  0.57330000  0.53420000  0.68030000  1.0 -0.1292827729
C  C1065  1  0.53910000  0.14610000  0.96580000  1.0 -0.1292827729
C  C1066  1  0.81970000  0.35390000  0.89300000  1.0 -0.1292827729
C  C1067  1  0.96090000  0.92670000  0.60700000  1.0 -0.1292827729
C  C1068  1  0.68030000  0.57330000  0.53420000  1.0 -0.1292827729
C  C1069  1  0.68030000  0.60700000  0.14610000  1.0 -0.1292827729
C  C1070  1  0.96090000  0.53420000  0.35390000  1.0 -0.1292827729
C  C1071  1  0.81970000  0.96580000  0.92670000  1.0 -0.1292827729
C  C1072  1  0.53910000  0.89300000  0.57330000  1.0 -0.1292827729
C  C1073  1  0.89300000  0.57330000  0.53910000  1.0 -0.1292827729
C  C1074  1  0.96580000  0.92670000  0.81970000  1.0 -0.1292827729
C  C1075  1  0.53420000  0.35390000  0.96090000  1.0 -0.1292827729
C  C1076  1  0.60700000  0.14610000  0.68030000  1.0 -0.1292827729
C  C1077  1  0.92670000  0.81970000  0.96580000  1.0 -0.1292827729
C  C1078  1  0.57330000  0.53910000  0.89300000  1.0 -0.1292827729
C  C1079  1  0.14610000  0.68030000  0.60700000  1.0 -0.1292827729
C  C1080  1  0.35390000  0.96090000  0.53420000  1.0 -0.1292827729
C  C1081  1  0.03420000  0.46090000  0.85390000  1.0 -0.1292827729
C  C1082  1  0.10700000  0.18030000  0.64610000  1.0 -0.1292827729
C  C1083  1  0.39300000  0.03910000  0.07330000  1.0 -0.1292827729
C  C1084  1  0.46580000  0.31970000  0.42670000  1.0 -0.1292827729
C  C1085  1  0.85390000  0.03420000  0.46090000  1.0 -0.1292827729
C  C1086  1  0.64610000  0.10700000  0.18030000  1.0 -0.1292827729
C  C1087  1  0.07330000  0.39300000  0.03910000  1.0 -0.1292827729
C  C1088  1  0.42670000  0.46580000  0.31970000  1.0 -0.1292827729
C  C1089  1  0.46090000  0.85390000  0.03420000  1.0 -0.1292827729
C  C1090  1  0.18030000  0.64610000  0.10700000  1.0 -0.1292827729
C  C1091  1  0.03910000  0.07330000  0.39300000  1.0 -0.1292827729
C  C1092  1  0.31970000  0.42670000  0.46580000  1.0 -0.1292827729
C  C1093  1  0.31970000  0.39300000  0.85390000  1.0 -0.1292827729
C  C1094  1  0.03910000  0.46580000  0.64610000  1.0 -0.1292827729
C  C1095  1  0.18030000  0.03420000  0.07330000  1.0 -0.1292827729
C  C1096  1  0.46090000  0.10700000  0.42670000  1.0 -0.1292827729
C  C1097  1  0.10700000  0.42670000  0.46090000  1.0 -0.1292827729
C  C1098  1  0.03420000  0.07330000  0.18030000  1.0 -0.1292827729
C  C1099  1  0.46580000  0.64610000  0.03910000  1.0 -0.1292827729
C  C1100  1  0.39300000  0.85390000  0.31970000  1.0 -0.1292827729
C  C1101  1  0.07330000  0.18030000  0.03420000  1.0 -0.1292827729
C  C1102  1  0.42670000  0.46090000  0.10700000  1.0 -0.1292827729
C  C1103  1  0.85390000  0.31970000  0.39300000  1.0 -0.1292827729
C  C1104  1  0.64610000  0.03910000  0.46580000  1.0 -0.1292827729
C  C1105  1  0.91190000  0.39990000  0.33280000  1.0 -0.0087657671
C  C1106  1  0.56710000  0.57910000  0.16720000  1.0 -0.0087657671
C  C1107  1  0.93290000  0.10010000  0.01200000  1.0 -0.0087657671
C  C1108  1  0.58810000  0.92090000  0.48800000  1.0 -0.0087657671
C  C1109  1  0.33280000  0.91190000  0.39990000  1.0 -0.0087657671
C  C1110  1  0.16720000  0.56710000  0.57910000  1.0 -0.0087657671
C  C1111  1  0.01200000  0.93290000  0.10010000  1.0 -0.0087657671
C  C1112  1  0.48800000  0.58810000  0.92090000  1.0 -0.0087657671
C  C1113  1  0.39990000  0.33280000  0.91190000  1.0 -0.0087657671
C  C1114  1  0.57910000  0.16720000  0.56710000  1.0 -0.0087657671
C  C1115  1  0.10010000  0.01200000  0.93290000  1.0 -0.0087657671
C  C1116  1  0.92090000  0.48800000  0.58810000  1.0 -0.0087657671
C  C1117  1  0.92090000  0.93290000  0.33280000  1.0 -0.0087657671
C  C1118  1  0.10010000  0.58810000  0.16720000  1.0 -0.0087657671
C  C1119  1  0.57910000  0.91190000  0.01200000  1.0 -0.0087657671
C  C1120  1  0.39990000  0.56710000  0.48800000  1.0 -0.0087657671
C  C1121  1  0.56710000  0.48800000  0.39990000  1.0 -0.0087657671
C  C1122  1  0.91190000  0.01200000  0.57910000  1.0 -0.0087657671
C  C1123  1  0.58810000  0.16720000  0.10010000  1.0 -0.0087657671
C  C1124  1  0.93290000  0.33280000  0.92090000  1.0 -0.0087657671
C  C1125  1  0.01200000  0.57910000  0.91190000  1.0 -0.0087657671
C  C1126  1  0.48800000  0.39990000  0.56710000  1.0 -0.0087657671
C  C1127  1  0.33280000  0.92090000  0.93290000  1.0 -0.0087657671
C  C1128  1  0.16720000  0.10010000  0.58810000  1.0 -0.0087657671
C  C1129  1  0.08810000  0.60010000  0.66720000  1.0 -0.0087657671
C  C1130  1  0.43290000  0.42090000  0.83280000  1.0 -0.0087657671
C  C1131  1  0.06710000  0.89990000  0.98800000  1.0 -0.0087657671
C  C1132  1  0.41190000  0.07910000  0.51200000  1.0 -0.0087657671
C  C1133  1  0.66720000  0.08810000  0.60010000  1.0 -0.0087657671
C  C1134  1  0.83280000  0.43290000  0.42090000  1.0 -0.0087657671
C  C1135  1  0.98800000  0.06710000  0.89990000  1.0 -0.0087657671
C  C1136  1  0.51200000  0.41190000  0.07910000  1.0 -0.0087657671
C  C1137  1  0.60010000  0.66720000  0.08810000  1.0 -0.0087657671
C  C1138  1  0.42090000  0.83280000  0.43290000  1.0 -0.0087657671
C  C1139  1  0.89990000  0.98800000  0.06710000  1.0 -0.0087657671
C  C1140  1  0.07910000  0.51200000  0.41190000  1.0 -0.0087657671
C  C1141  1  0.07910000  0.06710000  0.66720000  1.0 -0.0087657671
C  C1142  1  0.89990000  0.41190000  0.83280000  1.0 -0.0087657671
C  C1143  1  0.42090000  0.08810000  0.98800000  1.0 -0.0087657671
C  C1144  1  0.60010000  0.43290000  0.51200000  1.0 -0.0087657671
C  C1145  1  0.43290000  0.51200000  0.60010000  1.0 -0.0087657671
C  C1146  1  0.08810000  0.98800000  0.42090000  1.0 -0.0087657671
C  C1147  1  0.41190000  0.83280000  0.89990000  1.0 -0.0087657671
C  C1148  1  0.06710000  0.66720000  0.07910000  1.0 -0.0087657671
C  C1149  1  0.98800000  0.42090000  0.08810000  1.0 -0.0087657671
C  C1150  1  0.51200000  0.60010000  0.43290000  1.0 -0.0087657671
C  C1151  1  0.66720000  0.07910000  0.06710000  1.0 -0.0087657671
C  C1152  1  0.83280000  0.89990000  0.41190000  1.0 -0.0087657671
C  C1153  1  0.92320000  0.40870000  0.37430000  1.0 -0.1031873059
C  C1154  1  0.53440000  0.54890000  0.12570000  1.0 -0.1031873059
C  C1155  1  0.96560000  0.09130000  0.01450000  1.0 -0.1031873059
C  C1156  1  0.57680000  0.95110000  0.48550000  1.0 -0.1031873059
C  C1157  1  0.37430000  0.92320000  0.40870000  1.0 -0.1031873059
C  C1158  1  0.12570000  0.53440000  0.54890000  1.0 -0.1031873059
C  C1159  1  0.01450000  0.96560000  0.09130000  1.0 -0.1031873059
C  C1160  1  0.48550000  0.57680000  0.95110000  1.0 -0.1031873059
C  C1161  1  0.40870000  0.37430000  0.92320000  1.0 -0.1031873059
C  C1162  1  0.54890000  0.12570000  0.53440000  1.0 -0.1031873059
C  C1163  1  0.09130000  0.01450000  0.96560000  1.0 -0.1031873059
C  C1164  1  0.95110000  0.48550000  0.57680000  1.0 -0.1031873059
C  C1165  1  0.95110000  0.96560000  0.37430000  1.0 -0.1031873059
C  C1166  1  0.09130000  0.57680000  0.12570000  1.0 -0.1031873059
C  C1167  1  0.54890000  0.92320000  0.01450000  1.0 -0.1031873059
C  C1168  1  0.40870000  0.53440000  0.48550000  1.0 -0.1031873059
C  C1169  1  0.53440000  0.48550000  0.40870000  1.0 -0.1031873059
C  C1170  1  0.92320000  0.01450000  0.54890000  1.0 -0.1031873059
C  C1171  1  0.57680000  0.12570000  0.09130000  1.0 -0.1031873059
C  C1172  1  0.96560000  0.37430000  0.95110000  1.0 -0.1031873059
C  C1173  1  0.01450000  0.54890000  0.92320000  1.0 -0.1031873059
C  C1174  1  0.48550000  0.40870000  0.53440000  1.0 -0.1031873059
C  C1175  1  0.37430000  0.95110000  0.96560000  1.0 -0.1031873059
C  C1176  1  0.12570000  0.09130000  0.57680000  1.0 -0.1031873059
C  C1177  1  0.07680000  0.59130000  0.62570000  1.0 -0.1031873059
C  C1178  1  0.46560000  0.45110000  0.87430000  1.0 -0.1031873059
C  C1179  1  0.03440000  0.90870000  0.98550000  1.0 -0.1031873059
C  C1180  1  0.42320000  0.04890000  0.51450000  1.0 -0.1031873059
C  C1181  1  0.62570000  0.07680000  0.59130000  1.0 -0.1031873059
C  C1182  1  0.87430000  0.46560000  0.45110000  1.0 -0.1031873059
C  C1183  1  0.98550000  0.03440000  0.90870000  1.0 -0.1031873059
C  C1184  1  0.51450000  0.42320000  0.04890000  1.0 -0.1031873059
C  C1185  1  0.59130000  0.62570000  0.07680000  1.0 -0.1031873059
C  C1186  1  0.45110000  0.87430000  0.46560000  1.0 -0.1031873059
C  C1187  1  0.90870000  0.98550000  0.03440000  1.0 -0.1031873059
C  C1188  1  0.04890000  0.51450000  0.42320000  1.0 -0.1031873059
C  C1189  1  0.04890000  0.03440000  0.62570000  1.0 -0.1031873059
C  C1190  1  0.90870000  0.42320000  0.87430000  1.0 -0.1031873059
C  C1191  1  0.45110000  0.07680000  0.98550000  1.0 -0.1031873059
C  C1192  1  0.59130000  0.46560000  0.51450000  1.0 -0.1031873059
C  C1193  1  0.46560000  0.51450000  0.59130000  1.0 -0.1031873059
C  C1194  1  0.07680000  0.98550000  0.45110000  1.0 -0.1031873059
C  C1195  1  0.42320000  0.87430000  0.90870000  1.0 -0.1031873059
C  C1196  1  0.03440000  0.62570000  0.04890000  1.0 -0.1031873059
C  C1197  1  0.98550000  0.45110000  0.07680000  1.0 -0.1031873059
C  C1198  1  0.51450000  0.59130000  0.46560000  1.0 -0.1031873059
C  C1199  1  0.62570000  0.04890000  0.03440000  1.0 -0.1031873059
C  C1200  1  0.87430000  0.90870000  0.42320000  1.0 -0.1031873059
C  C1201  1  0.95430000  0.39310000  0.39080000  1.0 -0.0910822153
C  C1202  1  0.50230000  0.56350000  0.10920000  1.0 -0.0910822153
C  C1203  1  0.99770000  0.10690000  0.06120000  1.0 -0.0910822153
C  C1204  1  0.54570000  0.93650000  0.43880000  1.0 -0.0910822153
C  C1205  1  0.39080000  0.95430000  0.39310000  1.0 -0.0910822153
C  C1206  1  0.10920000  0.50230000  0.56350000  1.0 -0.0910822153
C  C1207  1  0.06120000  0.99770000  0.10690000  1.0 -0.0910822153
C  C1208  1  0.43880000  0.54570000  0.93650000  1.0 -0.0910822153
C  C1209  1  0.39310000  0.39080000  0.95430000  1.0 -0.0910822153
C  C1210  1  0.56350000  0.10920000  0.50230000  1.0 -0.0910822153
C  C1211  1  0.10690000  0.06120000  0.99770000  1.0 -0.0910822153
C  C1212  1  0.93650000  0.43880000  0.54570000  1.0 -0.0910822153
C  C1213  1  0.93650000  0.99770000  0.39080000  1.0 -0.0910822153
C  C1214  1  0.10690000  0.54570000  0.10920000  1.0 -0.0910822153
C  C1215  1  0.56350000  0.95430000  0.06120000  1.0 -0.0910822153
C  C1216  1  0.39310000  0.50230000  0.43880000  1.0 -0.0910822153
C  C1217  1  0.50230000  0.43880000  0.39310000  1.0 -0.0910822153
C  C1218  1  0.95430000  0.06120000  0.56350000  1.0 -0.0910822153
C  C1219  1  0.54570000  0.10920000  0.10690000  1.0 -0.0910822153
C  C1220  1  0.99770000  0.39080000  0.93650000  1.0 -0.0910822153
C  C1221  1  0.06120000  0.56350000  0.95430000  1.0 -0.0910822153
C  C1222  1  0.43880000  0.39310000  0.50230000  1.0 -0.0910822153
C  C1223  1  0.39080000  0.93650000  0.99770000  1.0 -0.0910822153
C  C1224  1  0.10920000  0.10690000  0.54570000  1.0 -0.0910822153
C  C1225  1  0.04570000  0.60690000  0.60920000  1.0 -0.0910822153
C  C1226  1  0.49770000  0.43650000  0.89080000  1.0 -0.0910822153
C  C1227  1  0.00230000  0.89310000  0.93880000  1.0 -0.0910822153
C  C1228  1  0.45430000  0.06350000  0.56120000  1.0 -0.0910822153
C  C1229  1  0.60920000  0.04570000  0.60690000  1.0 -0.0910822153
C  C1230  1  0.89080000  0.49770000  0.43650000  1.0 -0.0910822153
C  C1231  1  0.93880000  0.00230000  0.89310000  1.0 -0.0910822153
C  C1232  1  0.56120000  0.45430000  0.06350000  1.0 -0.0910822153
C  C1233  1  0.60690000  0.60920000  0.04570000  1.0 -0.0910822153
C  C1234  1  0.43650000  0.89080000  0.49770000  1.0 -0.0910822153
C  C1235  1  0.89310000  0.93880000  0.00230000  1.0 -0.0910822153
C  C1236  1  0.06350000  0.56120000  0.45430000  1.0 -0.0910822153
C  C1237  1  0.06350000  0.00230000  0.60920000  1.0 -0.0910822153
C  C1238  1  0.89310000  0.45430000  0.89080000  1.0 -0.0910822153
C  C1239  1  0.43650000  0.04570000  0.93880000  1.0 -0.0910822153
C  C1240  1  0.60690000  0.49770000  0.56120000  1.0 -0.0910822153
C  C1241  1  0.49770000  0.56120000  0.60690000  1.0 -0.0910822153
C  C1242  1  0.04570000  0.93880000  0.43650000  1.0 -0.0910822153
C  C1243  1  0.45430000  0.89080000  0.89310000  1.0 -0.0910822153
C  C1244  1  0.00230000  0.60920000  0.06350000  1.0 -0.0910822153
C  C1245  1  0.93880000  0.43650000  0.04570000  1.0 -0.0910822153
C  C1246  1  0.56120000  0.60690000  0.49770000  1.0 -0.0910822153
C  C1247  1  0.60920000  0.06350000  0.00230000  1.0 -0.0910822153
C  C1248  1  0.89080000  0.89310000  0.45430000  1.0 -0.0910822153
C  C1249  1  0.96430000  0.37420000  0.36070000  1.0 -0.0393411619
C  C1250  1  0.51350000  0.60360000  0.13930000  1.0 -0.0393411619
C  C1251  1  0.98650000  0.12580000  0.09010000  1.0 -0.0393411619
C  C1252  1  0.53570000  0.89640000  0.40990000  1.0 -0.0393411619
C  C1253  1  0.36070000  0.96430000  0.37420000  1.0 -0.0393411619
C  C1254  1  0.13930000  0.51350000  0.60360000  1.0 -0.0393411619
C  C1255  1  0.09010000  0.98650000  0.12580000  1.0 -0.0393411619
C  C1256  1  0.40990000  0.53570000  0.89640000  1.0 -0.0393411619
C  C1257  1  0.37420000  0.36070000  0.96430000  1.0 -0.0393411619
C  C1258  1  0.60360000  0.13930000  0.51350000  1.0 -0.0393411619
C  C1259  1  0.12580000  0.09010000  0.98650000  1.0 -0.0393411619
C  C1260  1  0.89640000  0.40990000  0.53570000  1.0 -0.0393411619
C  C1261  1  0.89640000  0.98650000  0.36070000  1.0 -0.0393411619
C  C1262  1  0.12580000  0.53570000  0.13930000  1.0 -0.0393411619
C  C1263  1  0.60360000  0.96430000  0.09010000  1.0 -0.0393411619
C  C1264  1  0.37420000  0.51350000  0.40990000  1.0 -0.0393411619
C  C1265  1  0.51350000  0.40990000  0.37420000  1.0 -0.0393411619
C  C1266  1  0.96430000  0.09010000  0.60360000  1.0 -0.0393411619
C  C1267  1  0.53570000  0.13930000  0.12580000  1.0 -0.0393411619
C  C1268  1  0.98650000  0.36070000  0.89640000  1.0 -0.0393411619
C  C1269  1  0.09010000  0.60360000  0.96430000  1.0 -0.0393411619
C  C1270  1  0.40990000  0.37420000  0.51350000  1.0 -0.0393411619
C  C1271  1  0.36070000  0.89640000  0.98650000  1.0 -0.0393411619
C  C1272  1  0.13930000  0.12580000  0.53570000  1.0 -0.0393411619
C  C1273  1  0.03570000  0.62580000  0.63930000  1.0 -0.0393411619
C  C1274  1  0.48650000  0.39640000  0.86070000  1.0 -0.0393411619
C  C1275  1  0.01350000  0.87420000  0.90990000  1.0 -0.0393411619
C  C1276  1  0.46430000  0.10360000  0.59010000  1.0 -0.0393411619
C  C1277  1  0.63930000  0.03570000  0.62580000  1.0 -0.0393411619
C  C1278  1  0.86070000  0.48650000  0.39640000  1.0 -0.0393411619
C  C1279  1  0.90990000  0.01350000  0.87420000  1.0 -0.0393411619
C  C1280  1  0.59010000  0.46430000  0.10360000  1.0 -0.0393411619
C  C1281  1  0.62580000  0.63930000  0.03570000  1.0 -0.0393411619
C  C1282  1  0.39640000  0.86070000  0.48650000  1.0 -0.0393411619
C  C1283  1  0.87420000  0.90990000  0.01350000  1.0 -0.0393411619
C  C1284  1  0.10360000  0.59010000  0.46430000  1.0 -0.0393411619
C  C1285  1  0.10360000  0.01350000  0.63930000  1.0 -0.0393411619
C  C1286  1  0.87420000  0.46430000  0.86070000  1.0 -0.0393411619
C  C1287  1  0.39640000  0.03570000  0.90990000  1.0 -0.0393411619
C  C1288  1  0.62580000  0.48650000  0.59010000  1.0 -0.0393411619
C  C1289  1  0.48650000  0.59010000  0.62580000  1.0 -0.0393411619
C  C1290  1  0.03570000  0.90990000  0.39640000  1.0 -0.0393411619
C  C1291  1  0.46430000  0.86070000  0.87420000  1.0 -0.0393411619
C  C1292  1  0.01350000  0.63930000  0.10360000  1.0 -0.0393411619
C  C1293  1  0.90990000  0.39640000  0.03570000  1.0 -0.0393411619
C  C1294  1  0.59010000  0.62580000  0.48650000  1.0 -0.0393411619
C  C1295  1  0.63930000  0.10360000  0.01350000  1.0 -0.0393411619
C  C1296  1  0.86070000  0.87420000  0.46430000  1.0 -0.0393411619
C  C1297  1  0.93610000  0.50800000  0.17470000  1.0 -0.0599936927
C  C1298  1  0.83330000  0.76140000  0.32530000  1.0 -0.0599936927
C  C1299  1  0.66666667  0.99200000  0.92810000  1.0 -0.0659642131
C  C1300  1  0.56390000  0.73860000  0.57190000  1.0 -0.0659642131
C  C1301  1  0.17470000  0.93610000  0.50800000  1.0 -0.0659642131
C  C1302  1  0.32530000  0.83330000  0.76140000  1.0 -0.0659642131
C  C1303  1  0.92810000  0.66666667  0.99200000  1.0 -0.0659642131
C  C1304  1  0.57190000  0.56390000  0.73860000  1.0 -0.0659642131
C  C1305  1  0.50800000  0.17470000  0.93610000  1.0 -0.0659642131
C  C1306  1  0.76140000  0.32530000  0.83330000  1.0 -0.0659642131
C  C1307  1  0.99200000  0.92810000  0.66666667  1.0 -0.0659642131
C  C1308  1  0.73860000  0.57190000  0.56390000  1.0 -0.0659642131
C  C1309  1  0.73860000  0.66666667  0.17470000  1.0 -0.0599936927
C  C1310  1  0.99200000  0.56390000  0.32530000  1.0 -0.0599936927
C  C1311  1  0.76140000  0.93610000  0.92810000  1.0 -0.0659642131
C  C1312  1  0.50800000  0.83330000  0.57190000  1.0 -0.0659642131
C  C1313  1  0.83330000  0.57190000  0.50800000  1.0 -0.0599936927
C  C1314  1  0.93610000  0.92810000  0.76140000  1.0 -0.0659642131
C  C1315  1  0.56390000  0.32530000  0.99200000  1.0 -0.0659642131
C  C1316  1  0.66666667  0.17470000  0.73860000  1.0 -0.0599936927
C  C1317  1  0.92810000  0.76140000  0.93610000  1.0 -0.0659642131
C  C1318  1  0.57190000  0.50800000  0.83330000  1.0 -0.0659642131
C  C1319  1  0.17470000  0.73860000  0.66666667  1.0 -0.0659642131
C  C1320  1  0.32530000  0.99200000  0.56390000  1.0 -0.0659642131
C  C1321  1  0.06390000  0.49200000  0.82530000  1.0 -0.0659642131
C  C1322  1  0.16670000  0.23860000  0.67470000  1.0 -0.0659642131
C  C1323  1  0.33333333  0.00800000  0.07190000  1.0 -0.0599936927
C  C1324  1  0.43610000  0.26140000  0.42810000  1.0 -0.0599936927
C  C1325  1  0.82530000  0.06390000  0.49200000  1.0 -0.0599936927
C  C1326  1  0.67470000  0.16670000  0.23860000  1.0 -0.0599936927
C  C1327  1  0.07190000  0.33333333  0.00800000  1.0 -0.0599936927
C  C1328  1  0.42810000  0.43610000  0.26140000  1.0 -0.0599936927
C  C1329  1  0.49200000  0.82530000  0.06390000  1.0 -0.0659642131
C  C1330  1  0.23860000  0.67470000  0.16670000  1.0 -0.0659642131
C  C1331  1  0.00800000  0.07190000  0.33333333  1.0 -0.0599936927
C  C1332  1  0.26140000  0.42810000  0.43610000  1.0 -0.0659642131
C  C1333  1  0.26140000  0.33333333  0.82530000  1.0 -0.0659642131
C  C1334  1  0.00800000  0.43610000  0.67470000  1.0 -0.0659642131
C  C1335  1  0.23860000  0.06390000  0.07190000  1.0 -0.0599936927
C  C1336  1  0.49200000  0.16670000  0.42810000  1.0 -0.0599936927
C  C1337  1  0.16670000  0.42810000  0.49200000  1.0 -0.0659642131
C  C1338  1  0.06390000  0.07190000  0.23860000  1.0 -0.0599936927
C  C1339  1  0.43610000  0.67470000  0.00800000  1.0 -0.0599936927
C  C1340  1  0.33333333  0.82530000  0.26140000  1.0 -0.0659642131
C  C1341  1  0.07190000  0.23860000  0.06390000  1.0 -0.0599936927
C  C1342  1  0.42810000  0.49200000  0.16670000  1.0 -0.0599936927
C  C1343  1  0.82530000  0.26140000  0.33333333  1.0 -0.0599936927
C  C1344  1  0.67470000  0.00800000  0.43610000  1.0 -0.0599936927
C  C1345  1  0.94820000  0.52110000  0.14250000  1.0 -0.0599936927
C  C1346  1  0.87860000  0.80570000  0.35750000  1.0 -0.0599936927
C  C1347  1  0.62140000  0.97890000  0.92710000  1.0 -0.0599936927
C  C1348  1  0.55180000  0.69430000  0.57290000  1.0 -0.0599936927
C  C1349  1  0.14250000  0.94820000  0.52110000  1.0 -0.0599936927
C  C1350  1  0.35750000  0.87860000  0.80570000  1.0 -0.0599936927
C  C1351  1  0.92710000  0.62140000  0.97890000  1.0 -0.0599936927
C  C1352  1  0.57290000  0.55180000  0.69430000  1.0 -0.0599936927
C  C1353  1  0.52110000  0.14250000  0.94820000  1.0 -0.0599936927
C  C1354  1  0.80570000  0.35750000  0.87860000  1.0 -0.0599936927
C  C1355  1  0.97890000  0.92710000  0.62140000  1.0 -0.0599936927
C  C1356  1  0.69430000  0.57290000  0.55180000  1.0 -0.0599936927
C  C1357  1  0.69430000  0.62140000  0.14250000  1.0 -0.0599936927
C  C1358  1  0.97890000  0.55180000  0.35750000  1.0 -0.0599936927
C  C1359  1  0.80570000  0.94820000  0.92710000  1.0 -0.0599936927
C  C1360  1  0.52110000  0.87860000  0.57290000  1.0 -0.0599936927
C  C1361  1  0.87860000  0.57290000  0.52110000  1.0 -0.0599936927
C  C1362  1  0.94820000  0.92710000  0.80570000  1.0 -0.0599936927
C  C1363  1  0.55180000  0.35750000  0.97890000  1.0 -0.0599936927
C  C1364  1  0.62140000  0.14250000  0.69430000  1.0 -0.0599936927
C  C1365  1  0.92710000  0.80570000  0.94820000  1.0 -0.0599936927
C  C1366  1  0.57290000  0.52110000  0.87860000  1.0 -0.0599936927
C  C1367  1  0.14250000  0.69430000  0.62140000  1.0 -0.0599936927
C  C1368  1  0.35750000  0.97890000  0.55180000  1.0 -0.0599936927
C  C1369  1  0.05180000  0.47890000  0.85750000  1.0 -0.0599936927
C  C1370  1  0.12140000  0.19430000  0.64250000  1.0 -0.0599936927
C  C1371  1  0.37860000  0.02110000  0.07290000  1.0 -0.0599936927
C  C1372  1  0.44820000  0.30570000  0.42710000  1.0 -0.0599936927
C  C1373  1  0.85750000  0.05180000  0.47890000  1.0 -0.0599936927
C  C1374  1  0.64250000  0.12140000  0.19430000  1.0 -0.0599936927
C  C1375  1  0.07290000  0.37860000  0.02110000  1.0 -0.0599936927
C  C1376  1  0.42710000  0.44820000  0.30570000  1.0 -0.0599936927
C  C1377  1  0.47890000  0.85750000  0.05180000  1.0 -0.0599936927
C  C1378  1  0.19430000  0.64250000  0.12140000  1.0 -0.0599936927
C  C1379  1  0.02110000  0.07290000  0.37860000  1.0 -0.0599936927
C  C1380  1  0.30570000  0.42710000  0.44820000  1.0 -0.0599936927
C  C1381  1  0.30570000  0.37860000  0.85750000  1.0 -0.0599936927
C  C1382  1  0.02110000  0.44820000  0.64250000  1.0 -0.0599936927
C  C1383  1  0.19430000  0.05180000  0.07290000  1.0 -0.0599936927
C  C1384  1  0.47890000  0.12140000  0.42710000  1.0 -0.0599936927
C  C1385  1  0.12140000  0.42710000  0.47890000  1.0 -0.0599936927
C  C1386  1  0.05180000  0.07290000  0.19430000  1.0 -0.0599936927
C  C1387  1  0.44820000  0.64250000  0.02110000  1.0 -0.0599936927
C  C1388  1  0.37860000  0.85750000  0.30570000  1.0 -0.0599936927
C  C1389  1  0.07290000  0.19430000  0.05180000  1.0 -0.0599936927
C  C1390  1  0.42710000  0.47890000  0.12140000  1.0 -0.0599936927
C  C1391  1  0.85750000  0.30570000  0.37860000  1.0 -0.0599936927
C  C1392  1  0.64250000  0.02110000  0.44820000  1.0 -0.0599936927
C  C1393  1  0.96180000  0.56990000  0.15710000  1.0 -0.2090450772
C  C1394  1  0.91280000  0.80470000  0.34290000  1.0 -0.2090450772
C  C1395  1  0.58720000  0.93010000  0.89190000  1.0 -0.2090450772
C  C1396  1  0.53820000  0.69530000  0.60810000  1.0 -0.2090450772
C  C1397  1  0.15710000  0.96180000  0.56990000  1.0 -0.2090450772
C  C1398  1  0.34290000  0.91280000  0.80470000  1.0 -0.2090450772
C  C1399  1  0.89190000  0.58720000  0.93010000  1.0 -0.2090450772
C  C1400  1  0.60810000  0.53820000  0.69530000  1.0 -0.2090450772
C  C1401  1  0.56990000  0.15710000  0.96180000  1.0 -0.2090450772
C  C1402  1  0.80470000  0.34290000  0.91280000  1.0 -0.2090450772
C  C1403  1  0.93010000  0.89190000  0.58720000  1.0 -0.2090450772
C  C1404  1  0.69530000  0.60810000  0.53820000  1.0 -0.2090450772
C  C1405  1  0.69530000  0.58720000  0.15710000  1.0 -0.2090450772
C  C1406  1  0.93010000  0.53820000  0.34290000  1.0 -0.2090450772
C  C1407  1  0.80470000  0.96180000  0.89190000  1.0 -0.2090450772
C  C1408  1  0.56990000  0.91280000  0.60810000  1.0 -0.2090450772
C  C1409  1  0.91280000  0.60810000  0.56990000  1.0 -0.2090450772
C  C1410  1  0.96180000  0.89190000  0.80470000  1.0 -0.2090450772
C  C1411  1  0.53820000  0.34290000  0.93010000  1.0 -0.2090450772
C  C1412  1  0.58720000  0.15710000  0.69530000  1.0 -0.2090450772
C  C1413  1  0.89190000  0.80470000  0.96180000  1.0 -0.2090450772
C  C1414  1  0.60810000  0.56990000  0.91280000  1.0 -0.2090450772
C  C1415  1  0.15710000  0.69530000  0.58720000  1.0 -0.2090450772
C  C1416  1  0.34290000  0.93010000  0.53820000  1.0 -0.2090450772
C  C1417  1  0.03820000  0.43010000  0.84290000  1.0 -0.2090450772
C  C1418  1  0.08720000  0.19530000  0.65710000  1.0 -0.2090450772
C  C1419  1  0.41280000  0.06990000  0.10810000  1.0 -0.2090450772
C  C1420  1  0.46180000  0.30470000  0.39190000  1.0 -0.2090450772
C  C1421  1  0.84290000  0.03820000  0.43010000  1.0 -0.2090450772
C  C1422  1  0.65710000  0.08720000  0.19530000  1.0 -0.2090450772
C  C1423  1  0.10810000  0.41280000  0.06990000  1.0 -0.2090450772
C  C1424  1  0.39190000  0.46180000  0.30470000  1.0 -0.2090450772
C  C1425  1  0.43010000  0.84290000  0.03820000  1.0 -0.2090450772
C  C1426  1  0.19530000  0.65710000  0.08720000  1.0 -0.2090450772
C  C1427  1  0.06990000  0.10810000  0.41280000  1.0 -0.2090450772
C  C1428  1  0.30470000  0.39190000  0.46180000  1.0 -0.2090450772
C  C1429  1  0.30470000  0.41280000  0.84290000  1.0 -0.2090450772
C  C1430  1  0.06990000  0.46180000  0.65710000  1.0 -0.2090450772
C  C1431  1  0.19530000  0.03820000  0.10810000  1.0 -0.2090450772
C  C1432  1  0.43010000  0.08720000  0.39190000  1.0 -0.2090450772
C  C1433  1  0.08720000  0.39190000  0.43010000  1.0 -0.2090450772
C  C1434  1  0.03820000  0.10810000  0.19530000  1.0 -0.2090450772
C  C1435  1  0.46180000  0.65710000  0.06990000  1.0 -0.2090450772
C  C1436  1  0.41280000  0.84290000  0.30470000  1.0 -0.2090450772
C  C1437  1  0.10810000  0.19530000  0.03820000  1.0 -0.2090450772
C  C1438  1  0.39190000  0.43010000  0.08720000  1.0 -0.2090450772
C  C1439  1  0.84290000  0.30470000  0.41280000  1.0 -0.2090450772
C  C1440  1  0.65710000  0.06990000  0.46180000  1.0 -0.2090450772
S  S1  1  0.93663000  0.41595000  0.38178000  1.0 0.0390981126
S  S2  1  0.53417000  0.55485000  0.11822000  1.0 0.0390981126
S  S3  1  0.96583000  0.08405000  0.02068000  1.0 0.0390981126
S  S4  1  0.56337000  0.94515000  0.47932000  1.0 0.0390981126
S  S5  1  0.38178000  0.93663000  0.41595000  1.0 0.0390981126
S  S6  1  0.11822000  0.53417000  0.55485000  1.0 0.0390981126
S  S7  1  0.02068000  0.96583000  0.08405000  1.0 0.0390981126
S  S8  1  0.47932000  0.56337000  0.94515000  1.0 0.0390981126
S  S9  1  0.41595000  0.38178000  0.93663000  1.0 0.0390981126
S  S10  1  0.55485000  0.11822000  0.53417000  1.0 0.0390981126
S  S11  1  0.08405000  0.02068000  0.96583000  1.0 0.0390981126
S  S12  1  0.94515000  0.47932000  0.56337000  1.0 0.0390981126
S  S13  1  0.94515000  0.96583000  0.38178000  1.0 0.0390981126
S  S14  1  0.08405000  0.56337000  0.11822000  1.0 0.0390981126
S  S15  1  0.55485000  0.93663000  0.02068000  1.0 0.0390981126
S  S16  1  0.41595000  0.53417000  0.47932000  1.0 0.0390981126
S  S17  1  0.53417000  0.47932000  0.41595000  1.0 0.0390981126
S  S18  1  0.93663000  0.02068000  0.55485000  1.0 0.0390981126
S  S19  1  0.56337000  0.11822000  0.08405000  1.0 0.0390981126
S  S20  1  0.96583000  0.38178000  0.94515000  1.0 0.0390981126
S  S21  1  0.02068000  0.55485000  0.93663000  1.0 0.0390981126
S  S22  1  0.47932000  0.41595000  0.53417000  1.0 0.0390981126
S  S23  1  0.38178000  0.94515000  0.96583000  1.0 0.0390981126
S  S24  1  0.11822000  0.08405000  0.56337000  1.0 0.0390981126
S  S25  1  0.06337000  0.58405000  0.61822000  1.0 0.0390981126
S  S26  1  0.46583000  0.44515000  0.88178000  1.0 0.0390981126
S  S27  1  0.03417000  0.91595000  0.97932000  1.0 0.0390981126
S  S28  1  0.43663000  0.05485000  0.52068000  1.0 0.0390981126
S  S29  1  0.61822000  0.06337000  0.58405000  1.0 0.0390981126
S  S30  1  0.88178000  0.46583000  0.44515000  1.0 0.0390981126
S  S31  1  0.97932000  0.03417000  0.91595000  1.0 0.0390981126
S  S32  1  0.52068000  0.43663000  0.05485000  1.0 0.0390981126
S  S33  1  0.58405000  0.61822000  0.06337000  1.0 0.0390981126
S  S34  1  0.44515000  0.88178000  0.46583000  1.0 0.0390981126
S  S35  1  0.91595000  0.97932000  0.03417000  1.0 0.0390981126
S  S36  1  0.05485000  0.52068000  0.43663000  1.0 0.0390981126
S  S37  1  0.05485000  0.03417000  0.61822000  1.0 0.0390981126
S  S38  1  0.91595000  0.43663000  0.88178000  1.0 0.0390981126
S  S39  1  0.44515000  0.06337000  0.97932000  1.0 0.0390981126
S  S40  1  0.58405000  0.46583000  0.52068000  1.0 0.0390981126
S  S41  1  0.46583000  0.52068000  0.58405000  1.0 0.0390981126
S  S42  1  0.06337000  0.97932000  0.44515000  1.0 0.0390981126
S  S43  1  0.43663000  0.88178000  0.91595000  1.0 0.0390981126
S  S44  1  0.03417000  0.61822000  0.05485000  1.0 0.0390981126
S  S45  1  0.97932000  0.44515000  0.06337000  1.0 0.0390981126
S  S46  1  0.52068000  0.58405000  0.46583000  1.0 0.0390981126
S  S47  1  0.61822000  0.05485000  0.03417000  1.0 0.0390981126
S  S48  1  0.88178000  0.91595000  0.43663000  1.0 0.0390981126
S  S49  1  0.93719000  0.37374000  0.31299000  1.0 0.0390981126
S  S50  1  0.56075000  0.62420000  0.18701000  1.0 0.0344167275
S  S51  1  0.93925000  0.12626000  0.06345000  1.0 0.0390981126
S  S52  1  0.56281000  0.87580000  0.43655000  1.0 0.0344167275
S  S53  1  0.31299000  0.93719000  0.37374000  1.0 0.0344167275
S  S54  1  0.18701000  0.56075000  0.62420000  1.0 0.0344167275
S  S55  1  0.06345000  0.93925000  0.12626000  1.0 0.0344167275
S  S56  1  0.43655000  0.56281000  0.87580000  1.0 0.0344167275
S  S57  1  0.37374000  0.31299000  0.93719000  1.0 0.0344167275
S  S58  1  0.62420000  0.18701000  0.56075000  1.0 0.0344167275
S  S59  1  0.12626000  0.06345000  0.93925000  1.0 0.0344167275
S  S60  1  0.87580000  0.43655000  0.56281000  1.0 0.0390981126
S  S61  1  0.87580000  0.93925000  0.31299000  1.0 0.0390981126
S  S62  1  0.12626000  0.56281000  0.18701000  1.0 0.0344167275
S  S63  1  0.62420000  0.93719000  0.06345000  1.0 0.0344167275
S  S64  1  0.37374000  0.56075000  0.43655000  1.0 0.0344167275
S  S65  1  0.56075000  0.43655000  0.37374000  1.0 0.0344167275
S  S66  1  0.93719000  0.06345000  0.62420000  1.0 0.0390981126
S  S67  1  0.56281000  0.18701000  0.12626000  1.0 0.0344167275
S  S68  1  0.93925000  0.31299000  0.87580000  1.0 0.0344167275
S  S69  1  0.06345000  0.62420000  0.93719000  1.0 0.0344167275
S  S70  1  0.43655000  0.37374000  0.56075000  1.0 0.0344167275
S  S71  1  0.31299000  0.87580000  0.93925000  1.0 0.0344167275
S  S72  1  0.18701000  0.12626000  0.56281000  1.0 0.0344167275
S  S73  1  0.06281000  0.62626000  0.68701000  1.0 0.0344167275
S  S74  1  0.43925000  0.37580000  0.81299000  1.0 0.0344167275
S  S75  1  0.06075000  0.87374000  0.93655000  1.0 0.0344167275
S  S76  1  0.43719000  0.12420000  0.56345000  1.0 0.0344167275
S  S77  1  0.68701000  0.06281000  0.62626000  1.0 0.0344167275
S  S78  1  0.81299000  0.43925000  0.37580000  1.0 0.0344167275
S  S79  1  0.93655000  0.06075000  0.87374000  1.0 0.0344167275
S  S80  1  0.56345000  0.43719000  0.12420000  1.0 0.0344167275
S  S81  1  0.62626000  0.68701000  0.06281000  1.0 0.0344167275
S  S82  1  0.37580000  0.81299000  0.43925000  1.0 0.0344167275
S  S83  1  0.87374000  0.93655000  0.06075000  1.0 0.0344167275
S  S84  1  0.12420000  0.56345000  0.43719000  1.0 0.0344167275
S  S85  1  0.12420000  0.06075000  0.68701000  1.0 0.0344167275
S  S86  1  0.87374000  0.43719000  0.81299000  1.0 0.0344167275
S  S87  1  0.37580000  0.06281000  0.93655000  1.0 0.0344167275
S  S88  1  0.62626000  0.43925000  0.56345000  1.0 0.0344167275
S  S89  1  0.43925000  0.56345000  0.62626000  1.0 0.0344167275
S  S90  1  0.06281000  0.93655000  0.37580000  1.0 0.0344167275
S  S91  1  0.43719000  0.81299000  0.87374000  1.0 0.0344167275
S  S92  1  0.06075000  0.68701000  0.12420000  1.0 0.0344167275
S  S93  1  0.93655000  0.37580000  0.06281000  1.0 0.0390981126
S  S94  1  0.56345000  0.62626000  0.43925000  1.0 0.0344167275
S  S95  1  0.68701000  0.12420000  0.06075000  1.0 0.0344167275
S  S96  1  0.81299000  0.87374000  0.43719000  1.0 0.0344167275
N  N1  1  0.95029000  0.45798000  0.23007000  1.0 -0.350751375
N  N2  1  0.72791000  0.72022000  0.26993000  1.0 -0.350751375
N  N3  1  0.77209000  0.04202000  0.99231000  1.0 -0.350751375
N  N4  1  0.54971000  0.77978000  0.50769000  1.0 -0.350751375
N  N5  1  0.23007000  0.95029000  0.45798000  1.0 -0.350751375
N  N6  1  0.26993000  0.72791000  0.72022000  1.0 -0.350751375
N  N7  1  0.99231000  0.77209000  0.04202000  1.0 -0.350751375
N  N8  1  0.50769000  0.54971000  0.77978000  1.0 -0.350751375
N  N9  1  0.45798000  0.23007000  0.95029000  1.0 -0.350751375
N  N10  1  0.72022000  0.26993000  0.72791000  1.0 -0.350751375
N  N11  1  0.04202000  0.99231000  0.77209000  1.0 -0.350751375
N  N12  1  0.77978000  0.50769000  0.54971000  1.0 -0.350751375
N  N13  1  0.77978000  0.77209000  0.23007000  1.0 -0.350751375
N  N14  1  0.04202000  0.54971000  0.26993000  1.0 -0.350751375
N  N15  1  0.72022000  0.95029000  0.99231000  1.0 -0.350751375
N  N16  1  0.45798000  0.72791000  0.50769000  1.0 -0.350751375
N  N17  1  0.72791000  0.50769000  0.45798000  1.0 -0.350751375
N  N18  1  0.95029000  0.99231000  0.72022000  1.0 -0.350751375
N  N19  1  0.54971000  0.26993000  0.04202000  1.0 -0.350751375
N  N20  1  0.77209000  0.23007000  0.77978000  1.0 -0.350751375
N  N21  1  0.99231000  0.72022000  0.95029000  1.0 -0.350751375
N  N22  1  0.50769000  0.45798000  0.72791000  1.0 -0.350751375
N  N23  1  0.23007000  0.77978000  0.77209000  1.0 -0.350751375
N  N24  1  0.26993000  0.04202000  0.54971000  1.0 -0.350751375
N  N25  1  0.04971000  0.54202000  0.76993000  1.0 -0.350751375
N  N26  1  0.27209000  0.27978000  0.73007000  1.0 -0.350751375
N  N27  1  0.22791000  0.95798000  0.00769000  1.0 -0.350751375
N  N28  1  0.45029000  0.22022000  0.49231000  1.0 -0.350751375
N  N29  1  0.76993000  0.04971000  0.54202000  1.0 -0.350751375
N  N30  1  0.73007000  0.27209000  0.27978000  1.0 -0.350751375
N  N31  1  0.00769000  0.22791000  0.95798000  1.0 -0.350751375
N  N32  1  0.49231000  0.45029000  0.22022000  1.0 -0.350751375
N  N33  1  0.54202000  0.76993000  0.04971000  1.0 -0.350751375
N  N34  1  0.27978000  0.73007000  0.27209000  1.0 -0.350751375
N  N35  1  0.95798000  0.00769000  0.22791000  1.0 -0.350751375
N  N36  1  0.22022000  0.49231000  0.45029000  1.0 -0.350751375
N  N37  1  0.22022000  0.22791000  0.76993000  1.0 -0.350751375
N  N38  1  0.95798000  0.45029000  0.73007000  1.0 -0.350751375
N  N39  1  0.27978000  0.04971000  0.00769000  1.0 -0.350751375
N  N40  1  0.54202000  0.27209000  0.49231000  1.0 -0.350751375
N  N41  1  0.27209000  0.49231000  0.54202000  1.0 -0.350751375
N  N42  1  0.04971000  0.00769000  0.27978000  1.0 -0.350751375
N  N43  1  0.45029000  0.73007000  0.95798000  1.0 -0.350751375
N  N44  1  0.22791000  0.76993000  0.22022000  1.0 -0.350751375
N  N45  1  0.00769000  0.27978000  0.04971000  1.0 -0.350751375
N  N46  1  0.49231000  0.54202000  0.27209000  1.0 -0.350751375
N  N47  1  0.76993000  0.22022000  0.22791000  1.0 -0.350751375
N  N48  1  0.73007000  0.95798000  0.45029000  1.0 -0.350751375
N  N49  1  0.87883000  0.41263000  0.18208000  1.0 -0.0800418262
N  N50  1  0.73055000  0.69675000  0.31792000  1.0 -0.0800418262
N  N51  1  0.76945000  0.08737000  0.96620000  1.0 -0.0800418262
N  N52  1  0.62117000  0.80325000  0.53380000  1.0 -0.0800418262
N  N53  1  0.18208000  0.87883000  0.41263000  1.0 -0.0800418262
N  N54  1  0.31792000  0.73055000  0.69675000  1.0 -0.0800418262
N  N55  1  0.96620000  0.76945000  0.08737000  1.0 -0.0800418262
N  N56  1  0.53380000  0.62117000  0.80325000  1.0 -0.0800418262
N  N57  1  0.41263000  0.18208000  0.87883000  1.0 -0.0800418262
N  N58  1  0.69675000  0.31792000  0.73055000  1.0 -0.0800418262
N  N59  1  0.08737000  0.96620000  0.76945000  1.0 -0.0800418262
N  N60  1  0.80325000  0.53380000  0.62117000  1.0 -0.0800418262
N  N61  1  0.80325000  0.76945000  0.18208000  1.0 -0.0800418262
N  N62  1  0.08737000  0.62117000  0.31792000  1.0 -0.0800418262
N  N63  1  0.69675000  0.87883000  0.96620000  1.0 -0.0800418262
N  N64  1  0.41263000  0.73055000  0.53380000  1.0 -0.0800418262
N  N65  1  0.73055000  0.53380000  0.41263000  1.0 -0.0800418262
N  N66  1  0.87883000  0.96620000  0.69675000  1.0 -0.0800418262
N  N67  1  0.62117000  0.31792000  0.08737000  1.0 -0.0800418262
N  N68  1  0.76945000  0.18208000  0.80325000  1.0 -0.0800418262
N  N69  1  0.96620000  0.69675000  0.87883000  1.0 -0.0800418262
N  N70  1  0.53380000  0.41263000  0.73055000  1.0 -0.0800418262
N  N71  1  0.18208000  0.80325000  0.76945000  1.0 -0.0800418262
N  N72  1  0.31792000  0.08737000  0.62117000  1.0 -0.0800418262
N  N73  1  0.12117000  0.58737000  0.81792000  1.0 -0.0800418262
N  N74  1  0.26945000  0.30325000  0.68208000  1.0 -0.0800418262
N  N75  1  0.23055000  0.91263000  0.03380000  1.0 -0.0800418262
N  N76  1  0.37883000  0.19675000  0.46620000  1.0 -0.0800418262
N  N77  1  0.81792000  0.12117000  0.58737000  1.0 -0.0800418262
N  N78  1  0.68208000  0.26945000  0.30325000  1.0 -0.0800418262
N  N79  1  0.03380000  0.23055000  0.91263000  1.0 -0.0800418262
N  N80  1  0.46620000  0.37883000  0.19675000  1.0 -0.0800418262
N  N81  1  0.58737000  0.81792000  0.12117000  1.0 -0.0800418262
N  N82  1  0.30325000  0.68208000  0.26945000  1.0 -0.0800418262
N  N83  1  0.91263000  0.03380000  0.23055000  1.0 -0.0800418262
N  N84  1  0.19675000  0.46620000  0.37883000  1.0 -0.0800418262
N  N85  1  0.19675000  0.23055000  0.81792000  1.0 -0.0800418262
N  N86  1  0.91263000  0.37883000  0.68208000  1.0 -0.0800418262
N  N87  1  0.30325000  0.12117000  0.03380000  1.0 -0.0800418262
N  N88  1  0.58737000  0.26945000  0.46620000  1.0 -0.0800418262
N  N89  1  0.26945000  0.46620000  0.58737000  1.0 -0.0800418262
N  N90  1  0.12117000  0.03380000  0.30325000  1.0 -0.0800418262
N  N91  1  0.37883000  0.68208000  0.91263000  1.0 -0.0800418262
N  N92  1  0.23055000  0.81792000  0.19675000  1.0 -0.0800418262
N  N93  1  0.03380000  0.30325000  0.12117000  1.0 -0.0800418262
N  N94  1  0.46620000  0.58737000  0.26945000  1.0 -0.0800418262
N  N95  1  0.81792000  0.19675000  0.23055000  1.0 -0.0800418262
N  N96  1  0.68208000  0.91263000  0.37883000  1.0 -0.0800418262
O  O1  1  0.80731000  0.33144000  0.27755000  1.0 -0.5100465167
O  O2  1  0.55389000  0.52976000  0.22245000  1.0 -0.5100465167
O  O3  1  0.94611000  0.16856000  0.97587000  1.0 -0.5100465167
O  O4  1  0.69269000  0.97024000  0.52413000  1.0 -0.5100465167
O  O5  1  0.27755000  0.80731000  0.33144000  1.0 -0.5100465167
O  O6  1  0.22245000  0.55389000  0.52976000  1.0 -0.5100465167
O  O7  1  0.97587000  0.94611000  0.16856000  1.0 -0.5100465167
O  O8  1  0.52413000  0.69269000  0.97024000  1.0 -0.5100465167
O  O9  1  0.33144000  0.27755000  0.80731000  1.0 -0.5100465167
O  O10  1  0.52976000  0.22245000  0.55389000  1.0 -0.5100465167
O  O11  1  0.16856000  0.97587000  0.94611000  1.0 -0.5100465167
O  O12  1  0.97024000  0.52413000  0.69269000  1.0 -0.5100465167
O  O13  1  0.97024000  0.94611000  0.27755000  1.0 -0.5100465167
O  O14  1  0.16856000  0.69269000  0.22245000  1.0 -0.5100465167
O  O15  1  0.52976000  0.80731000  0.97587000  1.0 -0.5100465167
O  O16  1  0.33144000  0.55389000  0.52413000  1.0 -0.5100465167
O  O17  1  0.55389000  0.52413000  0.33144000  1.0 -0.5100465167
O  O18  1  0.80731000  0.97587000  0.52976000  1.0 -0.5100465167
O  O19  1  0.69269000  0.22245000  0.16856000  1.0 -0.5100465167
O  O20  1  0.94611000  0.27755000  0.97024000  1.0 -0.5100465167
O  O21  1  0.97587000  0.52976000  0.80731000  1.0 -0.5100465167
O  O22  1  0.52413000  0.33144000  0.55389000  1.0 -0.5100465167
O  O23  1  0.27755000  0.97024000  0.94611000  1.0 -0.5100465167
O  O24  1  0.22245000  0.16856000  0.69269000  1.0 -0.5100465167
O  O25  1  0.19269000  0.66856000  0.72245000  1.0 -0.5100465167
O  O26  1  0.44611000  0.47024000  0.77755000  1.0 -0.5100465167
O  O27  1  0.05389000  0.83144000  0.02413000  1.0 -0.5100465167
O  O28  1  0.30731000  0.02976000  0.47587000  1.0 -0.5100465167
O  O29  1  0.72245000  0.19269000  0.66856000  1.0 -0.5100465167
O  O30  1  0.77755000  0.44611000  0.47024000  1.0 -0.5100465167
O  O31  1  0.02413000  0.05389000  0.83144000  1.0 -0.5100465167
O  O32  1  0.47587000  0.30731000  0.02976000  1.0 -0.5100465167
O  O33  1  0.66856000  0.72245000  0.19269000  1.0 -0.5100465167
O  O34  1  0.47024000  0.77755000  0.44611000  1.0 -0.5100465167
O  O35  1  0.83144000  0.02413000  0.05389000  1.0 -0.5100465167
O  O36  1  0.02976000  0.47587000  0.30731000  1.0 -0.5100465167
O  O37  1  0.02976000  0.05389000  0.72245000  1.0 -0.5100465167
O  O38  1  0.83144000  0.30731000  0.77755000  1.0 -0.5100465167
O  O39  1  0.47024000  0.19269000  0.02413000  1.0 -0.5100465167
O  O40  1  0.66856000  0.44611000  0.47587000  1.0 -0.5100465167
O  O41  1  0.44611000  0.47587000  0.66856000  1.0 -0.5100465167
O  O42  1  0.19269000  0.02413000  0.47024000  1.0 -0.5100465167
O  O43  1  0.30731000  0.77755000  0.83144000  1.0 -0.5100465167
O  O44  1  0.05389000  0.72245000  0.02976000  1.0 -0.5100465167
O  O45  1  0.02413000  0.47024000  0.19269000  1.0 -0.5100465167
O  O46  1  0.47587000  0.66856000  0.44611000  1.0 -0.5100465167
O  O47  1  0.72245000  0.02976000  0.05389000  1.0 -0.5100465167
O  O48  1  0.77755000  0.83144000  0.30731000  1.0 -0.5100465167
O  O49  1  0.79063000  0.29686000  0.20859000  1.0 -0.4673434944
O  O50  1  0.58827000  0.58204000  0.29141000  1.0 -0.4673434944
O  O51  1  0.91173000  0.20314000  0.99377000  1.0 -0.4673434944
O  O52  1  0.70937000  0.91796000  0.50623000  1.0 -0.4673434944
O  O53  1  0.20859000  0.79063000  0.29686000  1.0 -0.4673434944
O  O54  1  0.29141000  0.58827000  0.58204000  1.0 -0.4673434944
O  O55  1  0.99377000  0.91173000  0.20314000  1.0 -0.4673434944
O  O56  1  0.50623000  0.70937000  0.91796000  1.0 -0.4673434944
O  O57  1  0.29686000  0.20859000  0.79063000  1.0 -0.4673434944
O  O58  1  0.58204000  0.29141000  0.58827000  1.0 -0.4673434944
O  O59  1  0.20314000  0.99377000  0.91173000  1.0 -0.4673434944
O  O60  1  0.91796000  0.50623000  0.70937000  1.0 -0.4673434944
O  O61  1  0.91796000  0.91173000  0.20859000  1.0 -0.4673434944
O  O62  1  0.20314000  0.70937000  0.29141000  1.0 -0.4673434944
O  O63  1  0.58204000  0.79063000  0.99377000  1.0 -0.4673434944
O  O64  1  0.29686000  0.58827000  0.50623000  1.0 -0.4673434944
O  O65  1  0.58827000  0.50623000  0.29686000  1.0 -0.4673434944
O  O66  1  0.79063000  0.99377000  0.58204000  1.0 -0.4673434944
O  O67  1  0.70937000  0.29141000  0.20314000  1.0 -0.4673434944
O  O68  1  0.91173000  0.20859000  0.91796000  1.0 -0.4673434944
O  O69  1  0.99377000  0.58204000  0.79063000  1.0 -0.4673434944
O  O70  1  0.50623000  0.29686000  0.58827000  1.0 -0.4673434944
O  O71  1  0.20859000  0.91796000  0.91173000  1.0 -0.4673434944
O  O72  1  0.29141000  0.20314000  0.70937000  1.0 -0.4673434944
O  O73  1  0.20937000  0.70314000  0.79141000  1.0 -0.4673434944
O  O74  1  0.41173000  0.41796000  0.70859000  1.0 -0.4673434944
O  O75  1  0.08827000  0.79686000  0.00623000  1.0 -0.4673434944
O  O76  1  0.29063000  0.08204000  0.49377000  1.0 -0.4673434944
O  O77  1  0.79141000  0.20937000  0.70314000  1.0 -0.4673434944
O  O78  1  0.70859000  0.41173000  0.41796000  1.0 -0.4673434944
O  O79  1  0.00623000  0.08827000  0.79686000  1.0 -0.4673434944
O  O80  1  0.49377000  0.29063000  0.08204000  1.0 -0.4673434944
O  O81  1  0.70314000  0.79141000  0.20937000  1.0 -0.4673434944
O  O82  1  0.41796000  0.70859000  0.41173000  1.0 -0.4673434944
O  O83  1  0.79686000  0.00623000  0.08827000  1.0 -0.4673434944
O  O84  1  0.08204000  0.49377000  0.29063000  1.0 -0.4673434944
O  O85  1  0.08204000  0.08827000  0.79141000  1.0 -0.4673434944
O  O86  1  0.79686000  0.29063000  0.70859000  1.0 -0.4673434944
O  O87  1  0.41796000  0.20937000  0.00623000  1.0 -0.4673434944
O  O88  1  0.70314000  0.41173000  0.49377000  1.0 -0.4673434944
O  O89  1  0.41173000  0.49377000  0.70314000  1.0 -0.4673434944
O  O90  1  0.20937000  0.00623000  0.41796000  1.0 -0.4673434944
O  O91  1  0.29063000  0.70859000  0.79686000  1.0 -0.4673434944
O  O92  1  0.08827000  0.79141000  0.08204000  1.0 -0.4673434944
O  O93  1  0.00623000  0.41796000  0.20937000  1.0 -0.4673434944
O  O94  1  0.49377000  0.70314000  0.41173000  1.0 -0.4673434944
O  O95  1  0.79141000  0.08204000  0.08827000  1.0 -0.4673434944
O  O96  1  0.70859000  0.79686000  0.29063000  1.0 -0.4673434944
O  O97  1  0.88668000  0.24368000  0.04066000  1.0 -0.4673434944
O  O98  1  0.70302000  0.84602000  0.45934000  1.0 -0.4673434944
O  O99  1  0.79698000  0.25632000  0.14300000  1.0 -0.4673434944
O  O100  1  0.61332000  0.65398000  0.35700000  1.0 -0.4673434944
O  O101  1  0.04066000  0.88668000  0.24368000  1.0 -0.4673434944
O  O102  1  0.45934000  0.70302000  0.84602000  1.0 -0.4673434944
O  O103  1  0.14300000  0.79698000  0.25632000  1.0 -0.4673434944
O  O104  1  0.35700000  0.61332000  0.65398000  1.0 -0.4673434944
O  O105  1  0.24368000  0.04066000  0.88668000  1.0 -0.4673434944
O  O106  1  0.84602000  0.45934000  0.70302000  1.0 -0.4673434944
O  O107  1  0.25632000  0.14300000  0.79698000  1.0 -0.4673434944
O  O108  1  0.65398000  0.35700000  0.61332000  1.0 -0.4673434944
O  O109  1  0.65398000  0.79698000  0.04066000  1.0 -0.4673434944
O  O110  1  0.25632000  0.61332000  0.45934000  1.0 -0.4673434944
O  O111  1  0.84602000  0.88668000  0.14300000  1.0 -0.4673434944
O  O112  1  0.24368000  0.70302000  0.35700000  1.0 -0.4673434944
O  O113  1  0.70302000  0.35700000  0.24368000  1.0 -0.4673434944
O  O114  1  0.88668000  0.14300000  0.84602000  1.0 -0.4673434944
O  O115  1  0.61332000  0.45934000  0.25632000  1.0 -0.4673434944
O  O116  1  0.79698000  0.04066000  0.65398000  1.0 -0.4673434944
O  O117  1  0.14300000  0.84602000  0.88668000  1.0 -0.4673434944
O  O118  1  0.35700000  0.24368000  0.70302000  1.0 -0.4673434944
O  O119  1  0.04066000  0.65398000  0.79698000  1.0 -0.4673434944
O  O120  1  0.45934000  0.25632000  0.61332000  1.0 -0.4673434944
O  O121  1  0.11332000  0.75632000  0.95934000  1.0 -0.4673434944
O  O122  1  0.29698000  0.15398000  0.54066000  1.0 -0.4673434944
O  O123  1  0.20302000  0.74368000  0.85700000  1.0 -0.4673434944
O  O124  1  0.38668000  0.34602000  0.64300000  1.0 -0.4673434944
O  O125  1  0.95934000  0.11332000  0.75632000  1.0 -0.4673434944
O  O126  1  0.54066000  0.29698000  0.15398000  1.0 -0.4673434944
O  O127  1  0.85700000  0.20302000  0.74368000  1.0 -0.4673434944
O  O128  1  0.64300000  0.38668000  0.34602000  1.0 -0.4673434944
O  O129  1  0.75632000  0.95934000  0.11332000  1.0 -0.4673434944
O  O130  1  0.15398000  0.54066000  0.29698000  1.0 -0.4673434944
O  O131  1  0.74368000  0.85700000  0.20302000  1.0 -0.4673434944
O  O132  1  0.34602000  0.64300000  0.38668000  1.0 -0.4673434944
O  O133  1  0.34602000  0.20302000  0.95934000  1.0 -0.4673434944
O  O134  1  0.74368000  0.38668000  0.54066000  1.0 -0.4673434944
O  O135  1  0.15398000  0.11332000  0.85700000  1.0 -0.4673434944
O  O136  1  0.75632000  0.29698000  0.64300000  1.0 -0.4673434944
O  O137  1  0.29698000  0.64300000  0.75632000  1.0 -0.4673434944
O  O138  1  0.11332000  0.85700000  0.15398000  1.0 -0.4673434944
O  O139  1  0.38668000  0.54066000  0.74368000  1.0 -0.4673434944
O  O140  1  0.20302000  0.95934000  0.34602000  1.0 -0.4673434944
O  O141  1  0.85700000  0.15398000  0.11332000  1.0 -0.4673434944
O  O142  1  0.64300000  0.75632000  0.29698000  1.0 -0.4673434944
O  O143  1  0.95934000  0.34602000  0.20302000  1.0 -0.4673434944
O  O144  1  0.54066000  0.74368000  0.38668000  1.0 -0.4673434944
O  O145  1  0.83367000  0.23186000  0.97975000  1.0 -0.4926440683
O  O146  1  0.75211000  0.85392000  0.52025000  1.0 -0.4926440683
O  O147  1  0.74789000  0.26814000  0.10181000  1.0 -0.4926440683
O  O148  1  0.66633000  0.64608000  0.39819000  1.0 -0.4926440683
O  O149  1  0.97975000  0.83367000  0.23186000  1.0 -0.4926440683
O  O150  1  0.52025000  0.75211000  0.85392000  1.0 -0.4926440683
O  O151  1  0.10181000  0.74789000  0.26814000  1.0 -0.4926440683
O  O152  1  0.39819000  0.66633000  0.64608000  1.0 -0.4926440683
O  O153  1  0.23186000  0.97975000  0.83367000  1.0 -0.4926440683
O  O154  1  0.85392000  0.52025000  0.75211000  1.0 -0.4926440683
O  O155  1  0.26814000  0.10181000  0.74789000  1.0 -0.4926440683
O  O156  1  0.64608000  0.39819000  0.66633000  1.0 -0.4926440683
O  O157  1  0.64608000  0.74789000  0.97975000  1.0 -0.4926440683
O  O158  1  0.26814000  0.66633000  0.52025000  1.0 -0.4926440683
O  O159  1  0.85392000  0.83367000  0.10181000  1.0 -0.4926440683
O  O160  1  0.23186000  0.75211000  0.39819000  1.0 -0.4926440683
O  O161  1  0.75211000  0.39819000  0.23186000  1.0 -0.4926440683
O  O162  1  0.83367000  0.10181000  0.85392000  1.0 -0.4926440683
O  O163  1  0.66633000  0.52025000  0.26814000  1.0 -0.4926440683
O  O164  1  0.74789000  0.97975000  0.64608000  1.0 -0.4926440683
O  O165  1  0.10181000  0.85392000  0.83367000  1.0 -0.4926440683
O  O166  1  0.39819000  0.23186000  0.75211000  1.0 -0.4926440683
O  O167  1  0.97975000  0.64608000  0.74789000  1.0 -0.4926440683
O  O168  1  0.52025000  0.26814000  0.66633000  1.0 -0.4926440683
O  O169  1  0.16633000  0.76814000  0.02025000  1.0 -0.4926440683
O  O170  1  0.24789000  0.14608000  0.47975000  1.0 -0.4926440683
O  O171  1  0.25211000  0.73186000  0.89819000  1.0 -0.4926440683
O  O172  1  0.33367000  0.35392000  0.60181000  1.0 -0.4926440683
O  O173  1  0.02025000  0.16633000  0.76814000  1.0 -0.4926440683
O  O174  1  0.47975000  0.24789000  0.14608000  1.0 -0.4926440683
O  O175  1  0.89819000  0.25211000  0.73186000  1.0 -0.4926440683
O  O176  1  0.60181000  0.33367000  0.35392000  1.0 -0.4926440683
O  O177  1  0.76814000  0.02025000  0.16633000  1.0 -0.4926440683
O  O178  1  0.14608000  0.47975000  0.24789000  1.0 -0.4926440683
O  O179  1  0.73186000  0.89819000  0.25211000  1.0 -0.4926440683
O  O180  1  0.35392000  0.60181000  0.33367000  1.0 -0.4926440683
O  O181  1  0.35392000  0.25211000  0.02025000  1.0 -0.4926440683
O  O182  1  0.73186000  0.33367000  0.47975000  1.0 -0.4926440683
O  O183  1  0.14608000  0.16633000  0.89819000  1.0 -0.4926440683
O  O184  1  0.76814000  0.24789000  0.60181000  1.0 -0.4926440683
O  O185  1  0.24789000  0.60181000  0.76814000  1.0 -0.4926440683
O  O186  1  0.16633000  0.89819000  0.14608000  1.0 -0.4926440683
O  O187  1  0.33367000  0.47975000  0.73186000  1.0 -0.4926440683
O  O188  1  0.25211000  0.02025000  0.35392000  1.0 -0.4926440683
O  O189  1  0.89819000  0.14608000  0.16633000  1.0 -0.4926440683
O  O190  1  0.60181000  0.76814000  0.24789000  1.0 -0.4926440683
O  O191  1  0.02025000  0.35392000  0.25211000  1.0 -0.4926440683
O  O192  1  0.47975000  0.73186000  0.33367000  1.0 -0.4926440683
