# DDEC6 charges by PACMAN v1.1 (https://github.com/mtap-research/PACMAN-charge/)
data_INIROO_FSR_pacman
_symmetry_space_group_name_H-M   'P 1'
_cell_length_a   18.85420000
_cell_length_b   18.07340000
_cell_length_c   19.54090000
_cell_angle_alpha   90.00000000
_cell_angle_beta   94.77100000
_cell_angle_gamma   90.00000000
_symmetry_Int_Tables_number   1
_chemical_formula_structural   Dy5Ge7H35C24NO37
_chemical_formula_sum   'Dy20 Ge28 H140 C96 N4 O148'
_cell_volume   6635.67528506
_cell_formula_units_Z   4
loop_
 _symmetry_equiv_pos_site_id
 _symmetry_equiv_pos_as_xyz
  1  'x, y, z'
loop_
 _atom_site_type_symbol
 _atom_site_label
 _atom_site_symmetry_multiplicity
 _atom_site_fract_x
 _atom_site_fract_y
 _atom_site_fract_z
 _atom_site_occupancy
 _atom_site_charge
Dy  Dy1  1  0.69444000  0.47628000  0.99146000  1.0 2.2185860423
Dy  Dy2  1  0.30556000  0.97628000  0.50854000  1.0 2.2185860423
Dy  Dy3  1  0.30556000  0.52372000  0.00854000  1.0 2.2185860423
Dy  Dy4  1  0.69444000  0.02372000  0.49146000  1.0 2.2185860423
Dy  Dy5  1  0.60359000  0.61034000  0.87312000  1.0 2.2107726482
Dy  Dy6  1  0.39641000  0.11034000  0.62688000  1.0 2.2107726482
Dy  Dy7  1  0.39641000  0.38966000  0.12688000  1.0 2.2107726482
Dy  Dy8  1  0.60359000  0.88966000  0.37312000  1.0 2.2107726482
Dy  Dy9  1  0.59562000  0.36540000  0.11408000  1.0 2.2014132289
Dy  Dy10  1  0.40438000  0.86540000  0.38592000  1.0 2.2014132289
Dy  Dy11  1  0.40438000  0.63460000  0.88592000  1.0 2.2014132289
Dy  Dy12  1  0.59562000  0.13460000  0.61408000  1.0 2.2014132289
Dy  Dy13  1  0.88883000  0.43665000  0.99651000  1.0 2.0621667651
Dy  Dy14  1  0.11117000  0.93665000  0.50349000  1.0 2.0621667651
Dy  Dy15  1  0.11117000  0.56335000  0.00349000  1.0 2.0621667651
Dy  Dy16  1  0.88883000  0.06335000  0.49651000  1.0 2.0621667651
Dy  Dy17  1  0.55053000  0.67998000  0.14657000  1.0 2.0493257789
Dy  Dy18  1  0.44947000  0.17998000  0.35343000  1.0 2.0493257789
Dy  Dy19  1  0.44947000  0.32002000  0.85343000  1.0 2.0493257789
Dy  Dy20  1  0.55053000  0.82002000  0.64657000  1.0 2.0493257789
Ge  Ge1  1  0.37747000  0.58332000  0.16996000  1.0 1.4878854065
Ge  Ge2  1  0.62253000  0.08332000  0.33004000  1.0 1.4878854065
Ge  Ge3  1  0.62253000  0.41668000  0.83004000  1.0 1.4878854065
Ge  Ge4  1  0.37747000  0.91668000  0.66996000  1.0 1.4878854065
Ge  Ge5  1  0.39460000  0.70109000  0.05033000  1.0 1.4701241849
Ge  Ge6  1  0.60540000  0.20109000  0.44967000  1.0 1.4701241849
Ge  Ge7  1  0.60540000  0.29891000  0.94967000  1.0 1.4701241849
Ge  Ge8  1  0.39460000  0.79891000  0.55033000  1.0 1.4701241849
Ge  Ge9  1  0.54123000  0.74172000  0.98358000  1.0 1.4701241849
Ge  Ge10  1  0.45877000  0.24172000  0.51642000  1.0 1.4701241849
Ge  Ge11  1  0.45877000  0.25828000  0.01642000  1.0 1.4701241849
Ge  Ge12  1  0.54123000  0.75828000  0.48358000  1.0 1.4701241849
Ge  Ge13  1  0.68719000  0.65679000  0.04739000  1.0 1.4878854065
Ge  Ge14  1  0.31281000  0.15679000  0.45261000  1.0 1.4807557611
Ge  Ge15  1  0.31281000  0.34321000  0.95261000  1.0 1.4807557611
Ge  Ge16  1  0.68719000  0.84321000  0.54739000  1.0 1.4878854065
Ge  Ge17  1  0.66447000  0.53559000  0.16694000  1.0 1.4807557611
Ge  Ge18  1  0.33553000  0.03559000  0.33306000  1.0 1.4807557611
Ge  Ge19  1  0.33553000  0.46441000  0.83306000  1.0 1.4807557611
Ge  Ge20  1  0.66447000  0.96441000  0.66694000  1.0 1.4807557611
Ge  Ge21  1  0.51996000  0.49549000  0.23064000  1.0 1.5037184505
Ge  Ge22  1  0.48004000  0.99549000  0.26936000  1.0 1.5037184505
Ge  Ge23  1  0.48004000  0.50451000  0.76936000  1.0 1.5037184505
Ge  Ge24  1  0.51996000  0.00451000  0.73064000  1.0 1.5037184505
Ge  Ge25  1  0.81006000  0.56899000  0.87594000  1.0 1.4878854065
Ge  Ge26  1  0.18994000  0.06899000  0.62406000  1.0 1.4878854065
Ge  Ge27  1  0.18994000  0.43101000  0.12406000  1.0 1.4878854065
Ge  Ge28  1  0.81006000  0.93101000  0.37594000  1.0 1.4878854065
H  H1  1  0.90630000  0.26650000  0.02510000  1.0 0.3132925777
H  H2  1  0.09370000  0.76650000  0.47490000  1.0 0.3132925777
H  H3  1  0.09370000  0.73350000  0.97490000  1.0 0.3132925777
H  H4  1  0.90630000  0.23350000  0.52510000  1.0 0.3132925777
H  H5  1  0.87650000  0.64830000  0.93500000  1.0 0.3899121208
H  H6  1  0.12350000  0.14830000  0.56500000  1.0 0.3899121208
H  H7  1  0.12350000  0.35170000  0.06500000  1.0 0.3899121208
H  H8  1  0.87650000  0.85170000  0.43500000  1.0 0.3899121208
H  H9  1  0.72530000  0.60880000  0.79020000  1.0 0.4070956854
H  H10  1  0.27470000  0.10880000  0.70980000  1.0 0.4070956854
H  H11  1  0.27470000  0.39120000  0.20980000  1.0 0.4070956854
H  H12  1  0.72530000  0.89120000  0.29020000  1.0 0.4070956854
H  H13  1  0.31910000  0.62060000  0.26830000  1.0 0.1705322562
H  H14  1  0.68090000  0.12060000  0.23170000  1.0 0.1705322562
H  H15  1  0.68090000  0.37940000  0.73170000  1.0 0.1705322562
H  H16  1  0.31910000  0.87940000  0.76830000  1.0 0.1705322562
H  H17  1  0.27770000  0.55420000  0.23290000  1.0 0.1225465818
H  H18  1  0.72230000  0.05420000  0.26710000  1.0 0.1225465818
H  H19  1  0.72230000  0.44580000  0.76710000  1.0 0.1225465818
H  H20  1  0.27770000  0.94580000  0.73290000  1.0 0.1225465818
H  H21  1  0.19890000  0.64740000  0.22020000  1.0 0.1490213323
H  H22  1  0.80110000  0.14740000  0.27980000  1.0 0.1490213323
H  H23  1  0.80110000  0.35260000  0.77980000  1.0 0.1490213323
H  H24  1  0.19890000  0.85260000  0.72020000  1.0 0.1490213323
H  H25  1  0.25700000  0.70510000  0.20210000  1.0 0.1579316611
H  H26  1  0.74300000  0.20510000  0.29790000  1.0 0.1579316611
H  H27  1  0.74300000  0.29490000  0.79790000  1.0 0.1579316611
H  H28  1  0.25700000  0.79490000  0.70210000  1.0 0.1579316611
H  H29  1  0.33160000  0.80000000  0.10130000  1.0 0.1579316611
H  H30  1  0.66840000  0.30000000  0.39870000  1.0 0.1579316611
H  H31  1  0.66840000  0.20000000  0.89870000  1.0 0.1579316611
H  H32  1  0.33160000  0.70000000  0.60130000  1.0 0.1579316611
H  H33  1  0.28080000  0.76210000  0.04410000  1.0 0.1579316611
H  H34  1  0.71920000  0.26210000  0.45590000  1.0 0.1579316611
H  H35  1  0.71920000  0.23790000  0.95590000  1.0 0.1579316611
H  H36  1  0.28080000  0.73790000  0.54410000  1.0 0.1579316611
H  H37  1  0.29860000  0.87390000  0.99800000  1.0 0.1490213323
H  H38  1  0.70140000  0.37390000  0.50200000  1.0 0.1490213323
H  H39  1  0.70140000  0.12610000  0.00200000  1.0 0.1490213323
H  H40  1  0.29860000  0.62610000  0.49800000  1.0 0.1490213323
H  H41  1  0.37910000  0.87610000  0.02610000  1.0 0.1315463854
H  H42  1  0.62090000  0.37610000  0.47390000  1.0 0.1315463854
H  H43  1  0.62090000  0.12390000  0.97390000  1.0 0.1315463854
H  H44  1  0.37910000  0.62390000  0.52610000  1.0 0.1315463854
H  H45  1  0.53690000  0.87670000  0.97450000  1.0 0.1490213323
H  H46  1  0.46310000  0.37670000  0.52550000  1.0 0.1490213323
H  H47  1  0.46310000  0.12330000  0.02550000  1.0 0.1490213323
H  H48  1  0.53690000  0.62330000  0.47450000  1.0 0.1490213323
H  H49  1  0.52250000  0.84280000  0.90070000  1.0 0.1705322562
H  H50  1  0.47750000  0.34280000  0.59930000  1.0 0.1705322562
H  H51  1  0.47750000  0.15720000  0.09930000  1.0 0.1705322562
H  H52  1  0.52250000  0.65720000  0.40070000  1.0 0.1705322562
H  H53  1  0.65710000  0.86460000  0.97260000  1.0 0.1225465818
H  H54  1  0.34290000  0.36460000  0.52740000  1.0 0.1225465818
H  H55  1  0.34290000  0.13540000  0.02740000  1.0 0.1225465818
H  H56  1  0.65710000  0.63540000  0.47260000  1.0 0.1225465818
H  H57  1  0.63100000  0.89930000  0.90160000  1.0 0.1315463854
H  H58  1  0.36900000  0.39930000  0.59840000  1.0 0.1315463854
H  H59  1  0.36900000  0.10070000  0.09840000  1.0 0.1315463854
H  H60  1  0.63100000  0.60070000  0.40160000  1.0 0.1315463854
H  H61  1  0.76520000  0.75920000  0.08360000  1.0 0.1490213323
H  H62  1  0.23480000  0.25920000  0.41640000  1.0 0.1490213323
H  H63  1  0.23480000  0.24080000  0.91640000  1.0 0.1490213323
H  H64  1  0.76520000  0.74080000  0.58360000  1.0 0.1490213323
H  H65  1  0.78240000  0.73390000  0.00990000  1.0 0.1410669057
H  H66  1  0.21760000  0.23390000  0.49010000  1.0 0.1410669057
H  H67  1  0.21760000  0.26610000  0.99010000  1.0 0.1410669057
H  H68  1  0.78240000  0.76610000  0.50990000  1.0 0.1410669057
H  H69  1  0.84010000  0.67840000  0.13600000  1.0 0.1410669057
H  H70  1  0.15990000  0.17840000  0.36400000  1.0 0.1410669057
H  H71  1  0.15990000  0.32160000  0.86400000  1.0 0.1410669057
H  H72  1  0.84010000  0.82160000  0.63600000  1.0 0.1410669057
H  H73  1  0.87970000  0.69190000  0.06970000  1.0 0.1579316611
H  H74  1  0.12030000  0.19190000  0.43030000  1.0 0.1579316611
H  H75  1  0.12030000  0.30810000  0.93030000  1.0 0.1579316611
H  H76  1  0.87970000  0.80810000  0.56970000  1.0 0.1579316611
H  H77  1  0.76270000  0.57610000  0.24610000  1.0 0.1410669057
H  H78  1  0.23730000  0.07610000  0.25390000  1.0 0.1410669057
H  H79  1  0.23730000  0.42390000  0.75390000  1.0 0.1410669057
H  H80  1  0.76270000  0.92390000  0.74610000  1.0 0.1410669057
H  H81  1  0.79060000  0.51650000  0.19680000  1.0 0.1705322562
H  H82  1  0.20940000  0.01650000  0.30320000  1.0 0.1705322562
H  H83  1  0.20940000  0.48350000  0.80320000  1.0 0.1705322562
H  H84  1  0.79060000  0.98350000  0.69680000  1.0 0.1705322562
H  H85  1  0.79910000  0.45200000  0.29300000  1.0 0.1490213323
H  H86  1  0.20090000  0.95200000  0.20700000  1.0 0.1490213323
H  H87  1  0.20090000  0.54800000  0.70700000  1.0 0.1490213323
H  H88  1  0.79910000  0.04800000  0.79300000  1.0 0.1490213323
H  H89  1  0.73530000  0.49320000  0.32270000  1.0 0.1315463854
H  H90  1  0.26470000  0.99320000  0.17730000  1.0 0.1315463854
H  H91  1  0.26470000  0.50680000  0.67730000  1.0 0.1315463854
H  H92  1  0.73530000  0.00680000  0.82270000  1.0 0.1315463854
H  H93  1  0.55170000  0.49550000  0.35520000  1.0 0.1490213323
H  H94  1  0.44830000  0.99550000  0.14480000  1.0 0.1490213323
H  H95  1  0.44830000  0.50450000  0.64480000  1.0 0.1490213323
H  H96  1  0.55170000  0.00450000  0.85520000  1.0 0.1490213323
H  H97  1  0.57090000  0.41770000  0.32560000  1.0 0.1490213323
H  H98  1  0.42910000  0.91770000  0.17440000  1.0 0.1490213323
H  H99  1  0.42910000  0.58230000  0.67440000  1.0 0.1490213323
H  H100  1  0.57090000  0.08230000  0.82560000  1.0 0.1490213323
H  H101  1  0.46840000  0.41340000  0.39170000  1.0 0.1410669057
H  H102  1  0.53160000  0.91340000  0.10830000  1.0 0.1410669057
H  H103  1  0.53160000  0.58660000  0.60830000  1.0 0.1410669057
H  H104  1  0.46840000  0.08660000  0.89170000  1.0 0.1410669057
H  H105  1  0.42790000  0.46360000  0.33590000  1.0 0.1490213323
H  H106  1  0.57210000  0.96360000  0.16410000  1.0 0.1490213323
H  H107  1  0.57210000  0.53640000  0.66410000  1.0 0.1490213323
H  H108  1  0.42790000  0.03640000  0.83590000  1.0 0.1490213323
H  H109  1  0.84660000  0.55350000  0.76050000  1.0 0.1410669057
H  H110  1  0.15340000  0.05350000  0.73950000  1.0 0.1410669057
H  H111  1  0.15340000  0.44650000  0.23950000  1.0 0.1410669057
H  H112  1  0.84660000  0.94650000  0.26050000  1.0 0.1410669057
H  H113  1  0.86870000  0.48280000  0.80370000  1.0 0.1705322562
H  H114  1  0.13130000  0.98280000  0.69630000  1.0 0.1705322562
H  H115  1  0.13130000  0.51720000  0.19630000  1.0 0.1705322562
H  H116  1  0.86870000  0.01720000  0.30370000  1.0 0.1705322562
H  H117  1  0.94310000  0.61890000  0.80890000  1.0 0.1315463854
H  H118  1  0.05690000  0.11890000  0.69110000  1.0 0.1315463854
H  H119  1  0.05690000  0.38110000  0.19110000  1.0 0.1315463854
H  H120  1  0.94310000  0.88110000  0.30890000  1.0 0.1315463854
H  H121  1  0.97180000  0.54430000  0.78140000  1.0 0.1490213323
H  H122  1  0.02820000  0.04430000  0.71860000  1.0 0.1490213323
H  H123  1  0.02820000  0.45570000  0.21860000  1.0 0.1490213323
H  H124  1  0.97180000  0.95570000  0.28140000  1.0 0.1490213323
H  H125  1  0.86570000  0.19430000  0.14030000  1.0 0.1225465818
H  H126  1  0.13430000  0.69430000  0.35970000  1.0 0.1225465818
H  H127  1  0.13430000  0.80570000  0.85970000  1.0 0.1225465818
H  H128  1  0.86570000  0.30570000  0.64030000  1.0 0.1225465818
H  H129  1  0.81400000  0.23840000  0.18410000  1.0 0.1225465818
H  H130  1  0.18600000  0.73840000  0.31590000  1.0 0.1225465818
H  H131  1  0.18600000  0.76160000  0.81590000  1.0 0.1225465818
H  H132  1  0.81400000  0.26160000  0.68410000  1.0 0.1225465818
H  H133  1  0.78510000  0.20170000  0.11460000  1.0 0.1315463854
H  H134  1  0.21490000  0.70170000  0.38540000  1.0 0.1315463854
H  H135  1  0.21490000  0.79830000  0.88540000  1.0 0.1315463854
H  H136  1  0.78510000  0.29830000  0.61460000  1.0 0.1315463854
H  H137  1  0.87230000  0.32210000  0.13550000  1.0 0.1040348856
H  H138  1  0.12770000  0.82210000  0.36450000  1.0 0.1040348856
H  H139  1  0.12770000  0.67790000  0.86450000  1.0 0.1040348856
H  H140  1  0.87230000  0.17790000  0.63550000  1.0 0.1040348856
C  C1  1  0.29980000  0.60140000  0.22430000  1.0 -0.5005451889
C  C2  1  0.70020000  0.10140000  0.27570000  1.0 -0.5005451889
C  C3  1  0.70020000  0.39860000  0.77570000  1.0 -0.5005451889
C  C4  1  0.29980000  0.89860000  0.72430000  1.0 -0.5005451889
C  C5  1  0.24120000  0.65430000  0.19590000  1.0 -0.2795939944
C  C6  1  0.75880000  0.15430000  0.30410000  1.0 -0.2795939944
C  C7  1  0.75880000  0.34570000  0.80410000  1.0 -0.2795939944
C  C8  1  0.24120000  0.84570000  0.69590000  1.0 -0.2795939944
C  C9  1  0.22450000  0.63790000  0.11940000  1.0 0.6694179324
C  C10  1  0.77550000  0.13790000  0.38060000  1.0 0.6694179324
C  C11  1  0.77550000  0.36210000  0.88060000  1.0 0.6694179324
C  C12  1  0.22450000  0.86210000  0.61940000  1.0 0.6694179324
C  C13  1  0.32860000  0.78090000  0.05470000  1.0 -0.4903134929
C  C14  1  0.67140000  0.28090000  0.44530000  1.0 -0.4903134929
C  C15  1  0.67140000  0.21910000  0.94530000  1.0 -0.4903134929
C  C16  1  0.32860000  0.71910000  0.55470000  1.0 -0.4903134929
C  C17  1  0.34160000  0.84450000  0.00560000  1.0 -0.2710134836
C  C18  1  0.65840000  0.34450000  0.49440000  1.0 -0.2710134836
C  C19  1  0.65840000  0.15550000  0.99440000  1.0 -0.2710134836
C  C20  1  0.34160000  0.65550000  0.50560000  1.0 -0.2710134836
C  C21  1  0.36300000  0.81540000  0.93650000  1.0 0.6300231812
C  C22  1  0.63700000  0.31540000  0.56350000  1.0 0.6300231812
C  C23  1  0.63700000  0.18460000  0.06350000  1.0 0.6300231812
C  C24  1  0.36300000  0.68460000  0.43650000  1.0 0.6300231812
C  C25  1  0.55250000  0.83930000  0.94340000  1.0 -0.5094574891
C  C26  1  0.44750000  0.33930000  0.55660000  1.0 -0.5094574891
C  C27  1  0.44750000  0.16070000  0.05660000  1.0 -0.5094574891
C  C28  1  0.55250000  0.66070000  0.44340000  1.0 -0.5094574891
C  C29  1  0.62980000  0.85480000  0.92900000  1.0 -0.2522634568
C  C30  1  0.37020000  0.35480000  0.57100000  1.0 -0.2522634568
C  C31  1  0.37020000  0.14520000  0.07100000  1.0 -0.2522634568
C  C32  1  0.62980000  0.64520000  0.42900000  1.0 -0.2522634568
C  C33  1  0.66620000  0.79250000  0.89260000  1.0 0.5069775132
C  C34  1  0.33380000  0.29250000  0.60740000  1.0 0.5069775132
C  C35  1  0.33380000  0.20750000  0.10740000  1.0 0.5069775132
C  C36  1  0.66620000  0.70750000  0.39260000  1.0 0.5069775132
C  C37  1  0.77260000  0.71640000  0.05510000  1.0 -0.5381851794
C  C38  1  0.22740000  0.21640000  0.44490000  1.0 -0.5381851794
C  C39  1  0.22740000  0.28360000  0.94490000  1.0 -0.5381851794
C  C40  1  0.77260000  0.78360000  0.55510000  1.0 -0.5381851794
C  C41  1  0.83650000  0.67230000  0.08650000  1.0 -0.2795939944
C  C42  1  0.16350000  0.17230000  0.41350000  1.0 -0.2795939944
C  C43  1  0.16350000  0.32770000  0.91350000  1.0 -0.2795939944
C  C44  1  0.83650000  0.82770000  0.58650000  1.0 -0.2795939944
C  C45  1  0.83050000  0.59000000  0.06920000  1.0 0.6788049487
C  C46  1  0.16950000  0.09000000  0.43080000  1.0 0.6788049487
C  C47  1  0.16950000  0.41000000  0.93080000  1.0 0.6788049487
C  C48  1  0.83050000  0.91000000  0.56920000  1.0 0.6788049487
C  C49  1  0.75230000  0.52830000  0.22520000  1.0 -0.5005451889
C  C50  1  0.24770000  0.02830000  0.27480000  1.0 -0.5005451889
C  C51  1  0.24770000  0.47170000  0.77480000  1.0 -0.5005451889
C  C52  1  0.75230000  0.97170000  0.72520000  1.0 -0.5005451889
C  C53  1  0.75100000  0.47020000  0.28180000  1.0 -0.2710134836
C  C54  1  0.24900000  0.97020000  0.21820000  1.0 -0.2710134836
C  C55  1  0.24900000  0.52980000  0.71820000  1.0 -0.2710134836
C  C56  1  0.75100000  0.02980000  0.78180000  1.0 -0.2710134836
C  C57  1  0.70230000  0.40500000  0.26110000  1.0 0.6485422401
C  C58  1  0.29770000  0.90500000  0.23890000  1.0 0.6485422401
C  C59  1  0.29770000  0.59500000  0.73890000  1.0 0.6485422401
C  C60  1  0.70230000  0.09500000  0.76110000  1.0 0.6485422401
C  C61  1  0.53530000  0.45650000  0.32370000  1.0 -0.5094574891
C  C62  1  0.46470000  0.95650000  0.17630000  1.0 -0.5094574891
C  C63  1  0.46470000  0.54350000  0.67630000  1.0 -0.5094574891
C  C64  1  0.53530000  0.04350000  0.82370000  1.0 -0.5094574891
C  C65  1  0.46420000  0.42600000  0.34300000  1.0 -0.2916517707
C  C66  1  0.53580000  0.92600000  0.15700000  1.0 -0.2916517707
C  C67  1  0.53580000  0.57400000  0.65700000  1.0 -0.2916517707
C  C68  1  0.46420000  0.07400000  0.84300000  1.0 -0.2916517707
C  C69  1  0.44100000  0.35670000  0.30200000  1.0 0.6954628227
C  C70  1  0.55900000  0.85670000  0.19800000  1.0 0.6954628227
C  C71  1  0.55900000  0.64330000  0.69800000  1.0 0.6954628227
C  C72  1  0.44100000  0.14330000  0.80200000  1.0 0.6954628227
C  C73  1  0.86780000  0.53640000  0.80460000  1.0 -0.5381851794
C  C74  1  0.13220000  0.03640000  0.69540000  1.0 -0.5381851794
C  C75  1  0.13220000  0.46360000  0.19540000  1.0 -0.5381851794
C  C76  1  0.86780000  0.96360000  0.30460000  1.0 -0.5381851794
C  C77  1  0.94410000  0.56570000  0.81600000  1.0 -0.2795939944
C  C78  1  0.05590000  0.06570000  0.68400000  1.0 -0.2795939944
C  C79  1  0.05590000  0.43430000  0.18400000  1.0 -0.2795939944
C  C80  1  0.94410000  0.93430000  0.31600000  1.0 -0.2795939944
C  C81  1  0.98200000  0.54990000  0.88660000  1.0 0.6788049487
C  C82  1  0.01800000  0.04990000  0.61340000  1.0 0.6788049487
C  C83  1  0.01800000  0.45010000  0.11340000  1.0 0.6788049487
C  C84  1  0.98200000  0.95010000  0.38660000  1.0 0.6788049487
C  C85  1  0.82500000  0.22600000  0.13800000  1.0 -0.394643143
C  C86  1  0.17500000  0.72600000  0.36200000  1.0 -0.394643143
C  C87  1  0.17500000  0.77400000  0.86200000  1.0 -0.394643143
C  C88  1  0.82500000  0.27400000  0.63800000  1.0 -0.394643143
C  C89  1  0.84130000  0.29710000  0.10000000  1.0 0.0724131985
C  C90  1  0.15870000  0.79710000  0.40000000  1.0 0.0724131985
C  C91  1  0.15870000  0.70290000  0.90000000  1.0 0.0724131985
C  C92  1  0.84130000  0.20290000  0.60000000  1.0 0.0724131985
C  C93  1  0.77790000  0.34950000  0.09530000  1.0 0.6300231812
C  C94  1  0.22210000  0.84950000  0.40470000  1.0 0.6300231812
C  C95  1  0.22210000  0.65050000  0.90470000  1.0 0.6300231812
C  C96  1  0.77790000  0.15050000  0.59530000  1.0 0.6300231812
N  N1  1  0.88460000  0.30320000  0.04210000  1.0 -0.6893142315
N  N2  1  0.11540000  0.80320000  0.45790000  1.0 -0.6893142315
N  N3  1  0.11540000  0.69680000  0.95790000  1.0 -0.6893142315
N  N4  1  0.88460000  0.19680000  0.54210000  1.0 -0.6893142315
O  O1  1  0.41830000  0.66450000  0.13800000  1.0 -0.8042740675
O  O2  1  0.58170000  0.16450000  0.36200000  1.0 -0.8042740675
O  O3  1  0.58170000  0.33550000  0.86200000  1.0 -0.8042740675
O  O4  1  0.41830000  0.83550000  0.63800000  1.0 -0.8042740675
O  O5  1  0.48400000  0.73890000  0.05370000  1.0 -0.8527359294
O  O6  1  0.51600000  0.23890000  0.44630000  1.0 -0.8527359294
O  O7  1  0.51600000  0.26110000  0.94630000  1.0 -0.8527359294
O  O8  1  0.48400000  0.76110000  0.55370000  1.0 -0.8527359294
O  O9  1  0.61500000  0.72570000  0.04480000  1.0 -0.8278758379
O  O10  1  0.38500000  0.22570000  0.45520000  1.0 -0.8278758379
O  O11  1  0.38500000  0.27430000  0.95520000  1.0 -0.8278758379
O  O12  1  0.61500000  0.77430000  0.54480000  1.0 -0.8278758379
O  O13  1  0.66050000  0.62880000  0.13170000  1.0 -0.8396236749
O  O14  1  0.33950000  0.12880000  0.36830000  1.0 -0.8396236749
O  O15  1  0.33950000  0.37120000  0.86830000  1.0 -0.8396236749
O  O16  1  0.66050000  0.87120000  0.63170000  1.0 -0.8396236749
O  O17  1  0.58490000  0.56030000  0.21030000  1.0 -0.7847465726
O  O18  1  0.41510000  0.06030000  0.28970000  1.0 -0.7847465726
O  O19  1  0.41510000  0.43970000  0.78970000  1.0 -0.7847465726
O  O20  1  0.58490000  0.93970000  0.71030000  1.0 -0.7847465726
O  O21  1  0.44740000  0.55850000  0.23380000  1.0 -0.7273781152
O  O22  1  0.55260000  0.05850000  0.26620000  1.0 -0.7273781152
O  O23  1  0.55260000  0.44150000  0.76620000  1.0 -0.7273781152
O  O24  1  0.44740000  0.94150000  0.73380000  1.0 -0.7273781152
O  O25  1  0.37380000  0.51090000  0.10970000  1.0 -1.079113886
O  O26  1  0.62620000  0.01090000  0.39030000  1.0 -1.079113886
O  O27  1  0.62620000  0.48910000  0.89030000  1.0 -1.079113886
O  O28  1  0.37380000  0.98910000  0.60970000  1.0 -1.079113886
O  O29  1  0.38520000  0.62130000  0.99820000  1.0 -1.0271139594
O  O30  1  0.61480000  0.12130000  0.50180000  1.0 -1.0271139594
O  O31  1  0.61480000  0.37870000  0.00180000  1.0 -1.0271139594
O  O32  1  0.38520000  0.87870000  0.49820000  1.0 -1.0271139594
O  O33  1  0.51680000  0.66880000  0.92910000  1.0 -1.0271139594
O  O34  1  0.48320000  0.16880000  0.57090000  1.0 -1.0271139594
O  O35  1  0.48320000  0.33120000  0.07090000  1.0 -1.0271139594
O  O36  1  0.51680000  0.83120000  0.42910000  1.0 -1.0271139594
O  O37  1  0.65940000  0.59760000  0.97880000  1.0 -1.079113886
O  O38  1  0.34060000  0.09760000  0.52120000  1.0 -1.079113886
O  O39  1  0.34060000  0.40240000  0.02120000  1.0 -1.079113886
O  O40  1  0.65940000  0.90240000  0.47880000  1.0 -1.079113886
O  O41  1  0.63980000  0.48330000  0.09410000  1.0 -0.9922664317
O  O42  1  0.36020000  0.98330000  0.40590000  1.0 -0.9922664317
O  O43  1  0.36020000  0.51670000  0.90590000  1.0 -0.9922664317
O  O44  1  0.63980000  0.01670000  0.59410000  1.0 -0.9922664317
O  O45  1  0.50840000  0.43240000  0.16370000  1.0 -1.0472665282
O  O46  1  0.49160000  0.93240000  0.33630000  1.0 -1.0472665282
O  O47  1  0.49160000  0.56760000  0.83630000  1.0 -1.0472665282
O  O48  1  0.50840000  0.06760000  0.66370000  1.0 -1.0472665282
O  O49  1  0.27700000  0.62520000  0.08500000  1.0 -0.6808592381
O  O50  1  0.72300000  0.12520000  0.41500000  1.0 -0.6808592381
O  O51  1  0.72300000  0.37480000  0.91500000  1.0 -0.6808592381
O  O52  1  0.27700000  0.87480000  0.58500000  1.0 -0.6808592381
O  O53  1  0.16270000  0.64020000  0.09490000  1.0 -0.5523696692
O  O54  1  0.83730000  0.14020000  0.40510000  1.0 -0.5523696692
O  O55  1  0.83730000  0.35980000  0.90510000  1.0 -0.5523696692
O  O56  1  0.16270000  0.85980000  0.59490000  1.0 -0.5523696692
O  O57  1  0.39310000  0.75350000  0.93900000  1.0 -0.6477309914
O  O58  1  0.60690000  0.25350000  0.56100000  1.0 -0.6477309914
O  O59  1  0.60690000  0.24650000  0.06100000  1.0 -0.6477309914
O  O60  1  0.39310000  0.74650000  0.43900000  1.0 -0.6477309914
O  O61  1  0.34960000  0.85170000  0.88460000  1.0 -0.4557524474
O  O62  1  0.65040000  0.35170000  0.61540000  1.0 -0.4557524474
O  O63  1  0.65040000  0.14830000  0.11540000  1.0 -0.4557524474
O  O64  1  0.34960000  0.64830000  0.38460000  1.0 -0.4557524474
O  O65  1  0.63600000  0.73380000  0.88010000  1.0 -0.6088196488
O  O66  1  0.36400000  0.23380000  0.61990000  1.0 -0.6088196488
O  O67  1  0.36400000  0.26620000  0.11990000  1.0 -0.6018493386
O  O68  1  0.63600000  0.76620000  0.38010000  1.0 -0.6088196488
O  O69  1  0.73600000  0.79900000  0.89000000  1.0 -0.0799382275
O  O70  1  0.26400000  0.29900000  0.61000000  1.0 -0.0799382275
O  O71  1  0.26400000  0.20100000  0.11000000  1.0 -0.0799382275
O  O72  1  0.73600000  0.70100000  0.39000000  1.0 -0.0799382275
O  O73  1  0.76800000  0.56210000  0.06800000  1.0 -0.6976149755
O  O74  1  0.23200000  0.06210000  0.43200000  1.0 -0.6976149755
O  O75  1  0.23200000  0.43790000  0.93200000  1.0 -0.6976149755
O  O76  1  0.76800000  0.93790000  0.56800000  1.0 -0.6976149755
O  O77  1  0.88500000  0.55270000  0.05900000  1.0 -0.5641162547
O  O78  1  0.11500000  0.05270000  0.44100000  1.0 -0.5641162547
O  O79  1  0.11500000  0.44730000  0.94100000  1.0 -0.5641162547
O  O80  1  0.88500000  0.94730000  0.55900000  1.0 -0.5641162547
O  O81  1  0.65120000  0.42130000  0.21850000  1.0 -0.670759842
O  O82  1  0.34880000  0.92130000  0.28150000  1.0 -0.670759842
O  O83  1  0.34880000  0.57870000  0.78150000  1.0 -0.670759842
O  O84  1  0.65120000  0.07870000  0.71850000  1.0 -0.670759842
O  O85  1  0.71290000  0.34210000  0.28810000  1.0 -0.4903134929
O  O86  1  0.28710000  0.84210000  0.21190000  1.0 -0.4903134929
O  O87  1  0.28710000  0.65790000  0.71190000  1.0 -0.4903134929
O  O88  1  0.71290000  0.15790000  0.78810000  1.0 -0.4903134929
O  O89  1  0.42120000  0.29590000  0.32150000  1.0 -0.5094574891
O  O90  1  0.57880000  0.79590000  0.17850000  1.0 -0.5094574891
O  O91  1  0.57880000  0.70410000  0.67850000  1.0 -0.5094574891
O  O92  1  0.42120000  0.20410000  0.82150000  1.0 -0.5094574891
O  O93  1  0.40600000  0.38010000  0.24850000  1.0 -0.6359219404
O  O94  1  0.59400000  0.88010000  0.25150000  1.0 -0.6359219404
O  O95  1  0.59400000  0.61990000  0.75150000  1.0 -0.6359219404
O  O96  1  0.40600000  0.11990000  0.74850000  1.0 -0.6359219404
O  O97  1  0.94770000  0.51740000  0.93060000  1.0 -0.6588364692
O  O98  1  0.05230000  0.01740000  0.56940000  1.0 -0.6588364692
O  O99  1  0.05230000  0.48260000  0.06940000  1.0 -0.6588364692
O  O100  1  0.94770000  0.98260000  0.43060000  1.0 -0.6588364692
O  O101  1  0.04190000  0.57400000  0.89670000  1.0 -0.5833650233
O  O102  1  0.95810000  0.07400000  0.60330000  1.0 -0.5833650233
O  O103  1  0.95810000  0.42600000  0.10330000  1.0 -0.5833650233
O  O104  1  0.04190000  0.92600000  0.39670000  1.0 -0.5833650233
O  O105  1  0.83920000  0.65430000  0.91090000  1.0 -0.6808592381
O  O106  1  0.16080000  0.15430000  0.58910000  1.0 -0.6808592381
O  O107  1  0.16080000  0.34570000  0.08910000  1.0 -0.6808592381
O  O108  1  0.83920000  0.84570000  0.41090000  1.0 -0.6808592381
O  O109  1  0.72340000  0.59670000  0.83630000  1.0 -0.8527359294
O  O110  1  0.27660000  0.09670000  0.66370000  1.0 -0.8527359294
O  O111  1  0.27660000  0.40330000  0.16370000  1.0 -0.8527359294
O  O112  1  0.72340000  0.90330000  0.33630000  1.0 -0.8527359294
O  O113  1  0.79520000  0.50810000  0.93950000  1.0 -1.021683857
O  O114  1  0.20480000  0.00810000  0.56050000  1.0 -1.021683857
O  O115  1  0.20480000  0.49190000  0.06050000  1.0 -1.021683857
O  O116  1  0.79520000  0.99190000  0.43950000  1.0 -1.021683857
O  O117  1  0.78490000  0.40570000  0.05290000  1.0 -0.7910252215
O  O118  1  0.21510000  0.90570000  0.44710000  1.0 -0.7910252215
O  O119  1  0.21510000  0.59430000  0.94710000  1.0 -0.7910252215
O  O120  1  0.78490000  0.09430000  0.55290000  1.0 -0.7910252215
O  O121  1  0.72070000  0.33540000  0.11890000  1.0 -0.6018493386
O  O122  1  0.27930000  0.83540000  0.38110000  1.0 -0.6018493386
O  O123  1  0.27930000  0.66460000  0.88110000  1.0 -0.6018493386
O  O124  1  0.72070000  0.16460000  0.61890000  1.0 -0.6018493386
O  O125  1  0.52130000  0.57990000  0.06880000  1.0 -0.6976149755
O  O126  1  0.47870000  0.07990000  0.43120000  1.0 -0.6976149755
O  O127  1  0.47870000  0.42010000  0.93120000  1.0 -0.6976149755
O  O128  1  0.52130000  0.92010000  0.56880000  1.0 -0.6976149755
O  O129  1  0.51270000  0.69070000  0.26150000  1.0 -0.6088196488
O  O130  1  0.48730000  0.19070000  0.23850000  1.0 -0.6088196488
O  O131  1  0.48730000  0.30930000  0.73850000  1.0 -0.6088196488
O  O132  1  0.51270000  0.80930000  0.76150000  1.0 -0.6088196488
O  O133  1  0.65600000  0.72700000  0.22500000  1.0 -0.3808385508
O  O134  1  0.34400000  0.22700000  0.27500000  1.0 -0.3808385508
O  O135  1  0.34400000  0.27300000  0.77500000  1.0 -0.3808385508
O  O136  1  0.65600000  0.77300000  0.72500000  1.0 -0.3808385508
O  O137  1  0.61280000  0.26610000  0.20540000  1.0 -0.3981854173
O  O138  1  0.38720000  0.76610000  0.29460000  1.0 -0.3981854173
O  O139  1  0.38720000  0.73390000  0.79460000  1.0 -0.3981854173
O  O140  1  0.61280000  0.23390000  0.70540000  1.0 -0.3981854173
O  O141  1  0.98840000  0.37010000  0.95770000  1.0 -0.4514344187
O  O142  1  0.01160000  0.87010000  0.54230000  1.0 -0.4514344187
O  O143  1  0.01160000  0.62990000  0.04230000  1.0 -0.4514344187
O  O144  1  0.98840000  0.12990000  0.45770000  1.0 -0.4514344187
O  O145  1  0.71100000  0.82100000  0.84900000  1.0 -0.0570307842
O  O146  1  0.28900000  0.32100000  0.65100000  1.0 -0.0570307842
O  O147  1  0.28900000  0.17900000  0.15100000  1.0 -0.0570307842
O  O148  1  0.71100000  0.67900000  0.34900000  1.0 -0.0570307842
