# DDEC6 charges by PACMAN v1.1 (https://github.com/mtap-research/PACMAN-charge/)
data_IPADOV_ASR_pacman
_symmetry_space_group_name_H-M   'P 1'
_cell_length_a   28.20600000
_cell_length_b   28.20600000
_cell_length_c   28.20600000
_cell_angle_alpha   90.00000000
_cell_angle_beta   90.00000000
_cell_angle_gamma   90.00000000
_symmetry_Int_Tables_number   1
_chemical_formula_structural   Zr3Mo4H40(C20O9)2
_chemical_formula_sum   'Zr18 Mo24 H240 C240 O108'
_cell_volume   22440.08536582
_cell_formula_units_Z   6
loop_
 _symmetry_equiv_pos_site_id
 _symmetry_equiv_pos_as_xyz
  1  'x, y, z'
loop_
 _atom_site_type_symbol
 _atom_site_label
 _atom_site_symmetry_multiplicity
 _atom_site_fract_x
 _atom_site_fract_y
 _atom_site_fract_z
 _atom_site_occupancy
 _atom_site_charge
Zr  Zr1  1  0.06298000  0.50000000  0.06298000  1.0 2.4053790451
Zr  Zr2  1  0.93702000  0.50000000  0.06298000  1.0 2.4053790451
Zr  Zr3  1  0.93702000  0.50000000  0.93702000  1.0 2.4041081378
Zr  Zr4  1  0.06298000  0.50000000  0.93702000  1.0 2.4053790451
Zr  Zr5  1  0.06298000  0.06298000  0.50000000  1.0 2.4053790451
Zr  Zr6  1  0.06298000  0.93702000  0.50000000  1.0 2.4053790451
Zr  Zr7  1  0.93702000  0.93702000  0.50000000  1.0 2.4041081378
Zr  Zr8  1  0.93702000  0.06298000  0.50000000  1.0 2.4041081378
Zr  Zr9  1  0.50000000  0.06298000  0.06298000  1.0 2.4053790451
Zr  Zr10  1  0.50000000  0.06298000  0.93702000  1.0 2.4041081378
Zr  Zr11  1  0.50000000  0.93702000  0.93702000  1.0 2.4041081378
Zr  Zr12  1  0.50000000  0.93702000  0.06298000  1.0 2.4053790451
Zr  Zr13  1  0.00000000  0.41279000  0.00000000  1.0 2.3908817876
Zr  Zr14  1  0.00000000  0.58721000  0.00000000  1.0 2.3908817876
Zr  Zr15  1  0.00000000  0.00000000  0.41279000  1.0 2.3908817876
Zr  Zr16  1  0.00000000  0.00000000  0.58721000  1.0 2.3908817876
Zr  Zr17  1  0.41279000  0.00000000  0.00000000  1.0 2.3908817876
Zr  Zr18  1  0.58721000  0.00000000  0.00000000  1.0 2.3908817876
Mo  Mo1  1  0.00000000  0.52060000  0.16920000  1.0 0.379387767
Mo  Mo2  1  0.00000000  0.47940000  0.16920000  1.0 0.379387767
Mo  Mo3  1  0.00000000  0.52060000  0.83080000  1.0 0.372046392
Mo  Mo4  1  0.00000000  0.47940000  0.83080000  1.0 0.372046392
Mo  Mo5  1  0.16920000  0.00000000  0.52060000  1.0 0.379387767
Mo  Mo6  1  0.16920000  0.00000000  0.47940000  1.0 0.379387767
Mo  Mo7  1  0.83080000  0.00000000  0.52060000  1.0 0.372046392
Mo  Mo8  1  0.83080000  0.00000000  0.47940000  1.0 0.372046392
Mo  Mo9  1  0.52060000  0.16920000  0.00000000  1.0 0.379387767
Mo  Mo10  1  0.47940000  0.16920000  0.00000000  1.0 0.379387767
Mo  Mo11  1  0.52060000  0.83080000  0.00000000  1.0 0.372046392
Mo  Mo12  1  0.47940000  0.83080000  0.00000000  1.0 0.372046392
Mo  Mo13  1  0.52060000  0.00000000  0.83080000  1.0 0.372046392
Mo  Mo14  1  0.47940000  0.00000000  0.83080000  1.0 0.372046392
Mo  Mo15  1  0.52060000  0.00000000  0.16920000  1.0 0.379387767
Mo  Mo16  1  0.47940000  0.00000000  0.16920000  1.0 0.379387767
Mo  Mo17  1  0.00000000  0.16920000  0.47940000  1.0 0.379387767
Mo  Mo18  1  0.00000000  0.16920000  0.52060000  1.0 0.379387767
Mo  Mo19  1  0.00000000  0.83080000  0.47940000  1.0 0.372046392
Mo  Mo20  1  0.00000000  0.83080000  0.52060000  1.0 0.372046392
Mo  Mo21  1  0.16920000  0.52060000  0.00000000  1.0 0.379387767
Mo  Mo22  1  0.16920000  0.47940000  0.00000000  1.0 0.379387767
Mo  Mo23  1  0.83080000  0.52060000  0.00000000  1.0 0.372046392
Mo  Mo24  1  0.83080000  0.47940000  0.00000000  1.0 0.372046392
H  H1  1  0.27187000  0.75824000  0.11421000  1.0 0.0314668349
H  H2  1  0.23170000  0.78374000  0.08331000  1.0 0.0539723782
H  H3  1  0.22291000  0.73154000  0.10373000  1.0 0.0386191445
H  H4  1  0.72813000  0.24176000  0.11421000  1.0 0.0314668349
H  H5  1  0.76830000  0.21626000  0.08331000  1.0 0.0539723782
H  H6  1  0.77709000  0.26846000  0.10373000  1.0 0.0386191445
H  H7  1  0.72813000  0.75824000  0.88579000  1.0 0.0314668349
H  H8  1  0.76830000  0.78374000  0.91669000  1.0 0.0539723782
H  H9  1  0.77709000  0.73154000  0.89627000  1.0 0.0386191445
H  H10  1  0.27187000  0.24176000  0.88579000  1.0 0.0314668349
H  H11  1  0.23170000  0.21626000  0.91669000  1.0 0.0539723782
H  H12  1  0.22291000  0.26846000  0.89627000  1.0 0.0386191445
H  H13  1  0.11421000  0.27187000  0.75824000  1.0 0.0314668349
H  H14  1  0.08331000  0.23170000  0.78374000  1.0 0.0539723782
H  H15  1  0.10373000  0.22291000  0.73154000  1.0 0.0386191445
H  H16  1  0.11421000  0.72813000  0.24176000  1.0 0.0314668349
H  H17  1  0.08331000  0.76830000  0.21626000  1.0 0.0539723782
H  H18  1  0.10373000  0.77709000  0.26846000  1.0 0.0386191445
H  H19  1  0.88579000  0.72813000  0.75824000  1.0 0.0314668349
H  H20  1  0.91669000  0.76830000  0.78374000  1.0 0.0539723782
H  H21  1  0.89627000  0.77709000  0.73154000  1.0 0.0386191445
H  H22  1  0.88579000  0.27187000  0.24176000  1.0 0.0314668349
H  H23  1  0.91669000  0.23170000  0.21626000  1.0 0.0539723782
H  H24  1  0.89627000  0.22291000  0.26846000  1.0 0.0386191445
H  H25  1  0.75824000  0.11421000  0.27187000  1.0 0.0314668349
H  H26  1  0.78374000  0.08331000  0.23170000  1.0 0.0539723782
H  H27  1  0.73154000  0.10373000  0.22291000  1.0 0.0386191445
H  H28  1  0.24176000  0.11421000  0.72813000  1.0 0.0314668349
H  H29  1  0.21626000  0.08331000  0.76830000  1.0 0.0539723782
H  H30  1  0.26846000  0.10373000  0.77709000  1.0 0.0386191445
H  H31  1  0.75824000  0.88579000  0.72813000  1.0 0.0314668349
H  H32  1  0.78374000  0.91669000  0.76830000  1.0 0.0539723782
H  H33  1  0.73154000  0.89627000  0.77709000  1.0 0.0386191445
H  H34  1  0.24176000  0.88579000  0.27187000  1.0 0.0314668349
H  H35  1  0.21626000  0.91669000  0.23170000  1.0 0.0539723782
H  H36  1  0.26846000  0.89627000  0.22291000  1.0 0.0386191445
H  H37  1  0.75824000  0.27187000  0.88579000  1.0 0.0314668349
H  H38  1  0.78374000  0.23170000  0.91669000  1.0 0.0539723782
H  H39  1  0.73154000  0.22291000  0.89627000  1.0 0.0386191445
H  H40  1  0.24176000  0.72813000  0.88579000  1.0 0.0314668349
H  H41  1  0.21626000  0.76830000  0.91669000  1.0 0.0539723782
H  H42  1  0.26846000  0.77709000  0.89627000  1.0 0.0386191445
H  H43  1  0.75824000  0.72813000  0.11421000  1.0 0.0314668349
H  H44  1  0.78374000  0.76830000  0.08331000  1.0 0.0539723782
H  H45  1  0.73154000  0.77709000  0.10373000  1.0 0.0386191445
H  H46  1  0.24176000  0.27187000  0.11421000  1.0 0.0314668349
H  H47  1  0.21626000  0.23170000  0.08331000  1.0 0.0539723782
H  H48  1  0.26846000  0.22291000  0.10373000  1.0 0.0386191445
H  H49  1  0.27187000  0.11421000  0.24176000  1.0 0.0314668349
H  H50  1  0.23170000  0.08331000  0.21626000  1.0 0.0539723782
H  H51  1  0.22291000  0.10373000  0.26846000  1.0 0.0386191445
H  H52  1  0.72813000  0.11421000  0.75824000  1.0 0.0314668349
H  H53  1  0.76830000  0.08331000  0.78374000  1.0 0.0539723782
H  H54  1  0.77709000  0.10373000  0.73154000  1.0 0.0386191445
H  H55  1  0.72813000  0.88579000  0.24176000  1.0 0.0314668349
H  H56  1  0.76830000  0.91669000  0.21626000  1.0 0.0539723782
H  H57  1  0.77709000  0.89627000  0.26846000  1.0 0.0386191445
H  H58  1  0.27187000  0.88579000  0.75824000  1.0 0.0314668349
H  H59  1  0.23170000  0.91669000  0.78374000  1.0 0.0539723782
H  H60  1  0.22291000  0.89627000  0.73154000  1.0 0.0386191445
H  H61  1  0.11421000  0.75824000  0.72813000  1.0 0.0314668349
H  H62  1  0.08331000  0.78374000  0.76830000  1.0 0.0539723782
H  H63  1  0.10373000  0.73154000  0.77709000  1.0 0.0386191445
H  H64  1  0.11421000  0.24176000  0.27187000  1.0 0.0314668349
H  H65  1  0.08331000  0.21626000  0.23170000  1.0 0.0539723782
H  H66  1  0.10373000  0.26846000  0.22291000  1.0 0.0386191445
H  H67  1  0.88579000  0.75824000  0.27187000  1.0 0.0314668349
H  H68  1  0.91669000  0.78374000  0.23170000  1.0 0.0539723782
H  H69  1  0.89627000  0.73154000  0.22291000  1.0 0.0386191445
H  H70  1  0.88579000  0.24176000  0.72813000  1.0 0.0314668349
H  H71  1  0.91669000  0.21626000  0.76830000  1.0 0.0539723782
H  H72  1  0.89627000  0.26846000  0.77709000  1.0 0.0386191445
H  H73  1  0.72813000  0.24176000  0.88579000  1.0 0.0314668349
H  H74  1  0.76830000  0.21626000  0.91669000  1.0 0.0539723782
H  H75  1  0.77709000  0.26846000  0.89627000  1.0 0.0386191445
H  H76  1  0.27187000  0.75824000  0.88579000  1.0 0.0314668349
H  H77  1  0.23170000  0.78374000  0.91669000  1.0 0.0539723782
H  H78  1  0.22291000  0.73154000  0.89627000  1.0 0.0386191445
H  H79  1  0.27187000  0.24176000  0.11421000  1.0 0.0314668349
H  H80  1  0.23170000  0.21626000  0.08331000  1.0 0.0539723782
H  H81  1  0.22291000  0.26846000  0.10373000  1.0 0.0386191445
H  H82  1  0.72813000  0.75824000  0.11421000  1.0 0.0314668349
H  H83  1  0.76830000  0.78374000  0.08331000  1.0 0.0539723782
H  H84  1  0.77709000  0.73154000  0.10373000  1.0 0.0386191445
H  H85  1  0.88579000  0.72813000  0.24176000  1.0 0.0314668349
H  H86  1  0.91669000  0.76830000  0.21626000  1.0 0.0539723782
H  H87  1  0.89627000  0.77709000  0.26846000  1.0 0.0386191445
H  H88  1  0.88579000  0.27187000  0.75824000  1.0 0.0314668349
H  H89  1  0.91669000  0.23170000  0.78374000  1.0 0.0539723782
H  H90  1  0.89627000  0.22291000  0.73154000  1.0 0.0386191445
H  H91  1  0.11421000  0.27187000  0.24176000  1.0 0.0314668349
H  H92  1  0.08331000  0.23170000  0.21626000  1.0 0.0539723782
H  H93  1  0.10373000  0.22291000  0.26846000  1.0 0.0386191445
H  H94  1  0.11421000  0.72813000  0.75824000  1.0 0.0314668349
H  H95  1  0.08331000  0.76830000  0.78374000  1.0 0.0539723782
H  H96  1  0.10373000  0.77709000  0.73154000  1.0 0.0386191445
H  H97  1  0.24176000  0.88579000  0.72813000  1.0 0.0314668349
H  H98  1  0.21626000  0.91669000  0.76830000  1.0 0.0539723782
H  H99  1  0.26846000  0.89627000  0.77709000  1.0 0.0386191445
H  H100  1  0.75824000  0.88579000  0.27187000  1.0 0.0314668349
H  H101  1  0.78374000  0.91669000  0.23170000  1.0 0.0539723782
H  H102  1  0.73154000  0.89627000  0.22291000  1.0 0.0386191445
H  H103  1  0.24176000  0.11421000  0.27187000  1.0 0.0314668349
H  H104  1  0.21626000  0.08331000  0.23170000  1.0 0.0539723782
H  H105  1  0.26846000  0.10373000  0.22291000  1.0 0.0386191445
H  H106  1  0.75824000  0.11421000  0.72813000  1.0 0.0314668349
H  H107  1  0.78374000  0.08331000  0.76830000  1.0 0.0539723782
H  H108  1  0.73154000  0.10373000  0.77709000  1.0 0.0386191445
H  H109  1  0.24176000  0.72813000  0.11421000  1.0 0.0314668349
H  H110  1  0.21626000  0.76830000  0.08331000  1.0 0.0539723782
H  H111  1  0.26846000  0.77709000  0.10373000  1.0 0.0386191445
H  H112  1  0.75824000  0.27187000  0.11421000  1.0 0.0314668349
H  H113  1  0.78374000  0.23170000  0.08331000  1.0 0.0539723782
H  H114  1  0.73154000  0.22291000  0.10373000  1.0 0.0386191445
H  H115  1  0.24176000  0.27187000  0.88579000  1.0 0.0314668349
H  H116  1  0.21626000  0.23170000  0.91669000  1.0 0.0539723782
H  H117  1  0.26846000  0.22291000  0.89627000  1.0 0.0386191445
H  H118  1  0.75824000  0.72813000  0.88579000  1.0 0.0314668349
H  H119  1  0.78374000  0.76830000  0.91669000  1.0 0.0539723782
H  H120  1  0.73154000  0.77709000  0.89627000  1.0 0.0386191445
H  H121  1  0.72813000  0.88579000  0.75824000  1.0 0.0314668349
H  H122  1  0.76830000  0.91669000  0.78374000  1.0 0.0539723782
H  H123  1  0.77709000  0.89627000  0.73154000  1.0 0.0386191445
H  H124  1  0.27187000  0.88579000  0.24176000  1.0 0.0314668349
H  H125  1  0.23170000  0.91669000  0.21626000  1.0 0.0539723782
H  H126  1  0.22291000  0.89627000  0.26846000  1.0 0.0386191445
H  H127  1  0.27187000  0.11421000  0.75824000  1.0 0.0314668349
H  H128  1  0.23170000  0.08331000  0.78374000  1.0 0.0539723782
H  H129  1  0.22291000  0.10373000  0.73154000  1.0 0.0386191445
H  H130  1  0.72813000  0.11421000  0.24176000  1.0 0.0314668349
H  H131  1  0.76830000  0.08331000  0.21626000  1.0 0.0539723782
H  H132  1  0.77709000  0.10373000  0.26846000  1.0 0.0386191445
H  H133  1  0.88579000  0.24176000  0.27187000  1.0 0.0314668349
H  H134  1  0.91669000  0.21626000  0.23170000  1.0 0.0539723782
H  H135  1  0.89627000  0.26846000  0.22291000  1.0 0.0386191445
H  H136  1  0.88579000  0.75824000  0.72813000  1.0 0.0314668349
H  H137  1  0.91669000  0.78374000  0.76830000  1.0 0.0539723782
H  H138  1  0.89627000  0.73154000  0.77709000  1.0 0.0386191445
H  H139  1  0.11421000  0.24176000  0.72813000  1.0 0.0314668349
H  H140  1  0.08331000  0.21626000  0.76830000  1.0 0.0539723782
H  H141  1  0.10373000  0.26846000  0.77709000  1.0 0.0386191445
H  H142  1  0.11421000  0.75824000  0.27187000  1.0 0.0314668349
H  H143  1  0.08331000  0.78374000  0.23170000  1.0 0.0539723782
H  H144  1  0.10373000  0.73154000  0.22291000  1.0 0.0386191445
H  H145  1  0.14332000  0.60853000  0.14332000  1.0 0.1493312451
H  H146  1  0.18296000  0.66973000  0.18296000  1.0 0.1570798127
H  H147  1  0.11081000  0.76467000  0.11081000  1.0 0.1570798127
H  H148  1  0.06987000  0.70652000  0.06987000  1.0 0.1253870971
H  H149  1  0.85668000  0.39147000  0.14332000  1.0 0.1493312451
H  H150  1  0.81704000  0.33027000  0.18296000  1.0 0.1493312451
H  H151  1  0.88919000  0.23533000  0.11081000  1.0 0.1570798127
H  H152  1  0.93013000  0.29348000  0.06987000  1.0 0.1253870971
H  H153  1  0.85668000  0.60853000  0.85668000  1.0 0.1493312451
H  H154  1  0.81704000  0.66973000  0.81704000  1.0 0.1493312451
H  H155  1  0.88919000  0.76467000  0.88919000  1.0 0.1493312451
H  H156  1  0.93013000  0.70652000  0.93013000  1.0 0.1253870971
H  H157  1  0.14332000  0.39147000  0.85668000  1.0 0.1493312451
H  H158  1  0.18296000  0.33027000  0.81704000  1.0 0.1493312451
H  H159  1  0.11081000  0.23533000  0.88919000  1.0 0.1570798127
H  H160  1  0.06987000  0.29348000  0.93013000  1.0 0.1253870971
H  H161  1  0.14332000  0.14332000  0.60853000  1.0 0.1493312451
H  H162  1  0.18296000  0.18296000  0.66973000  1.0 0.1493312451
H  H163  1  0.11081000  0.11081000  0.76467000  1.0 0.1570798127
H  H164  1  0.06987000  0.06987000  0.70652000  1.0 0.1253870971
H  H165  1  0.14332000  0.85668000  0.39147000  1.0 0.1493312451
H  H166  1  0.18296000  0.81704000  0.33027000  1.0 0.1493312451
H  H167  1  0.11081000  0.88919000  0.23533000  1.0 0.1570798127
H  H168  1  0.06987000  0.93013000  0.29348000  1.0 0.1253870971
H  H169  1  0.85668000  0.85668000  0.60853000  1.0 0.1493312451
H  H170  1  0.81704000  0.81704000  0.66973000  1.0 0.1493312451
H  H171  1  0.88919000  0.88919000  0.76467000  1.0 0.1493312451
H  H172  1  0.93013000  0.93013000  0.70652000  1.0 0.1253870971
H  H173  1  0.85668000  0.14332000  0.39147000  1.0 0.1493312451
H  H174  1  0.81704000  0.18296000  0.33027000  1.0 0.1493312451
H  H175  1  0.88919000  0.11081000  0.23533000  1.0 0.1570798127
H  H176  1  0.93013000  0.06987000  0.29348000  1.0 0.1253870971
H  H177  1  0.60853000  0.14332000  0.14332000  1.0 0.1493312451
H  H178  1  0.66973000  0.18296000  0.18296000  1.0 0.1493312451
H  H179  1  0.76467000  0.11081000  0.11081000  1.0 0.1570798127
H  H180  1  0.70652000  0.06987000  0.06987000  1.0 0.1253870971
H  H181  1  0.39147000  0.14332000  0.85668000  1.0 0.1493312451
H  H182  1  0.33027000  0.18296000  0.81704000  1.0 0.1493312451
H  H183  1  0.23533000  0.11081000  0.88919000  1.0 0.1570798127
H  H184  1  0.29348000  0.06987000  0.93013000  1.0 0.1253870971
H  H185  1  0.60853000  0.85668000  0.85668000  1.0 0.1493312451
H  H186  1  0.66973000  0.81704000  0.81704000  1.0 0.1493312451
H  H187  1  0.76467000  0.88919000  0.88919000  1.0 0.1493312451
H  H188  1  0.70652000  0.93013000  0.93013000  1.0 0.1253870971
H  H189  1  0.39147000  0.85668000  0.14332000  1.0 0.1493312451
H  H190  1  0.33027000  0.81704000  0.18296000  1.0 0.1493312451
H  H191  1  0.23533000  0.88919000  0.11081000  1.0 0.1570798127
H  H192  1  0.29348000  0.93013000  0.06987000  1.0 0.1253870971
H  H193  1  0.60853000  0.14332000  0.85668000  1.0 0.1493312451
H  H194  1  0.66973000  0.18296000  0.81704000  1.0 0.1493312451
H  H195  1  0.76467000  0.11081000  0.88919000  1.0 0.1570798127
H  H196  1  0.70652000  0.06987000  0.93013000  1.0 0.1253870971
H  H197  1  0.39147000  0.85668000  0.85668000  1.0 0.1493312451
H  H198  1  0.33027000  0.81704000  0.81704000  1.0 0.1493312451
H  H199  1  0.23533000  0.88919000  0.88919000  1.0 0.1570798127
H  H200  1  0.29348000  0.93013000  0.93013000  1.0 0.1253870971
H  H201  1  0.60853000  0.85668000  0.14332000  1.0 0.1493312451
H  H202  1  0.66973000  0.81704000  0.18296000  1.0 0.1493312451
H  H203  1  0.76467000  0.88919000  0.11081000  1.0 0.1570798127
H  H204  1  0.70652000  0.93013000  0.06987000  1.0 0.1253870971
H  H205  1  0.39147000  0.14332000  0.14332000  1.0 0.1493312451
H  H206  1  0.33027000  0.18296000  0.18296000  1.0 0.1493312451
H  H207  1  0.23533000  0.11081000  0.11081000  1.0 0.1570798127
H  H208  1  0.29348000  0.06987000  0.06987000  1.0 0.1253870971
H  H209  1  0.14332000  0.14332000  0.39147000  1.0 0.1493312451
H  H210  1  0.18296000  0.18296000  0.33027000  1.0 0.1493312451
H  H211  1  0.11081000  0.11081000  0.23533000  1.0 0.1570798127
H  H212  1  0.06987000  0.06987000  0.29348000  1.0 0.1253870971
H  H213  1  0.85668000  0.14332000  0.60853000  1.0 0.1493312451
H  H214  1  0.81704000  0.18296000  0.66973000  1.0 0.1493312451
H  H215  1  0.88919000  0.11081000  0.76467000  1.0 0.1570798127
H  H216  1  0.93013000  0.06987000  0.70652000  1.0 0.1253870971
H  H217  1  0.85668000  0.85668000  0.39147000  1.0 0.1493312451
H  H218  1  0.81704000  0.81704000  0.33027000  1.0 0.1493312451
H  H219  1  0.88919000  0.88919000  0.23533000  1.0 0.1570798127
H  H220  1  0.93013000  0.93013000  0.29348000  1.0 0.1253870971
H  H221  1  0.14332000  0.85668000  0.60853000  1.0 0.1493312451
H  H222  1  0.18296000  0.81704000  0.66973000  1.0 0.1493312451
H  H223  1  0.11081000  0.88919000  0.76467000  1.0 0.1570798127
H  H224  1  0.06987000  0.93013000  0.70652000  1.0 0.1253870971
H  H225  1  0.14332000  0.60853000  0.85668000  1.0 0.1493312451
H  H226  1  0.18296000  0.66973000  0.81704000  1.0 0.1493312451
H  H227  1  0.11081000  0.76467000  0.88919000  1.0 0.1570798127
H  H228  1  0.06987000  0.70652000  0.93013000  1.0 0.1253870971
H  H229  1  0.14332000  0.39147000  0.14332000  1.0 0.1493312451
H  H230  1  0.18296000  0.33027000  0.18296000  1.0 0.1493312451
H  H231  1  0.11081000  0.23533000  0.11081000  1.0 0.1570798127
H  H232  1  0.06987000  0.29348000  0.06987000  1.0 0.1253870971
H  H233  1  0.85668000  0.60853000  0.14332000  1.0 0.1493312451
H  H234  1  0.81704000  0.66973000  0.18296000  1.0 0.1493312451
H  H235  1  0.88919000  0.76467000  0.11081000  1.0 0.1570798127
H  H236  1  0.93013000  0.70652000  0.06987000  1.0 0.1253870971
H  H237  1  0.85668000  0.39147000  0.85668000  1.0 0.1493312451
H  H238  1  0.81704000  0.33027000  0.81704000  1.0 0.1493312451
H  H239  1  0.88919000  0.23533000  0.88919000  1.0 0.1570798127
H  H240  1  0.93013000  0.29348000  0.93013000  1.0 0.1253870971
C  C1  1  0.07910000  0.61180000  0.07910000  1.0 0.6378031133
C  C2  1  0.10310000  0.65000000  0.10310000  1.0 -0.0503272303
C  C3  1  0.13590000  0.64060000  0.13590000  1.0 -0.0440492973
C  C4  1  0.15980000  0.67730000  0.15980000  1.0 -0.1065692818
C  C5  1  0.15000000  0.72320000  0.15000000  1.0 0.0539723782
C  C6  1  0.11760000  0.73240000  0.11760000  1.0 -0.1609565284
C  C7  1  0.09290000  0.69810000  0.09290000  1.0 0.0166299933
C  C8  1  0.17480000  0.76340000  0.17480000  1.0 -0.0077428042
C  C9  1  0.92090000  0.38820000  0.07910000  1.0 0.6378031133
C  C10  1  0.89690000  0.35000000  0.10310000  1.0 -0.0503272303
C  C11  1  0.86410000  0.35940000  0.13590000  1.0 -0.0440492973
C  C12  1  0.84020000  0.32270000  0.15980000  1.0 -0.1046196496
C  C13  1  0.85000000  0.27680000  0.15000000  1.0 0.0539723782
C  C14  1  0.88240000  0.26760000  0.11760000  1.0 -0.1609565284
C  C15  1  0.90710000  0.30190000  0.09290000  1.0 0.0166299933
C  C16  1  0.82520000  0.23660000  0.17480000  1.0 -0.0077428042
C  C17  1  0.92090000  0.61180000  0.92090000  1.0 0.6378031133
C  C18  1  0.89690000  0.65000000  0.89690000  1.0 -0.0503272303
C  C19  1  0.86410000  0.64060000  0.86410000  1.0 -0.0440492973
C  C20  1  0.84020000  0.67730000  0.84020000  1.0 -0.1065692818
C  C21  1  0.85000000  0.72320000  0.85000000  1.0 0.0539723782
C  C22  1  0.88240000  0.73240000  0.88240000  1.0 -0.1609565284
C  C23  1  0.90710000  0.69810000  0.90710000  1.0 0.0166299933
C  C24  1  0.82520000  0.76340000  0.82520000  1.0 -0.0077428042
C  C25  1  0.07910000  0.38820000  0.92090000  1.0 0.6378031133
C  C26  1  0.10310000  0.35000000  0.89690000  1.0 -0.0503272303
C  C27  1  0.13590000  0.35940000  0.86410000  1.0 -0.0503272303
C  C28  1  0.15980000  0.32270000  0.84020000  1.0 -0.1065692818
C  C29  1  0.15000000  0.27680000  0.85000000  1.0 0.0539723782
C  C30  1  0.11760000  0.26760000  0.88240000  1.0 -0.1609565284
C  C31  1  0.09290000  0.30190000  0.90710000  1.0 0.0166299933
C  C32  1  0.17480000  0.23660000  0.82520000  1.0 -0.0077428042
C  C33  1  0.07910000  0.07910000  0.61180000  1.0 0.6378031133
C  C34  1  0.10310000  0.10310000  0.65000000  1.0 -0.0503272303
C  C35  1  0.13590000  0.13590000  0.64060000  1.0 -0.0440492973
C  C36  1  0.15980000  0.15980000  0.67730000  1.0 -0.1065692818
C  C37  1  0.15000000  0.15000000  0.72320000  1.0 0.0539723782
C  C38  1  0.11760000  0.11760000  0.73240000  1.0 -0.1609565284
C  C39  1  0.09290000  0.09290000  0.69810000  1.0 0.0143626648
C  C40  1  0.17480000  0.17480000  0.76340000  1.0 -0.0077428042
C  C41  1  0.07910000  0.92090000  0.38820000  1.0 0.6378031133
C  C42  1  0.10310000  0.89690000  0.35000000  1.0 -0.0503272303
C  C43  1  0.13590000  0.86410000  0.35940000  1.0 -0.0440492973
C  C44  1  0.15980000  0.84020000  0.32270000  1.0 -0.1046196496
C  C45  1  0.15000000  0.85000000  0.27680000  1.0 0.0539723782
C  C46  1  0.11760000  0.88240000  0.26760000  1.0 -0.1609565284
C  C47  1  0.09290000  0.90710000  0.30190000  1.0 0.0166299933
C  C48  1  0.17480000  0.82520000  0.23660000  1.0 -0.0077428042
C  C49  1  0.92090000  0.92090000  0.61180000  1.0 0.6378031133
C  C50  1  0.89690000  0.89690000  0.65000000  1.0 -0.0503272303
C  C51  1  0.86410000  0.86410000  0.64060000  1.0 -0.0440492973
C  C52  1  0.84020000  0.84020000  0.67730000  1.0 -0.1065692818
C  C53  1  0.85000000  0.85000000  0.72320000  1.0 0.0539723782
C  C54  1  0.88240000  0.88240000  0.73240000  1.0 -0.1609565284
C  C55  1  0.90710000  0.90710000  0.69810000  1.0 0.0166299933
C  C56  1  0.82520000  0.82520000  0.76340000  1.0 -0.0077428042
C  C57  1  0.92090000  0.07910000  0.38820000  1.0 0.6378031133
C  C58  1  0.89690000  0.10310000  0.35000000  1.0 -0.0503272303
C  C59  1  0.86410000  0.13590000  0.35940000  1.0 -0.0503272303
C  C60  1  0.84020000  0.15980000  0.32270000  1.0 -0.1046196496
C  C61  1  0.85000000  0.15000000  0.27680000  1.0 0.0539723782
C  C62  1  0.88240000  0.11760000  0.26760000  1.0 -0.1609565284
C  C63  1  0.90710000  0.09290000  0.30190000  1.0 0.0166299933
C  C64  1  0.82520000  0.17480000  0.23660000  1.0 -0.0077428042
C  C65  1  0.61180000  0.07910000  0.07910000  1.0 0.6378031133
C  C66  1  0.65000000  0.10310000  0.10310000  1.0 -0.0503272303
C  C67  1  0.64060000  0.13590000  0.13590000  1.0 -0.0440492973
C  C68  1  0.67730000  0.15980000  0.15980000  1.0 -0.1065692818
C  C69  1  0.72320000  0.15000000  0.15000000  1.0 0.0539723782
C  C70  1  0.73240000  0.11760000  0.11760000  1.0 -0.1609565284
C  C71  1  0.69810000  0.09290000  0.09290000  1.0 0.0166299933
C  C72  1  0.76340000  0.17480000  0.17480000  1.0 -0.0077428042
C  C73  1  0.38820000  0.07910000  0.92090000  1.0 0.6378031133
C  C74  1  0.35000000  0.10310000  0.89690000  1.0 -0.0503272303
C  C75  1  0.35940000  0.13590000  0.86410000  1.0 -0.0503272303
C  C76  1  0.32270000  0.15980000  0.84020000  1.0 -0.1065692818
C  C77  1  0.27680000  0.15000000  0.85000000  1.0 0.0539723782
C  C78  1  0.26760000  0.11760000  0.88240000  1.0 -0.1609565284
C  C79  1  0.30190000  0.09290000  0.90710000  1.0 0.0166299933
C  C80  1  0.23660000  0.17480000  0.82520000  1.0 -0.0077428042
C  C81  1  0.61180000  0.92090000  0.92090000  1.0 0.6378031133
C  C82  1  0.65000000  0.89690000  0.89690000  1.0 -0.0503272303
C  C83  1  0.64060000  0.86410000  0.86410000  1.0 -0.0440492973
C  C84  1  0.67730000  0.84020000  0.84020000  1.0 -0.1065692818
C  C85  1  0.72320000  0.85000000  0.85000000  1.0 0.0539723782
C  C86  1  0.73240000  0.88240000  0.88240000  1.0 -0.1609565284
C  C87  1  0.69810000  0.90710000  0.90710000  1.0 0.0166299933
C  C88  1  0.76340000  0.82520000  0.82520000  1.0 -0.0077428042
C  C89  1  0.38820000  0.92090000  0.07910000  1.0 0.6378031133
C  C90  1  0.35000000  0.89690000  0.10310000  1.0 -0.0503272303
C  C91  1  0.35940000  0.86410000  0.13590000  1.0 -0.0440492973
C  C92  1  0.32270000  0.84020000  0.15980000  1.0 -0.1046196496
C  C93  1  0.27680000  0.85000000  0.15000000  1.0 0.0539723782
C  C94  1  0.26760000  0.88240000  0.11760000  1.0 -0.1609565284
C  C95  1  0.30190000  0.90710000  0.09290000  1.0 0.0166299933
C  C96  1  0.23660000  0.82520000  0.17480000  1.0 -0.0077428042
C  C97  1  0.61180000  0.07910000  0.92090000  1.0 0.6378031133
C  C98  1  0.65000000  0.10310000  0.89690000  1.0 -0.0503272303
C  C99  1  0.64060000  0.13590000  0.86410000  1.0 -0.0440492973
C  C100  1  0.67730000  0.15980000  0.84020000  1.0 -0.1065692818
C  C101  1  0.72320000  0.15000000  0.85000000  1.0 0.0539723782
C  C102  1  0.73240000  0.11760000  0.88240000  1.0 -0.1609565284
C  C103  1  0.69810000  0.09290000  0.90710000  1.0 0.0166299933
C  C104  1  0.76340000  0.17480000  0.82520000  1.0 -0.0077428042
C  C105  1  0.38820000  0.92090000  0.92090000  1.0 0.6378031133
C  C106  1  0.35000000  0.89690000  0.89690000  1.0 -0.0503272303
C  C107  1  0.35940000  0.86410000  0.86410000  1.0 -0.0440492973
C  C108  1  0.32270000  0.84020000  0.84020000  1.0 -0.1065692818
C  C109  1  0.27680000  0.85000000  0.85000000  1.0 0.0539723782
C  C110  1  0.26760000  0.88240000  0.88240000  1.0 -0.1609565284
C  C111  1  0.30190000  0.90710000  0.90710000  1.0 0.0166299933
C  C112  1  0.23660000  0.82520000  0.82520000  1.0 -0.0077428042
C  C113  1  0.61180000  0.92090000  0.07910000  1.0 0.6378031133
C  C114  1  0.65000000  0.89690000  0.10310000  1.0 -0.0503272303
C  C115  1  0.64060000  0.86410000  0.13590000  1.0 -0.0440492973
C  C116  1  0.67730000  0.84020000  0.15980000  1.0 -0.1065692818
C  C117  1  0.72320000  0.85000000  0.15000000  1.0 0.0539723782
C  C118  1  0.73240000  0.88240000  0.11760000  1.0 -0.1609565284
C  C119  1  0.69810000  0.90710000  0.09290000  1.0 0.0166299933
C  C120  1  0.76340000  0.82520000  0.17480000  1.0 -0.0077428042
C  C121  1  0.38820000  0.07910000  0.07910000  1.0 0.6378031133
C  C122  1  0.35000000  0.10310000  0.10310000  1.0 -0.0503272303
C  C123  1  0.35940000  0.13590000  0.13590000  1.0 -0.0440492973
C  C124  1  0.32270000  0.15980000  0.15980000  1.0 -0.1065692818
C  C125  1  0.27680000  0.15000000  0.15000000  1.0 0.0539723782
C  C126  1  0.26760000  0.11760000  0.11760000  1.0 -0.1609565284
C  C127  1  0.30190000  0.09290000  0.09290000  1.0 0.0166299933
C  C128  1  0.23660000  0.17480000  0.17480000  1.0 -0.0077428042
C  C129  1  0.07910000  0.07910000  0.38820000  1.0 0.6378031133
C  C130  1  0.10310000  0.10310000  0.35000000  1.0 -0.0503272303
C  C131  1  0.13590000  0.13590000  0.35940000  1.0 -0.0440492973
C  C132  1  0.15980000  0.15980000  0.32270000  1.0 -0.1065692818
C  C133  1  0.15000000  0.15000000  0.27680000  1.0 0.0539723782
C  C134  1  0.11760000  0.11760000  0.26760000  1.0 -0.1609565284
C  C135  1  0.09290000  0.09290000  0.30190000  1.0 0.0166299933
C  C136  1  0.17480000  0.17480000  0.23660000  1.0 -0.0077428042
C  C137  1  0.92090000  0.07910000  0.61180000  1.0 0.6378031133
C  C138  1  0.89690000  0.10310000  0.65000000  1.0 -0.0503272303
C  C139  1  0.86410000  0.13590000  0.64060000  1.0 -0.0440492973
C  C140  1  0.84020000  0.15980000  0.67730000  1.0 -0.1065692818
C  C141  1  0.85000000  0.15000000  0.72320000  1.0 0.0539723782
C  C142  1  0.88240000  0.11760000  0.73240000  1.0 -0.1609565284
C  C143  1  0.90710000  0.09290000  0.69810000  1.0 0.0166299933
C  C144  1  0.82520000  0.17480000  0.76340000  1.0 -0.0077428042
C  C145  1  0.92090000  0.92090000  0.38820000  1.0 0.6378031133
C  C146  1  0.89690000  0.89690000  0.35000000  1.0 -0.0503272303
C  C147  1  0.86410000  0.86410000  0.35940000  1.0 -0.0440492973
C  C148  1  0.84020000  0.84020000  0.32270000  1.0 -0.1046196496
C  C149  1  0.85000000  0.85000000  0.27680000  1.0 0.0539723782
C  C150  1  0.88240000  0.88240000  0.26760000  1.0 -0.1609565284
C  C151  1  0.90710000  0.90710000  0.30190000  1.0 0.0166299933
C  C152  1  0.82520000  0.82520000  0.23660000  1.0 -0.0077428042
C  C153  1  0.07910000  0.92090000  0.61180000  1.0 0.6378031133
C  C154  1  0.10310000  0.89690000  0.65000000  1.0 -0.0503272303
C  C155  1  0.13590000  0.86410000  0.64060000  1.0 -0.0440492973
C  C156  1  0.15980000  0.84020000  0.67730000  1.0 -0.1065692818
C  C157  1  0.15000000  0.85000000  0.72320000  1.0 0.0539723782
C  C158  1  0.11760000  0.88240000  0.73240000  1.0 -0.1609565284
C  C159  1  0.09290000  0.90710000  0.69810000  1.0 0.0166299933
C  C160  1  0.17480000  0.82520000  0.76340000  1.0 -0.0077428042
C  C161  1  0.07910000  0.61180000  0.92090000  1.0 0.6378031133
C  C162  1  0.10310000  0.65000000  0.89690000  1.0 -0.0503272303
C  C163  1  0.13590000  0.64060000  0.86410000  1.0 -0.0440492973
C  C164  1  0.15980000  0.67730000  0.84020000  1.0 -0.1065692818
C  C165  1  0.15000000  0.72320000  0.85000000  1.0 0.0539723782
C  C166  1  0.11760000  0.73240000  0.88240000  1.0 -0.1609565284
C  C167  1  0.09290000  0.69810000  0.90710000  1.0 0.0166299933
C  C168  1  0.17480000  0.76340000  0.82520000  1.0 -0.0077428042
C  C169  1  0.07910000  0.38820000  0.07910000  1.0 0.6378031133
C  C170  1  0.10310000  0.35000000  0.10310000  1.0 -0.0503272303
C  C171  1  0.13590000  0.35940000  0.13590000  1.0 -0.0440492973
C  C172  1  0.15980000  0.32270000  0.15980000  1.0 -0.1065692818
C  C173  1  0.15000000  0.27680000  0.15000000  1.0 0.0539723782
C  C174  1  0.11760000  0.26760000  0.11760000  1.0 -0.1609565284
C  C175  1  0.09290000  0.30190000  0.09290000  1.0 0.0166299933
C  C176  1  0.17480000  0.23660000  0.17480000  1.0 -0.0077428042
C  C177  1  0.92090000  0.61180000  0.07910000  1.0 0.6378031133
C  C178  1  0.89690000  0.65000000  0.10310000  1.0 -0.0503272303
C  C179  1  0.86410000  0.64060000  0.13590000  1.0 -0.0440492973
C  C180  1  0.84020000  0.67730000  0.15980000  1.0 -0.1065692818
C  C181  1  0.85000000  0.72320000  0.15000000  1.0 0.0539723782
C  C182  1  0.88240000  0.73240000  0.11760000  1.0 -0.1609565284
C  C183  1  0.90710000  0.69810000  0.09290000  1.0 0.0166299933
C  C184  1  0.82520000  0.76340000  0.17480000  1.0 -0.0077428042
C  C185  1  0.92090000  0.38820000  0.92090000  1.0 0.6378031133
C  C186  1  0.89690000  0.35000000  0.89690000  1.0 -0.0503272303
C  C187  1  0.86410000  0.35940000  0.86410000  1.0 -0.0503272303
C  C188  1  0.84020000  0.32270000  0.84020000  1.0 -0.1065692818
C  C189  1  0.85000000  0.27680000  0.85000000  1.0 0.0539723782
C  C190  1  0.88240000  0.26760000  0.88240000  1.0 -0.1609565284
C  C191  1  0.90710000  0.30190000  0.90710000  1.0 0.0166299933
C  C192  1  0.82520000  0.23660000  0.82520000  1.0 -0.0077428042
C  C193  1  0.21610000  0.78390000  0.15580000  1.0 0.0314668349
C  C194  1  0.23760000  0.76240000  0.11010000  1.0 -0.1831415108
C  C195  1  0.78390000  0.21610000  0.15580000  1.0 0.0314668349
C  C196  1  0.76240000  0.23760000  0.11010000  1.0 -0.1831415108
C  C197  1  0.78390000  0.78390000  0.84420000  1.0 0.0314668349
C  C198  1  0.76240000  0.76240000  0.88990000  1.0 -0.1872931508
C  C199  1  0.21610000  0.21610000  0.84420000  1.0 0.0314668349
C  C200  1  0.23760000  0.23760000  0.88990000  1.0 -0.1872931508
C  C201  1  0.15580000  0.21610000  0.78390000  1.0 0.0314668349
C  C202  1  0.11010000  0.23760000  0.76240000  1.0 -0.1831415108
C  C203  1  0.15580000  0.78390000  0.21610000  1.0 0.0314668349
C  C204  1  0.11010000  0.76240000  0.23760000  1.0 -0.1831415108
C  C205  1  0.84420000  0.78390000  0.78390000  1.0 0.0314668349
C  C206  1  0.88990000  0.76240000  0.76240000  1.0 -0.1872931508
C  C207  1  0.84420000  0.21610000  0.21610000  1.0 0.0386191445
C  C208  1  0.88990000  0.23760000  0.23760000  1.0 -0.1872931508
C  C209  1  0.78390000  0.15580000  0.21610000  1.0 0.0314668349
C  C210  1  0.76240000  0.11010000  0.23760000  1.0 -0.1831415108
C  C211  1  0.21610000  0.15580000  0.78390000  1.0 0.0314668349
C  C212  1  0.23760000  0.11010000  0.76240000  1.0 -0.1831415108
C  C213  1  0.78390000  0.84420000  0.78390000  1.0 0.0314668349
C  C214  1  0.76240000  0.88990000  0.76240000  1.0 -0.1872931508
C  C215  1  0.21610000  0.84420000  0.21610000  1.0 0.0314668349
C  C216  1  0.23760000  0.88990000  0.23760000  1.0 -0.1872931508
C  C217  1  0.78390000  0.21610000  0.84420000  1.0 0.0314668349
C  C218  1  0.76240000  0.23760000  0.88990000  1.0 -0.1872931508
C  C219  1  0.21610000  0.78390000  0.84420000  1.0 0.0314668349
C  C220  1  0.23760000  0.76240000  0.88990000  1.0 -0.1872931508
C  C221  1  0.78390000  0.78390000  0.15580000  1.0 0.0314668349
C  C222  1  0.76240000  0.76240000  0.11010000  1.0 -0.1872931508
C  C223  1  0.21610000  0.21610000  0.15580000  1.0 0.0314668349
C  C224  1  0.23760000  0.23760000  0.11010000  1.0 -0.1831415108
C  C225  1  0.21610000  0.15580000  0.21610000  1.0 0.0314668349
C  C226  1  0.23760000  0.11010000  0.23760000  1.0 -0.1831415108
C  C227  1  0.78390000  0.15580000  0.78390000  1.0 0.0314668349
C  C228  1  0.76240000  0.11010000  0.76240000  1.0 -0.1831415108
C  C229  1  0.78390000  0.84420000  0.21610000  1.0 0.0314668349
C  C230  1  0.76240000  0.88990000  0.23760000  1.0 -0.1872931508
C  C231  1  0.21610000  0.84420000  0.78390000  1.0 0.0314668349
C  C232  1  0.23760000  0.88990000  0.76240000  1.0 -0.1872931508
C  C233  1  0.15580000  0.78390000  0.78390000  1.0 0.0314668349
C  C234  1  0.11010000  0.76240000  0.76240000  1.0 -0.1872931508
C  C235  1  0.15580000  0.21610000  0.21610000  1.0 0.0314668349
C  C236  1  0.11010000  0.23760000  0.23760000  1.0 -0.1831415108
C  C237  1  0.84420000  0.78390000  0.21610000  1.0 0.0314668349
C  C238  1  0.88990000  0.76240000  0.23760000  1.0 -0.1872931508
C  C239  1  0.84420000  0.21610000  0.78390000  1.0 0.0314668349
C  C240  1  0.88990000  0.23760000  0.76240000  1.0 -0.1872931508
O  O1  1  0.06420000  0.45770000  0.00000000  1.0 -1.1322642059
O  O2  1  0.93580000  0.54230000  0.00000000  1.0 -1.1322642059
O  O3  1  0.93580000  0.45770000  0.00000000  1.0 -1.1322642059
O  O4  1  0.06420000  0.54230000  0.00000000  1.0 -1.1322642059
O  O5  1  0.00000000  0.06420000  0.45770000  1.0 -1.1322642059
O  O6  1  0.00000000  0.93580000  0.54230000  1.0 -1.1322642059
O  O7  1  0.00000000  0.93580000  0.45770000  1.0 -1.1322642059
O  O8  1  0.00000000  0.06420000  0.54230000  1.0 -1.1322642059
O  O9  1  0.45770000  0.00000000  0.06420000  1.0 -1.1322642059
O  O10  1  0.54230000  0.00000000  0.93580000  1.0 -1.1322642059
O  O11  1  0.45770000  0.00000000  0.93580000  1.0 -1.1322642059
O  O12  1  0.54230000  0.00000000  0.06420000  1.0 -1.1322642059
O  O13  1  0.45770000  0.06420000  0.00000000  1.0 -1.1322642059
O  O14  1  0.54230000  0.93580000  0.00000000  1.0 -1.1322642059
O  O15  1  0.45770000  0.93580000  0.00000000  1.0 -1.1322642059
O  O16  1  0.54230000  0.06420000  0.00000000  1.0 -1.1322642059
O  O17  1  0.06420000  0.00000000  0.54230000  1.0 -1.1322642059
O  O18  1  0.93580000  0.00000000  0.45770000  1.0 -1.1322642059
O  O19  1  0.93580000  0.00000000  0.54230000  1.0 -1.1322642059
O  O20  1  0.06420000  0.00000000  0.45770000  1.0 -1.1322642059
O  O21  1  0.00000000  0.45770000  0.93580000  1.0 -1.1322642059
O  O22  1  0.00000000  0.54230000  0.06420000  1.0 -1.1322642059
O  O23  1  0.00000000  0.45770000  0.06420000  1.0 -1.1322642059
O  O24  1  0.00000000  0.54230000  0.93580000  1.0 -1.1322642059
O  O25  1  0.08920000  0.57060000  0.08920000  1.0 -0.5140373673
O  O26  1  0.04780000  0.62570000  0.04780000  1.0 -0.6105211195
O  O27  1  0.91080000  0.42940000  0.08920000  1.0 -0.5140373673
O  O28  1  0.95220000  0.37430000  0.04780000  1.0 -0.6105211195
O  O29  1  0.91080000  0.57060000  0.91080000  1.0 -0.5140373673
O  O30  1  0.95220000  0.62570000  0.95220000  1.0 -0.6105211195
O  O31  1  0.08920000  0.42940000  0.91080000  1.0 -0.5140373673
O  O32  1  0.04780000  0.37430000  0.95220000  1.0 -0.6105211195
O  O33  1  0.08920000  0.08920000  0.57060000  1.0 -0.5140373673
O  O34  1  0.04780000  0.04780000  0.62570000  1.0 -0.6105211195
O  O35  1  0.08920000  0.91080000  0.42940000  1.0 -0.5140373673
O  O36  1  0.04780000  0.95220000  0.37430000  1.0 -0.6105211195
O  O37  1  0.91080000  0.91080000  0.57060000  1.0 -0.5140373673
O  O38  1  0.95220000  0.95220000  0.62570000  1.0 -0.6105211195
O  O39  1  0.91080000  0.08920000  0.42940000  1.0 -0.5140373673
O  O40  1  0.95220000  0.04780000  0.37430000  1.0 -0.6105211195
O  O41  1  0.57060000  0.08920000  0.08920000  1.0 -0.5140373673
O  O42  1  0.62570000  0.04780000  0.04780000  1.0 -0.6105211195
O  O43  1  0.42940000  0.08920000  0.91080000  1.0 -0.5140373673
O  O44  1  0.37430000  0.04780000  0.95220000  1.0 -0.6105211195
O  O45  1  0.57060000  0.91080000  0.91080000  1.0 -0.5140373673
O  O46  1  0.62570000  0.95220000  0.95220000  1.0 -0.6105211195
O  O47  1  0.42940000  0.91080000  0.08920000  1.0 -0.5140373673
O  O48  1  0.37430000  0.95220000  0.04780000  1.0 -0.6105211195
O  O49  1  0.57060000  0.08920000  0.91080000  1.0 -0.5140373673
O  O50  1  0.62570000  0.04780000  0.95220000  1.0 -0.6105211195
O  O51  1  0.42940000  0.91080000  0.91080000  1.0 -0.5140373673
O  O52  1  0.37430000  0.95220000  0.95220000  1.0 -0.6105211195
O  O53  1  0.57060000  0.91080000  0.08920000  1.0 -0.5140373673
O  O54  1  0.62570000  0.95220000  0.04780000  1.0 -0.6105211195
O  O55  1  0.42940000  0.08920000  0.08920000  1.0 -0.5140373673
O  O56  1  0.37430000  0.04780000  0.04780000  1.0 -0.6105211195
O  O57  1  0.08920000  0.08920000  0.42940000  1.0 -0.5140373673
O  O58  1  0.04780000  0.04780000  0.37430000  1.0 -0.6105211195
O  O59  1  0.91080000  0.08920000  0.57060000  1.0 -0.5140373673
O  O60  1  0.95220000  0.04780000  0.62570000  1.0 -0.6105211195
O  O61  1  0.91080000  0.91080000  0.42940000  1.0 -0.5140373673
O  O62  1  0.95220000  0.95220000  0.37430000  1.0 -0.6105211195
O  O63  1  0.08920000  0.91080000  0.57060000  1.0 -0.5140373673
O  O64  1  0.04780000  0.95220000  0.62570000  1.0 -0.6105211195
O  O65  1  0.08920000  0.57060000  0.91080000  1.0 -0.5140373673
O  O66  1  0.04780000  0.62570000  0.95220000  1.0 -0.6105211195
O  O67  1  0.08920000  0.42940000  0.08920000  1.0 -0.5140373673
O  O68  1  0.04780000  0.37430000  0.04780000  1.0 -0.6105211195
O  O69  1  0.91080000  0.57060000  0.08920000  1.0 -0.5140373673
O  O70  1  0.95220000  0.62570000  0.04780000  1.0 -0.6105211195
O  O71  1  0.91080000  0.42940000  0.91080000  1.0 -0.5140373673
O  O72  1  0.95220000  0.37430000  0.95220000  1.0 -0.6105211195
O  O73  1  0.05510000  0.50000000  0.13740000  1.0 -0.6956114338
O  O74  1  0.94490000  0.50000000  0.13740000  1.0 -0.6956114338
O  O75  1  0.94490000  0.50000000  0.86260000  1.0 -0.6956114338
O  O76  1  0.05510000  0.50000000  0.86260000  1.0 -0.6956114338
O  O77  1  0.13740000  0.05510000  0.50000000  1.0 -0.6956114338
O  O78  1  0.13740000  0.94490000  0.50000000  1.0 -0.6956114338
O  O79  1  0.86260000  0.94490000  0.50000000  1.0 -0.6956114338
O  O80  1  0.86260000  0.05510000  0.50000000  1.0 -0.6956114338
O  O81  1  0.50000000  0.13740000  0.05510000  1.0 -0.6956114338
O  O82  1  0.50000000  0.13740000  0.94490000  1.0 -0.6956114338
O  O83  1  0.50000000  0.86260000  0.94490000  1.0 -0.6956114338
O  O84  1  0.50000000  0.86260000  0.05510000  1.0 -0.6956114338
O  O85  1  0.50000000  0.05510000  0.86260000  1.0 -0.6956114338
O  O86  1  0.50000000  0.94490000  0.86260000  1.0 -0.6956114338
O  O87  1  0.50000000  0.94490000  0.13740000  1.0 -0.6956114338
O  O88  1  0.50000000  0.05510000  0.13740000  1.0 -0.6956114338
O  O89  1  0.05510000  0.13740000  0.50000000  1.0 -0.6956114338
O  O90  1  0.94490000  0.13740000  0.50000000  1.0 -0.6956114338
O  O91  1  0.94490000  0.86260000  0.50000000  1.0 -0.6956114338
O  O92  1  0.05510000  0.86260000  0.50000000  1.0 -0.6956114338
O  O93  1  0.13740000  0.50000000  0.94490000  1.0 -0.6956114338
O  O94  1  0.13740000  0.50000000  0.05510000  1.0 -0.6956114338
O  O95  1  0.86260000  0.50000000  0.05510000  1.0 -0.6956114338
O  O96  1  0.86260000  0.50000000  0.94490000  1.0 -0.6956114338
O  O97  1  0.00000000  0.50000000  0.22880000  1.0 -0.4725116408
O  O98  1  0.00000000  0.50000000  0.77120000  1.0 -0.4725116408
O  O99  1  0.22880000  0.00000000  0.50000000  1.0 -0.4725116408
O  O100  1  0.77120000  0.00000000  0.50000000  1.0 -0.4725116408
O  O101  1  0.50000000  0.22880000  0.00000000  1.0 -0.4725116408
O  O102  1  0.50000000  0.77120000  0.00000000  1.0 -0.4725116408
O  O103  1  0.50000000  0.00000000  0.77120000  1.0 -0.4725116408
O  O104  1  0.50000000  0.00000000  0.22880000  1.0 -0.4725116408
O  O105  1  0.00000000  0.22880000  0.50000000  1.0 -0.4725116408
O  O106  1  0.00000000  0.77120000  0.50000000  1.0 -0.4725116408
O  O107  1  0.22880000  0.50000000  0.00000000  1.0 -0.4725116408
O  O108  1  0.77120000  0.50000000  0.00000000  1.0 -0.4725116408
