# DDEC6 charges by PACMAN v1.1 (https://github.com/mtap-research/PACMAN-charge/)
data_IPADIP_ASR_pacman
_symmetry_space_group_name_H-M   'P 1'
_cell_length_a   28.16720000
_cell_length_b   28.16720000
_cell_length_c   28.16720000
_cell_angle_alpha   90.00000000
_cell_angle_beta   90.00000000
_cell_angle_gamma   90.00000000
_symmetry_Int_Tables_number   1
_chemical_formula_structural   Zr3Mo6H40(C2O)20
_chemical_formula_sum   'Zr18 Mo36 H240 C240 O120'
_cell_volume   22347.60736478
_cell_formula_units_Z   6
loop_
 _symmetry_equiv_pos_site_id
 _symmetry_equiv_pos_as_xyz
  1  'x, y, z'
loop_
 _atom_site_type_symbol
 _atom_site_label
 _atom_site_symmetry_multiplicity
 _atom_site_fract_x
 _atom_site_fract_y
 _atom_site_fract_z
 _atom_site_occupancy
 _atom_site_charge
Zr  Zr1  1  0.43710000  0.00000000  0.43710000  1.0 2.3906117741
Zr  Zr2  1  0.56290000  0.00000000  0.43710000  1.0 2.3906117741
Zr  Zr3  1  0.56290000  0.00000000  0.56290000  1.0 2.3906117741
Zr  Zr4  1  0.43710000  0.00000000  0.56290000  1.0 2.3906117741
Zr  Zr5  1  0.43710000  0.43710000  0.00000000  1.0 2.3906117741
Zr  Zr6  1  0.43710000  0.56290000  0.00000000  1.0 2.3906117741
Zr  Zr7  1  0.56290000  0.56290000  0.00000000  1.0 2.3906117741
Zr  Zr8  1  0.56290000  0.43710000  0.00000000  1.0 2.3906117741
Zr  Zr9  1  0.00000000  0.43710000  0.43710000  1.0 2.3906117741
Zr  Zr10  1  0.00000000  0.43710000  0.56290000  1.0 2.3906117741
Zr  Zr11  1  0.00000000  0.56290000  0.56290000  1.0 2.3906117741
Zr  Zr12  1  0.00000000  0.56290000  0.43710000  1.0 2.3906117741
Zr  Zr13  1  0.50000000  0.08697000  0.50000000  1.0 2.3906117741
Zr  Zr14  1  0.50000000  0.91303000  0.50000000  1.0 2.3906117741
Zr  Zr15  1  0.50000000  0.50000000  0.08697000  1.0 2.3906117741
Zr  Zr16  1  0.50000000  0.50000000  0.91303000  1.0 2.3906117741
Zr  Zr17  1  0.08697000  0.50000000  0.50000000  1.0 2.3906117741
Zr  Zr18  1  0.91303000  0.50000000  0.50000000  1.0 2.3906117741
Mo  Mo1  1  0.43630000  0.00000000  0.29920000  1.0 0.7784483263
Mo  Mo2  1  0.56370000  0.00000000  0.29920000  1.0 0.7784483263
Mo  Mo3  1  0.56370000  0.00000000  0.70080000  1.0 0.7784483263
Mo  Mo4  1  0.43630000  0.00000000  0.70080000  1.0 0.7784483263
Mo  Mo5  1  0.29920000  0.43630000  0.00000000  1.0 0.7784483263
Mo  Mo6  1  0.29920000  0.56370000  0.00000000  1.0 0.7704040267
Mo  Mo7  1  0.70080000  0.56370000  0.00000000  1.0 0.7784483263
Mo  Mo8  1  0.70080000  0.43630000  0.00000000  1.0 0.7784483263
Mo  Mo9  1  0.00000000  0.29920000  0.43630000  1.0 0.7784483263
Mo  Mo10  1  0.00000000  0.29920000  0.56370000  1.0 0.7704040267
Mo  Mo11  1  0.00000000  0.70080000  0.56370000  1.0 0.7704040267
Mo  Mo12  1  0.00000000  0.70080000  0.43630000  1.0 0.7784483263
Mo  Mo13  1  0.00000000  0.43630000  0.70080000  1.0 0.7784483263
Mo  Mo14  1  0.00000000  0.56370000  0.70080000  1.0 0.7704040267
Mo  Mo15  1  0.00000000  0.56370000  0.29920000  1.0 0.7704040267
Mo  Mo16  1  0.00000000  0.43630000  0.29920000  1.0 0.7784483263
Mo  Mo17  1  0.43630000  0.29920000  0.00000000  1.0 0.7784483263
Mo  Mo18  1  0.56370000  0.29920000  0.00000000  1.0 0.7784483263
Mo  Mo19  1  0.56370000  0.70080000  0.00000000  1.0 0.7784483263
Mo  Mo20  1  0.43630000  0.70080000  0.00000000  1.0 0.7784483263
Mo  Mo21  1  0.29920000  0.00000000  0.56370000  1.0 0.7784483263
Mo  Mo22  1  0.29920000  0.00000000  0.43630000  1.0 0.7784483263
Mo  Mo23  1  0.70080000  0.00000000  0.43630000  1.0 0.7784483263
Mo  Mo24  1  0.70080000  0.00000000  0.56370000  1.0 0.7784483263
Mo  Mo25  1  0.50000000  0.00000000  0.32520000  1.0 0.7641005315
Mo  Mo26  1  0.50000000  0.00000000  0.67480000  1.0 0.7641005315
Mo  Mo27  1  0.32520000  0.50000000  0.00000000  1.0 0.7704040267
Mo  Mo28  1  0.67480000  0.50000000  0.00000000  1.0 0.7641005315
Mo  Mo29  1  0.00000000  0.32520000  0.50000000  1.0 0.7704040267
Mo  Mo30  1  0.00000000  0.67480000  0.50000000  1.0 0.7704040267
Mo  Mo31  1  0.00000000  0.50000000  0.67480000  1.0 0.7704040267
Mo  Mo32  1  0.00000000  0.50000000  0.32520000  1.0 0.7704040267
Mo  Mo33  1  0.50000000  0.32520000  0.00000000  1.0 0.7641005315
Mo  Mo34  1  0.50000000  0.67480000  0.00000000  1.0 0.7641005315
Mo  Mo35  1  0.32520000  0.00000000  0.50000000  1.0 0.7641005315
Mo  Mo36  1  0.67480000  0.00000000  0.50000000  1.0 0.7641005315
H  H1  1  0.74110000  0.22920000  0.61540000  1.0 -0.0011677182
H  H2  1  0.76750000  0.27820000  0.60400000  1.0 0.0210491405
H  H3  1  0.71570000  0.26830000  0.58290000  1.0 0.0273475918
H  H4  1  0.25890000  0.77080000  0.61540000  1.0 0.0036731292
H  H5  1  0.23250000  0.72180000  0.60400000  1.0 0.0210491405
H  H6  1  0.28430000  0.73170000  0.58290000  1.0 0.0273475918
H  H7  1  0.25890000  0.22920000  0.38460000  1.0 -0.0011677182
H  H8  1  0.23250000  0.27820000  0.39600000  1.0 0.0210491405
H  H9  1  0.28430000  0.26830000  0.41710000  1.0 0.0273475918
H  H10  1  0.74110000  0.77080000  0.38460000  1.0 0.0036731292
H  H11  1  0.76750000  0.72180000  0.39600000  1.0 0.0210491405
H  H12  1  0.71570000  0.73170000  0.41710000  1.0 0.0273475918
H  H13  1  0.61540000  0.74110000  0.22920000  1.0 -0.0011677182
H  H14  1  0.60400000  0.76750000  0.27820000  1.0 0.0210491405
H  H15  1  0.58290000  0.71570000  0.26830000  1.0 0.0210491405
H  H16  1  0.61540000  0.25890000  0.77080000  1.0 0.0036731292
H  H17  1  0.60400000  0.23250000  0.72180000  1.0 0.0210491405
H  H18  1  0.58290000  0.28430000  0.73170000  1.0 0.0273475918
H  H19  1  0.38460000  0.25890000  0.22920000  1.0 -0.0011677182
H  H20  1  0.39600000  0.23250000  0.27820000  1.0 0.0210491405
H  H21  1  0.41710000  0.28430000  0.26830000  1.0 0.0273475918
H  H22  1  0.38460000  0.74110000  0.77080000  1.0 0.0036731292
H  H23  1  0.39600000  0.76750000  0.72180000  1.0 0.0210491405
H  H24  1  0.41710000  0.71570000  0.73170000  1.0 0.0273475918
H  H25  1  0.22920000  0.61540000  0.74110000  1.0 -0.0011677182
H  H26  1  0.27820000  0.60400000  0.76750000  1.0 0.0210491405
H  H27  1  0.26830000  0.58290000  0.71570000  1.0 0.0210491405
H  H28  1  0.77080000  0.61540000  0.25890000  1.0 0.0036731292
H  H29  1  0.72180000  0.60400000  0.23250000  1.0 0.0210491405
H  H30  1  0.73170000  0.58290000  0.28430000  1.0 0.0273475918
H  H31  1  0.22920000  0.38460000  0.25890000  1.0 -0.0011677182
H  H32  1  0.27820000  0.39600000  0.23250000  1.0 0.0210491405
H  H33  1  0.26830000  0.41710000  0.28430000  1.0 0.0273475918
H  H34  1  0.77080000  0.38460000  0.74110000  1.0 0.0036731292
H  H35  1  0.72180000  0.39600000  0.76750000  1.0 0.0210491405
H  H36  1  0.73170000  0.41710000  0.71570000  1.0 0.0273475918
H  H37  1  0.22920000  0.74110000  0.38460000  1.0 -0.0011677182
H  H38  1  0.27820000  0.76750000  0.39600000  1.0 0.0210491405
H  H39  1  0.26830000  0.71570000  0.41710000  1.0 0.0210491405
H  H40  1  0.77080000  0.25890000  0.38460000  1.0 0.0036731292
H  H41  1  0.72180000  0.23250000  0.39600000  1.0 0.0210491405
H  H42  1  0.73170000  0.28430000  0.41710000  1.0 0.0273475918
H  H43  1  0.22920000  0.25890000  0.61540000  1.0 -0.0011677182
H  H44  1  0.27820000  0.23250000  0.60400000  1.0 0.0210491405
H  H45  1  0.26830000  0.28430000  0.58290000  1.0 0.0273475918
H  H46  1  0.77080000  0.74110000  0.61540000  1.0 0.0036731292
H  H47  1  0.72180000  0.76750000  0.60400000  1.0 0.0210491405
H  H48  1  0.73170000  0.71570000  0.58290000  1.0 0.0273475918
H  H49  1  0.74110000  0.61540000  0.77080000  1.0 0.0036731292
H  H50  1  0.76750000  0.60400000  0.72180000  1.0 0.0210491405
H  H51  1  0.71570000  0.58290000  0.73170000  1.0 0.0273475918
H  H52  1  0.25890000  0.61540000  0.22920000  1.0 -0.0011677182
H  H53  1  0.23250000  0.60400000  0.27820000  1.0 0.0210491405
H  H54  1  0.28430000  0.58290000  0.26830000  1.0 0.0273475918
H  H55  1  0.25890000  0.38460000  0.77080000  1.0 0.0036731292
H  H56  1  0.23250000  0.39600000  0.72180000  1.0 0.0210491405
H  H57  1  0.28430000  0.41710000  0.73170000  1.0 0.0273475918
H  H58  1  0.74110000  0.38460000  0.22920000  1.0 -0.0011677182
H  H59  1  0.76750000  0.39600000  0.27820000  1.0 0.0210491405
H  H60  1  0.71570000  0.41710000  0.26830000  1.0 0.0210491405
H  H61  1  0.61540000  0.22920000  0.25890000  1.0 -0.0011677182
H  H62  1  0.60400000  0.27820000  0.23250000  1.0 0.0210491405
H  H63  1  0.58290000  0.26830000  0.28430000  1.0 0.0273475918
H  H64  1  0.61540000  0.77080000  0.74110000  1.0 0.0036731292
H  H65  1  0.60400000  0.72180000  0.76750000  1.0 0.0210491405
H  H66  1  0.58290000  0.73170000  0.71570000  1.0 0.0273475918
H  H67  1  0.38460000  0.22920000  0.74110000  1.0 -0.0011677182
H  H68  1  0.39600000  0.27820000  0.76750000  1.0 0.0210491405
H  H69  1  0.41710000  0.26830000  0.71570000  1.0 0.0210491405
H  H70  1  0.38460000  0.77080000  0.25890000  1.0 0.0036731292
H  H71  1  0.39600000  0.72180000  0.23250000  1.0 0.0210491405
H  H72  1  0.41710000  0.73170000  0.28430000  1.0 0.0273475918
H  H73  1  0.25890000  0.77080000  0.38460000  1.0 0.0036731292
H  H74  1  0.23250000  0.72180000  0.39600000  1.0 0.0210491405
H  H75  1  0.28430000  0.73170000  0.41710000  1.0 0.0273475918
H  H76  1  0.74110000  0.22920000  0.38460000  1.0 -0.0011677182
H  H77  1  0.76750000  0.27820000  0.39600000  1.0 0.0210491405
H  H78  1  0.71570000  0.26830000  0.41710000  1.0 0.0210491405
H  H79  1  0.74110000  0.77080000  0.61540000  1.0 0.0036731292
H  H80  1  0.76750000  0.72180000  0.60400000  1.0 0.0210491405
H  H81  1  0.71570000  0.73170000  0.58290000  1.0 0.0273475918
H  H82  1  0.25890000  0.22920000  0.61540000  1.0 -0.0011677182
H  H83  1  0.23250000  0.27820000  0.60400000  1.0 0.0210491405
H  H84  1  0.28430000  0.26830000  0.58290000  1.0 0.0273475918
H  H85  1  0.38460000  0.25890000  0.77080000  1.0 0.0036731292
H  H86  1  0.39600000  0.23250000  0.72180000  1.0 0.0210491405
H  H87  1  0.41710000  0.28430000  0.73170000  1.0 0.0273475918
H  H88  1  0.38460000  0.74110000  0.22920000  1.0 -0.0011677182
H  H89  1  0.39600000  0.76750000  0.27820000  1.0 0.0210491405
H  H90  1  0.41710000  0.71570000  0.26830000  1.0 0.0210491405
H  H91  1  0.61540000  0.74110000  0.77080000  1.0 0.0036731292
H  H92  1  0.60400000  0.76750000  0.72180000  1.0 0.0210491405
H  H93  1  0.58290000  0.71570000  0.73170000  1.0 0.0273475918
H  H94  1  0.61540000  0.25890000  0.22920000  1.0 -0.0011677182
H  H95  1  0.60400000  0.23250000  0.27820000  1.0 0.0210491405
H  H96  1  0.58290000  0.28430000  0.26830000  1.0 0.0273475918
H  H97  1  0.77080000  0.38460000  0.25890000  1.0 0.0036731292
H  H98  1  0.72180000  0.39600000  0.23250000  1.0 0.0210491405
H  H99  1  0.73170000  0.41710000  0.28430000  1.0 0.0273475918
H  H100  1  0.22920000  0.38460000  0.74110000  1.0 -0.0011677182
H  H101  1  0.27820000  0.39600000  0.76750000  1.0 0.0210491405
H  H102  1  0.26830000  0.41710000  0.71570000  1.0 0.0210491405
H  H103  1  0.77080000  0.61540000  0.74110000  1.0 0.0036731292
H  H104  1  0.72180000  0.60400000  0.76750000  1.0 0.0210491405
H  H105  1  0.73170000  0.58290000  0.71570000  1.0 0.0273475918
H  H106  1  0.22920000  0.61540000  0.25890000  1.0 -0.0011677182
H  H107  1  0.27820000  0.60400000  0.23250000  1.0 0.0210491405
H  H108  1  0.26830000  0.58290000  0.28430000  1.0 0.0273475918
H  H109  1  0.77080000  0.25890000  0.61540000  1.0 0.0036731292
H  H110  1  0.72180000  0.23250000  0.60400000  1.0 0.0210491405
H  H111  1  0.73170000  0.28430000  0.58290000  1.0 0.0273475918
H  H112  1  0.22920000  0.74110000  0.61540000  1.0 -0.0011677182
H  H113  1  0.27820000  0.76750000  0.60400000  1.0 0.0210491405
H  H114  1  0.26830000  0.71570000  0.58290000  1.0 0.0210491405
H  H115  1  0.77080000  0.74110000  0.38460000  1.0 0.0036731292
H  H116  1  0.72180000  0.76750000  0.39600000  1.0 0.0210491405
H  H117  1  0.73170000  0.71570000  0.41710000  1.0 0.0273475918
H  H118  1  0.22920000  0.25890000  0.38460000  1.0 -0.0011677182
H  H119  1  0.27820000  0.23250000  0.39600000  1.0 0.0210491405
H  H120  1  0.26830000  0.28430000  0.41710000  1.0 0.0273475918
H  H121  1  0.25890000  0.38460000  0.22920000  1.0 -0.0011677182
H  H122  1  0.23250000  0.39600000  0.27820000  1.0 0.0210491405
H  H123  1  0.28430000  0.41710000  0.26830000  1.0 0.0273475918
H  H124  1  0.74110000  0.38460000  0.77080000  1.0 0.0036731292
H  H125  1  0.76750000  0.39600000  0.72180000  1.0 0.0210491405
H  H126  1  0.71570000  0.41710000  0.73170000  1.0 0.0273475918
H  H127  1  0.74110000  0.61540000  0.22920000  1.0 -0.0011677182
H  H128  1  0.76750000  0.60400000  0.27820000  1.0 0.0210491405
H  H129  1  0.71570000  0.58290000  0.26830000  1.0 0.0210491405
H  H130  1  0.25890000  0.61540000  0.77080000  1.0 0.0036731292
H  H131  1  0.23250000  0.60400000  0.72180000  1.0 0.0210491405
H  H132  1  0.28430000  0.58290000  0.73170000  1.0 0.0273475918
H  H133  1  0.38460000  0.77080000  0.74110000  1.0 0.0036731292
H  H134  1  0.39600000  0.72180000  0.76750000  1.0 0.0210491405
H  H135  1  0.41710000  0.73170000  0.71570000  1.0 0.0273475918
H  H136  1  0.38460000  0.22920000  0.25890000  1.0 -0.0011677182
H  H137  1  0.39600000  0.27820000  0.23250000  1.0 0.0210491405
H  H138  1  0.41710000  0.26830000  0.28430000  1.0 0.0273475918
H  H139  1  0.61540000  0.77080000  0.25890000  1.0 0.0036731292
H  H140  1  0.60400000  0.72180000  0.23250000  1.0 0.0210491405
H  H141  1  0.58290000  0.73170000  0.28430000  1.0 0.0273475918
H  H142  1  0.61540000  0.22920000  0.74110000  1.0 -0.0011677182
H  H143  1  0.60400000  0.27820000  0.76750000  1.0 0.0210491405
H  H144  1  0.58290000  0.26830000  0.71570000  1.0 0.0273475918
H  H145  1  0.56910000  0.20560000  0.56910000  1.0 0.1105326325
H  H146  1  0.60900000  0.26700000  0.60900000  1.0 0.1386835299
H  H147  1  0.68310000  0.17040000  0.68310000  1.0 0.1386835299
H  H148  1  0.64340000  0.11010000  0.64340000  1.0 0.1221694671
H  H149  1  0.43090000  0.79440000  0.56910000  1.0 0.1105326325
H  H150  1  0.39100000  0.73300000  0.60900000  1.0 0.1386835299
H  H151  1  0.31690000  0.82960000  0.68310000  1.0 0.1349310972
H  H152  1  0.35660000  0.88990000  0.64340000  1.0 0.1221694671
H  H153  1  0.43090000  0.20560000  0.43090000  1.0 0.1105326325
H  H154  1  0.39100000  0.26700000  0.39100000  1.0 0.1386835299
H  H155  1  0.31690000  0.17040000  0.31690000  1.0 0.1386835299
H  H156  1  0.35660000  0.11010000  0.35660000  1.0 0.1221694671
H  H157  1  0.56910000  0.79440000  0.43090000  1.0 0.1105326325
H  H158  1  0.60900000  0.73300000  0.39100000  1.0 0.1386835299
H  H159  1  0.68310000  0.82960000  0.31690000  1.0 0.1349310972
H  H160  1  0.64340000  0.88990000  0.35660000  1.0 0.1221694671
H  H161  1  0.56910000  0.56910000  0.20560000  1.0 0.1105326325
H  H162  1  0.60900000  0.60900000  0.26700000  1.0 0.1386835299
H  H163  1  0.68310000  0.68310000  0.17040000  1.0 0.1386835299
H  H164  1  0.64340000  0.64340000  0.11010000  1.0 0.1221694671
H  H165  1  0.56910000  0.43090000  0.79440000  1.0 0.1105326325
H  H166  1  0.60900000  0.39100000  0.73300000  1.0 0.1386835299
H  H167  1  0.68310000  0.31690000  0.82960000  1.0 0.1349310972
H  H168  1  0.64340000  0.35660000  0.88990000  1.0 0.1221694671
H  H169  1  0.43090000  0.43090000  0.20560000  1.0 0.1105326325
H  H170  1  0.39100000  0.39100000  0.26700000  1.0 0.1386835299
H  H171  1  0.31690000  0.31690000  0.17040000  1.0 0.1386835299
H  H172  1  0.35660000  0.35660000  0.11010000  1.0 0.1221694671
H  H173  1  0.43090000  0.56910000  0.79440000  1.0 0.1105326325
H  H174  1  0.39100000  0.60900000  0.73300000  1.0 0.1386835299
H  H175  1  0.31690000  0.68310000  0.82960000  1.0 0.1349310972
H  H176  1  0.35660000  0.64340000  0.88990000  1.0 0.1221694671
H  H177  1  0.20560000  0.56910000  0.56910000  1.0 0.1105326325
H  H178  1  0.26700000  0.60900000  0.60900000  1.0 0.1386835299
H  H179  1  0.17040000  0.68310000  0.68310000  1.0 0.1386835299
H  H180  1  0.11010000  0.64340000  0.64340000  1.0 0.1221694671
H  H181  1  0.79440000  0.56910000  0.43090000  1.0 0.1105326325
H  H182  1  0.73300000  0.60900000  0.39100000  1.0 0.1386835299
H  H183  1  0.82960000  0.68310000  0.31690000  1.0 0.1349310972
H  H184  1  0.88990000  0.64340000  0.35660000  1.0 0.1221694671
H  H185  1  0.20560000  0.43090000  0.43090000  1.0 0.1105326325
H  H186  1  0.26700000  0.39100000  0.39100000  1.0 0.1386835299
H  H187  1  0.17040000  0.31690000  0.31690000  1.0 0.1386835299
H  H188  1  0.11010000  0.35660000  0.35660000  1.0 0.1221694671
H  H189  1  0.79440000  0.43090000  0.56910000  1.0 0.1105326325
H  H190  1  0.73300000  0.39100000  0.60900000  1.0 0.1386835299
H  H191  1  0.82960000  0.31690000  0.68310000  1.0 0.1349310972
H  H192  1  0.88990000  0.35660000  0.64340000  1.0 0.1221694671
H  H193  1  0.20560000  0.56910000  0.43090000  1.0 0.1105326325
H  H194  1  0.26700000  0.60900000  0.39100000  1.0 0.1386835299
H  H195  1  0.17040000  0.68310000  0.31690000  1.0 0.1386835299
H  H196  1  0.11010000  0.64340000  0.35660000  1.0 0.1221694671
H  H197  1  0.79440000  0.43090000  0.43090000  1.0 0.1105326325
H  H198  1  0.73300000  0.39100000  0.39100000  1.0 0.1386835299
H  H199  1  0.82960000  0.31690000  0.31690000  1.0 0.1349310972
H  H200  1  0.88990000  0.35660000  0.35660000  1.0 0.1221694671
H  H201  1  0.20560000  0.43090000  0.56910000  1.0 0.1105326325
H  H202  1  0.26700000  0.39100000  0.60900000  1.0 0.1386835299
H  H203  1  0.17040000  0.31690000  0.68310000  1.0 0.1386835299
H  H204  1  0.11010000  0.35660000  0.64340000  1.0 0.1221694671
H  H205  1  0.79440000  0.56910000  0.56910000  1.0 0.1105326325
H  H206  1  0.73300000  0.60900000  0.60900000  1.0 0.1386835299
H  H207  1  0.82960000  0.68310000  0.68310000  1.0 0.1349310972
H  H208  1  0.88990000  0.64340000  0.64340000  1.0 0.1221694671
H  H209  1  0.56910000  0.56910000  0.79440000  1.0 0.1105326325
H  H210  1  0.60900000  0.60900000  0.73300000  1.0 0.1386835299
H  H211  1  0.68310000  0.68310000  0.82960000  1.0 0.1349310972
H  H212  1  0.64340000  0.64340000  0.88990000  1.0 0.1221694671
H  H213  1  0.43090000  0.56910000  0.20560000  1.0 0.1105326325
H  H214  1  0.39100000  0.60900000  0.26700000  1.0 0.1386835299
H  H215  1  0.31690000  0.68310000  0.17040000  1.0 0.1386835299
H  H216  1  0.35660000  0.64340000  0.11010000  1.0 0.1221694671
H  H217  1  0.43090000  0.43090000  0.79440000  1.0 0.1105326325
H  H218  1  0.39100000  0.39100000  0.73300000  1.0 0.1386835299
H  H219  1  0.31690000  0.31690000  0.82960000  1.0 0.1349310972
H  H220  1  0.35660000  0.35660000  0.88990000  1.0 0.1221694671
H  H221  1  0.56910000  0.43090000  0.20560000  1.0 0.1105326325
H  H222  1  0.60900000  0.39100000  0.26700000  1.0 0.1386835299
H  H223  1  0.68310000  0.31690000  0.17040000  1.0 0.1386835299
H  H224  1  0.64340000  0.35660000  0.11010000  1.0 0.1221694671
H  H225  1  0.56910000  0.20560000  0.43090000  1.0 0.1105326325
H  H226  1  0.60900000  0.26700000  0.39100000  1.0 0.1386835299
H  H227  1  0.68310000  0.17040000  0.31690000  1.0 0.1386835299
H  H228  1  0.64340000  0.11010000  0.35660000  1.0 0.1221694671
H  H229  1  0.56910000  0.79440000  0.56910000  1.0 0.1105326325
H  H230  1  0.60900000  0.73300000  0.60900000  1.0 0.1386835299
H  H231  1  0.68310000  0.82960000  0.68310000  1.0 0.1349310972
H  H232  1  0.64340000  0.88990000  0.64340000  1.0 0.1221694671
H  H233  1  0.43090000  0.20560000  0.56910000  1.0 0.1105326325
H  H234  1  0.39100000  0.26700000  0.60900000  1.0 0.1386835299
H  H235  1  0.31690000  0.17040000  0.68310000  1.0 0.1386835299
H  H236  1  0.35660000  0.11010000  0.64340000  1.0 0.1221694671
H  H237  1  0.43090000  0.79440000  0.43090000  1.0 0.1105326325
H  H238  1  0.39100000  0.73300000  0.39100000  1.0 0.1386835299
H  H239  1  0.31690000  0.82960000  0.31690000  1.0 0.1349310972
H  H240  1  0.35660000  0.88990000  0.35660000  1.0 0.1221694671
C  C1  1  0.57760000  0.11390000  0.57760000  1.0 0.6252131063
C  C2  1  0.60334000  0.15188000  0.60334000  1.0 -0.0519340308
C  C3  1  0.59244000  0.19840000  0.59244000  1.0 -0.033533814
C  C4  1  0.61626000  0.23480000  0.61626000  1.0 -0.1368837456
C  C5  1  0.64986000  0.22490000  0.64986000  1.0 0.0534942909
C  C6  1  0.65984000  0.17810000  0.65984000  1.0 -0.1119521834
C  C7  1  0.63614000  0.14230000  0.63614000  1.0 -0.0836167962
C  C8  1  0.67379000  0.26586000  0.67379000  1.0 -0.0387591123
C  C9  1  0.42240000  0.88610000  0.57760000  1.0 0.6252131063
C  C10  1  0.39666000  0.84812000  0.60334000  1.0 -0.0519340308
C  C11  1  0.40756000  0.80160000  0.59244000  1.0 -0.033533814
C  C12  1  0.38374000  0.76520000  0.61626000  1.0 -0.1368837456
C  C13  1  0.35014000  0.77510000  0.64986000  1.0 0.0534942909
C  C14  1  0.34016000  0.82190000  0.65984000  1.0 -0.1119521834
C  C15  1  0.36386000  0.85770000  0.63614000  1.0 -0.0836167962
C  C16  1  0.32621000  0.73414000  0.67379000  1.0 -0.0387591123
C  C17  1  0.42240000  0.11390000  0.42240000  1.0 0.6252131063
C  C18  1  0.39666000  0.15188000  0.39666000  1.0 -0.0519340308
C  C19  1  0.40756000  0.19840000  0.40756000  1.0 -0.033533814
C  C20  1  0.38374000  0.23480000  0.38374000  1.0 -0.1368837456
C  C21  1  0.35014000  0.22490000  0.35014000  1.0 0.0534942909
C  C22  1  0.34016000  0.17810000  0.34016000  1.0 -0.1119521834
C  C23  1  0.36386000  0.14230000  0.36386000  1.0 -0.0836167962
C  C24  1  0.32621000  0.26586000  0.32621000  1.0 -0.0387591123
C  C25  1  0.57760000  0.88610000  0.42240000  1.0 0.6252131063
C  C26  1  0.60334000  0.84812000  0.39666000  1.0 -0.0519340308
C  C27  1  0.59244000  0.80160000  0.40756000  1.0 -0.033533814
C  C28  1  0.61626000  0.76520000  0.38374000  1.0 -0.1368837456
C  C29  1  0.64986000  0.77510000  0.35014000  1.0 0.0534942909
C  C30  1  0.65984000  0.82190000  0.34016000  1.0 -0.1119521834
C  C31  1  0.63614000  0.85770000  0.36386000  1.0 -0.0836167962
C  C32  1  0.67379000  0.73414000  0.32621000  1.0 -0.0387591123
C  C33  1  0.57760000  0.57760000  0.11390000  1.0 0.6252131063
C  C34  1  0.60334000  0.60334000  0.15188000  1.0 -0.0519340308
C  C35  1  0.59244000  0.59244000  0.19840000  1.0 -0.033533814
C  C36  1  0.61626000  0.61626000  0.23480000  1.0 -0.1368837456
C  C37  1  0.64986000  0.64986000  0.22490000  1.0 0.0534942909
C  C38  1  0.65984000  0.65984000  0.17810000  1.0 -0.1119521834
C  C39  1  0.63614000  0.63614000  0.14230000  1.0 -0.0836167962
C  C40  1  0.67379000  0.67379000  0.26586000  1.0 -0.0387591123
C  C41  1  0.57760000  0.42240000  0.88610000  1.0 0.6252131063
C  C42  1  0.60334000  0.39666000  0.84812000  1.0 -0.0519340308
C  C43  1  0.59244000  0.40756000  0.80160000  1.0 -0.033533814
C  C44  1  0.61626000  0.38374000  0.76520000  1.0 -0.1368837456
C  C45  1  0.64986000  0.35014000  0.77510000  1.0 0.0534942909
C  C46  1  0.65984000  0.34016000  0.82190000  1.0 -0.1119521834
C  C47  1  0.63614000  0.36386000  0.85770000  1.0 -0.0836167962
C  C48  1  0.67379000  0.32621000  0.73414000  1.0 -0.0387591123
C  C49  1  0.42240000  0.42240000  0.11390000  1.0 0.6252131063
C  C50  1  0.39666000  0.39666000  0.15188000  1.0 -0.0519340308
C  C51  1  0.40756000  0.40756000  0.19840000  1.0 -0.033533814
C  C52  1  0.38374000  0.38374000  0.23480000  1.0 -0.1368837456
C  C53  1  0.35014000  0.35014000  0.22490000  1.0 0.0534942909
C  C54  1  0.34016000  0.34016000  0.17810000  1.0 -0.1119521834
C  C55  1  0.36386000  0.36386000  0.14230000  1.0 -0.0836167962
C  C56  1  0.32621000  0.32621000  0.26586000  1.0 -0.0387591123
C  C57  1  0.42240000  0.57760000  0.88610000  1.0 0.6252131063
C  C58  1  0.39666000  0.60334000  0.84812000  1.0 -0.0519340308
C  C59  1  0.40756000  0.59244000  0.80160000  1.0 -0.033533814
C  C60  1  0.38374000  0.61626000  0.76520000  1.0 -0.1368837456
C  C61  1  0.35014000  0.64986000  0.77510000  1.0 0.0534942909
C  C62  1  0.34016000  0.65984000  0.82190000  1.0 -0.1119521834
C  C63  1  0.36386000  0.63614000  0.85770000  1.0 -0.0836167962
C  C64  1  0.32621000  0.67379000  0.73414000  1.0 -0.0387591123
C  C65  1  0.11390000  0.57760000  0.57760000  1.0 0.6252131063
C  C66  1  0.15188000  0.60334000  0.60334000  1.0 -0.0519340308
C  C67  1  0.19840000  0.59244000  0.59244000  1.0 -0.033533814
C  C68  1  0.23480000  0.61626000  0.61626000  1.0 -0.1368837456
C  C69  1  0.22490000  0.64986000  0.64986000  1.0 0.0534942909
C  C70  1  0.17810000  0.65984000  0.65984000  1.0 -0.1119521834
C  C71  1  0.14230000  0.63614000  0.63614000  1.0 -0.0836167962
C  C72  1  0.26586000  0.67379000  0.67379000  1.0 -0.0387591123
C  C73  1  0.88610000  0.57760000  0.42240000  1.0 0.6252131063
C  C74  1  0.84812000  0.60334000  0.39666000  1.0 -0.0519340308
C  C75  1  0.80160000  0.59244000  0.40756000  1.0 -0.033533814
C  C76  1  0.76520000  0.61626000  0.38374000  1.0 -0.1368837456
C  C77  1  0.77510000  0.64986000  0.35014000  1.0 0.0534942909
C  C78  1  0.82190000  0.65984000  0.34016000  1.0 -0.1119521834
C  C79  1  0.85770000  0.63614000  0.36386000  1.0 -0.0836167962
C  C80  1  0.73414000  0.67379000  0.32621000  1.0 -0.0387591123
C  C81  1  0.11390000  0.42240000  0.42240000  1.0 0.6252131063
C  C82  1  0.15188000  0.39666000  0.39666000  1.0 -0.0519340308
C  C83  1  0.19840000  0.40756000  0.40756000  1.0 -0.033533814
C  C84  1  0.23480000  0.38374000  0.38374000  1.0 -0.1368837456
C  C85  1  0.22490000  0.35014000  0.35014000  1.0 0.0534942909
C  C86  1  0.17810000  0.34016000  0.34016000  1.0 -0.1119521834
C  C87  1  0.14230000  0.36386000  0.36386000  1.0 -0.0836167962
C  C88  1  0.26586000  0.32621000  0.32621000  1.0 -0.0387591123
C  C89  1  0.88610000  0.42240000  0.57760000  1.0 0.6252131063
C  C90  1  0.84812000  0.39666000  0.60334000  1.0 -0.0519340308
C  C91  1  0.80160000  0.40756000  0.59244000  1.0 -0.033533814
C  C92  1  0.76520000  0.38374000  0.61626000  1.0 -0.1368837456
C  C93  1  0.77510000  0.35014000  0.64986000  1.0 0.0534942909
C  C94  1  0.82190000  0.34016000  0.65984000  1.0 -0.1119521834
C  C95  1  0.85770000  0.36386000  0.63614000  1.0 -0.0836167962
C  C96  1  0.73414000  0.32621000  0.67379000  1.0 -0.0387591123
C  C97  1  0.11390000  0.57760000  0.42240000  1.0 0.6252131063
C  C98  1  0.15188000  0.60334000  0.39666000  1.0 -0.0519340308
C  C99  1  0.19840000  0.59244000  0.40756000  1.0 -0.033533814
C  C100  1  0.23480000  0.61626000  0.38374000  1.0 -0.1368837456
C  C101  1  0.22490000  0.64986000  0.35014000  1.0 0.0534942909
C  C102  1  0.17810000  0.65984000  0.34016000  1.0 -0.1119521834
C  C103  1  0.14230000  0.63614000  0.36386000  1.0 -0.0836167962
C  C104  1  0.26586000  0.67379000  0.32621000  1.0 -0.0387591123
C  C105  1  0.88610000  0.42240000  0.42240000  1.0 0.6252131063
C  C106  1  0.84812000  0.39666000  0.39666000  1.0 -0.0519340308
C  C107  1  0.80160000  0.40756000  0.40756000  1.0 -0.033533814
C  C108  1  0.76520000  0.38374000  0.38374000  1.0 -0.1368837456
C  C109  1  0.77510000  0.35014000  0.35014000  1.0 0.0534942909
C  C110  1  0.82190000  0.34016000  0.34016000  1.0 -0.1119521834
C  C111  1  0.85770000  0.36386000  0.36386000  1.0 -0.0836167962
C  C112  1  0.73414000  0.32621000  0.32621000  1.0 -0.0387591123
C  C113  1  0.11390000  0.42240000  0.57760000  1.0 0.6252131063
C  C114  1  0.15188000  0.39666000  0.60334000  1.0 -0.0519340308
C  C115  1  0.19840000  0.40756000  0.59244000  1.0 -0.033533814
C  C116  1  0.23480000  0.38374000  0.61626000  1.0 -0.1368837456
C  C117  1  0.22490000  0.35014000  0.64986000  1.0 0.0534942909
C  C118  1  0.17810000  0.34016000  0.65984000  1.0 -0.1119521834
C  C119  1  0.14230000  0.36386000  0.63614000  1.0 -0.0836167962
C  C120  1  0.26586000  0.32621000  0.67379000  1.0 -0.0387591123
C  C121  1  0.88610000  0.57760000  0.57760000  1.0 0.6252131063
C  C122  1  0.84812000  0.60334000  0.60334000  1.0 -0.0519340308
C  C123  1  0.80160000  0.59244000  0.59244000  1.0 -0.033533814
C  C124  1  0.76520000  0.61626000  0.61626000  1.0 -0.1368837456
C  C125  1  0.77510000  0.64986000  0.64986000  1.0 0.0534942909
C  C126  1  0.82190000  0.65984000  0.65984000  1.0 -0.1119521834
C  C127  1  0.85770000  0.63614000  0.63614000  1.0 -0.0836167962
C  C128  1  0.73414000  0.67379000  0.67379000  1.0 -0.0387591123
C  C129  1  0.57760000  0.57760000  0.88610000  1.0 0.6252131063
C  C130  1  0.60334000  0.60334000  0.84812000  1.0 -0.0519340308
C  C131  1  0.59244000  0.59244000  0.80160000  1.0 -0.033533814
C  C132  1  0.61626000  0.61626000  0.76520000  1.0 -0.1368837456
C  C133  1  0.64986000  0.64986000  0.77510000  1.0 0.0534942909
C  C134  1  0.65984000  0.65984000  0.82190000  1.0 -0.1119521834
C  C135  1  0.63614000  0.63614000  0.85770000  1.0 -0.0836167962
C  C136  1  0.67379000  0.67379000  0.73414000  1.0 -0.0387591123
C  C137  1  0.42240000  0.57760000  0.11390000  1.0 0.6252131063
C  C138  1  0.39666000  0.60334000  0.15188000  1.0 -0.0519340308
C  C139  1  0.40756000  0.59244000  0.19840000  1.0 -0.033533814
C  C140  1  0.38374000  0.61626000  0.23480000  1.0 -0.1368837456
C  C141  1  0.35014000  0.64986000  0.22490000  1.0 0.0534942909
C  C142  1  0.34016000  0.65984000  0.17810000  1.0 -0.1119521834
C  C143  1  0.36386000  0.63614000  0.14230000  1.0 -0.0836167962
C  C144  1  0.32621000  0.67379000  0.26586000  1.0 -0.0387591123
C  C145  1  0.42240000  0.42240000  0.88610000  1.0 0.6252131063
C  C146  1  0.39666000  0.39666000  0.84812000  1.0 -0.0519340308
C  C147  1  0.40756000  0.40756000  0.80160000  1.0 -0.033533814
C  C148  1  0.38374000  0.38374000  0.76520000  1.0 -0.1368837456
C  C149  1  0.35014000  0.35014000  0.77510000  1.0 0.0534942909
C  C150  1  0.34016000  0.34016000  0.82190000  1.0 -0.1119521834
C  C151  1  0.36386000  0.36386000  0.85770000  1.0 -0.0836167962
C  C152  1  0.32621000  0.32621000  0.73414000  1.0 -0.0387591123
C  C153  1  0.57760000  0.42240000  0.11390000  1.0 0.6252131063
C  C154  1  0.60334000  0.39666000  0.15188000  1.0 -0.0519340308
C  C155  1  0.59244000  0.40756000  0.19840000  1.0 -0.033533814
C  C156  1  0.61626000  0.38374000  0.23480000  1.0 -0.1368837456
C  C157  1  0.64986000  0.35014000  0.22490000  1.0 0.0534942909
C  C158  1  0.65984000  0.34016000  0.17810000  1.0 -0.1119521834
C  C159  1  0.63614000  0.36386000  0.14230000  1.0 -0.0836167962
C  C160  1  0.67379000  0.32621000  0.26586000  1.0 -0.0387591123
C  C161  1  0.57760000  0.11390000  0.42240000  1.0 0.6252131063
C  C162  1  0.60334000  0.15188000  0.39666000  1.0 -0.0519340308
C  C163  1  0.59244000  0.19840000  0.40756000  1.0 -0.033533814
C  C164  1  0.61626000  0.23480000  0.38374000  1.0 -0.1368837456
C  C165  1  0.64986000  0.22490000  0.35014000  1.0 0.0534942909
C  C166  1  0.65984000  0.17810000  0.34016000  1.0 -0.1119521834
C  C167  1  0.63614000  0.14230000  0.36386000  1.0 -0.0836167962
C  C168  1  0.67379000  0.26586000  0.32621000  1.0 -0.0387591123
C  C169  1  0.57760000  0.88610000  0.57760000  1.0 0.6252131063
C  C170  1  0.60334000  0.84812000  0.60334000  1.0 -0.0519340308
C  C171  1  0.59244000  0.80160000  0.59244000  1.0 -0.033533814
C  C172  1  0.61626000  0.76520000  0.61626000  1.0 -0.1368837456
C  C173  1  0.64986000  0.77510000  0.64986000  1.0 0.0534942909
C  C174  1  0.65984000  0.82190000  0.65984000  1.0 -0.1119521834
C  C175  1  0.63614000  0.85770000  0.63614000  1.0 -0.0836167962
C  C176  1  0.67379000  0.73414000  0.67379000  1.0 -0.0387591123
C  C177  1  0.42240000  0.11390000  0.57760000  1.0 0.6252131063
C  C178  1  0.39666000  0.15188000  0.60334000  1.0 -0.0519340308
C  C179  1  0.40756000  0.19840000  0.59244000  1.0 -0.033533814
C  C180  1  0.38374000  0.23480000  0.61626000  1.0 -0.1368837456
C  C181  1  0.35014000  0.22490000  0.64986000  1.0 0.0534942909
C  C182  1  0.34016000  0.17810000  0.65984000  1.0 -0.1119521834
C  C183  1  0.36386000  0.14230000  0.63614000  1.0 -0.0836167962
C  C184  1  0.32621000  0.26586000  0.67379000  1.0 -0.0387591123
C  C185  1  0.42240000  0.88610000  0.42240000  1.0 0.6252131063
C  C186  1  0.39666000  0.84812000  0.39666000  1.0 -0.0519340308
C  C187  1  0.40756000  0.80160000  0.40756000  1.0 -0.033533814
C  C188  1  0.38374000  0.76520000  0.38374000  1.0 -0.1368837456
C  C189  1  0.35014000  0.77510000  0.35014000  1.0 0.0534942909
C  C190  1  0.34016000  0.82190000  0.34016000  1.0 -0.1119521834
C  C191  1  0.36386000  0.85770000  0.36386000  1.0 -0.0836167962
C  C192  1  0.32621000  0.73414000  0.32621000  1.0 -0.0387591123
C  C193  1  0.71446000  0.28554000  0.65420000  1.0 -0.0094403639
C  C194  1  0.73670000  0.26330000  0.61020000  1.0 -0.1969863433
C  C195  1  0.28554000  0.71446000  0.65420000  1.0 -0.0094403639
C  C196  1  0.26330000  0.73670000  0.61020000  1.0 -0.1969863433
C  C197  1  0.28554000  0.28554000  0.34580000  1.0 -0.0094403639
C  C198  1  0.26330000  0.26330000  0.38980000  1.0 -0.1969863433
C  C199  1  0.71446000  0.71446000  0.34580000  1.0 -0.0094403639
C  C200  1  0.73670000  0.73670000  0.38980000  1.0 -0.1969863433
C  C201  1  0.65420000  0.71446000  0.28554000  1.0 -0.0094403639
C  C202  1  0.61020000  0.73670000  0.26330000  1.0 -0.1969863433
C  C203  1  0.65420000  0.28554000  0.71446000  1.0 -0.0094403639
C  C204  1  0.61020000  0.26330000  0.73670000  1.0 -0.1969863433
C  C205  1  0.34580000  0.28554000  0.28554000  1.0 -0.0094403639
C  C206  1  0.38980000  0.26330000  0.26330000  1.0 -0.1969863433
C  C207  1  0.34580000  0.71446000  0.71446000  1.0 -0.0094403639
C  C208  1  0.38980000  0.73670000  0.73670000  1.0 -0.1969863433
C  C209  1  0.28554000  0.65420000  0.71446000  1.0 -0.0094403639
C  C210  1  0.26330000  0.61020000  0.73670000  1.0 -0.1969863433
C  C211  1  0.71446000  0.65420000  0.28554000  1.0 -0.0094403639
C  C212  1  0.73670000  0.61020000  0.26330000  1.0 -0.1969863433
C  C213  1  0.28554000  0.34580000  0.28554000  1.0 -0.0094403639
C  C214  1  0.26330000  0.38980000  0.26330000  1.0 -0.1969863433
C  C215  1  0.71446000  0.34580000  0.71446000  1.0 -0.0094403639
C  C216  1  0.73670000  0.38980000  0.73670000  1.0 -0.1969863433
C  C217  1  0.28554000  0.71446000  0.34580000  1.0 -0.0094403639
C  C218  1  0.26330000  0.73670000  0.38980000  1.0 -0.1969863433
C  C219  1  0.71446000  0.28554000  0.34580000  1.0 -0.0094403639
C  C220  1  0.73670000  0.26330000  0.38980000  1.0 -0.1969863433
C  C221  1  0.28554000  0.28554000  0.65420000  1.0 -0.0094403639
C  C222  1  0.26330000  0.26330000  0.61020000  1.0 -0.1969863433
C  C223  1  0.71446000  0.71446000  0.65420000  1.0 -0.0094403639
C  C224  1  0.73670000  0.73670000  0.61020000  1.0 -0.1969863433
C  C225  1  0.71446000  0.65420000  0.71446000  1.0 -0.0094403639
C  C226  1  0.73670000  0.61020000  0.73670000  1.0 -0.1969863433
C  C227  1  0.28554000  0.65420000  0.28554000  1.0 -0.0094403639
C  C228  1  0.26330000  0.61020000  0.26330000  1.0 -0.1969863433
C  C229  1  0.28554000  0.34580000  0.71446000  1.0 -0.0094403639
C  C230  1  0.26330000  0.38980000  0.73670000  1.0 -0.1969863433
C  C231  1  0.71446000  0.34580000  0.28554000  1.0 -0.0094403639
C  C232  1  0.73670000  0.38980000  0.26330000  1.0 -0.1969863433
C  C233  1  0.65420000  0.28554000  0.28554000  1.0 -0.0094403639
C  C234  1  0.61020000  0.26330000  0.26330000  1.0 -0.1969863433
C  C235  1  0.65420000  0.71446000  0.71446000  1.0 -0.0094403639
C  C236  1  0.61020000  0.73670000  0.73670000  1.0 -0.1969863433
C  C237  1  0.34580000  0.28554000  0.71446000  1.0 -0.0094403639
C  C238  1  0.38980000  0.26330000  0.73670000  1.0 -0.1969863433
C  C239  1  0.34580000  0.71446000  0.28554000  1.0 -0.0094403639
C  C240  1  0.38980000  0.73670000  0.26330000  1.0 -0.1969863433
O  O1  1  0.43760000  0.04182000  0.50000000  1.0 -1.1071644279
O  O2  1  0.56240000  0.95818000  0.50000000  1.0 -1.1071644279
O  O3  1  0.56240000  0.04182000  0.50000000  1.0 -1.1071644279
O  O4  1  0.43760000  0.95818000  0.50000000  1.0 -1.1071644279
O  O5  1  0.50000000  0.43760000  0.04182000  1.0 -1.1071644279
O  O6  1  0.50000000  0.56240000  0.95818000  1.0 -1.1071644279
O  O7  1  0.50000000  0.56240000  0.04182000  1.0 -1.1071644279
O  O8  1  0.50000000  0.43760000  0.95818000  1.0 -1.1071644279
O  O9  1  0.04182000  0.50000000  0.43760000  1.0 -1.1071644279
O  O10  1  0.95818000  0.50000000  0.56240000  1.0 -1.1071644279
O  O11  1  0.04182000  0.50000000  0.56240000  1.0 -1.1071644279
O  O12  1  0.95818000  0.50000000  0.43760000  1.0 -1.1071644279
O  O13  1  0.04182000  0.43760000  0.50000000  1.0 -1.1071644279
O  O14  1  0.95818000  0.56240000  0.50000000  1.0 -1.1071644279
O  O15  1  0.04182000  0.56240000  0.50000000  1.0 -1.1071644279
O  O16  1  0.95818000  0.43760000  0.50000000  1.0 -1.1071644279
O  O17  1  0.43760000  0.50000000  0.95818000  1.0 -1.1071644279
O  O18  1  0.56240000  0.50000000  0.04182000  1.0 -1.1071644279
O  O19  1  0.56240000  0.50000000  0.95818000  1.0 -1.1071644279
O  O20  1  0.43760000  0.50000000  0.04182000  1.0 -1.1071644279
O  O21  1  0.50000000  0.04182000  0.56240000  1.0 -1.1071644279
O  O22  1  0.50000000  0.95818000  0.43760000  1.0 -1.1071644279
O  O23  1  0.50000000  0.04182000  0.43760000  1.0 -1.1071644279
O  O24  1  0.50000000  0.95818000  0.56240000  1.0 -1.1071644279
O  O25  1  0.54696000  0.12579000  0.54696000  1.0 -0.609303343
O  O26  1  0.58809000  0.07074000  0.58809000  1.0 -0.5919490757
O  O27  1  0.45304000  0.87421000  0.54696000  1.0 -0.609303343
O  O28  1  0.41191000  0.92926000  0.58809000  1.0 -0.5919490757
O  O29  1  0.45304000  0.12579000  0.45304000  1.0 -0.609303343
O  O30  1  0.41191000  0.07074000  0.41191000  1.0 -0.5919490757
O  O31  1  0.54696000  0.87421000  0.45304000  1.0 -0.609303343
O  O32  1  0.58809000  0.92926000  0.41191000  1.0 -0.5919490757
O  O33  1  0.54696000  0.54696000  0.12579000  1.0 -0.609303343
O  O34  1  0.58809000  0.58809000  0.07074000  1.0 -0.5919490757
O  O35  1  0.54696000  0.45304000  0.87421000  1.0 -0.609303343
O  O36  1  0.58809000  0.41191000  0.92926000  1.0 -0.5919490757
O  O37  1  0.45304000  0.45304000  0.12579000  1.0 -0.609303343
O  O38  1  0.41191000  0.41191000  0.07074000  1.0 -0.5919490757
O  O39  1  0.45304000  0.54696000  0.87421000  1.0 -0.609303343
O  O40  1  0.41191000  0.58809000  0.92926000  1.0 -0.5919490757
O  O41  1  0.12579000  0.54696000  0.54696000  1.0 -0.609303343
O  O42  1  0.07074000  0.58809000  0.58809000  1.0 -0.5919490757
O  O43  1  0.87421000  0.54696000  0.45304000  1.0 -0.609303343
O  O44  1  0.92926000  0.58809000  0.41191000  1.0 -0.5919490757
O  O45  1  0.12579000  0.45304000  0.45304000  1.0 -0.609303343
O  O46  1  0.07074000  0.41191000  0.41191000  1.0 -0.5919490757
O  O47  1  0.87421000  0.45304000  0.54696000  1.0 -0.609303343
O  O48  1  0.92926000  0.41191000  0.58809000  1.0 -0.5919490757
O  O49  1  0.12579000  0.54696000  0.45304000  1.0 -0.609303343
O  O50  1  0.07074000  0.58809000  0.41191000  1.0 -0.5919490757
O  O51  1  0.87421000  0.45304000  0.45304000  1.0 -0.609303343
O  O52  1  0.92926000  0.41191000  0.41191000  1.0 -0.5919490757
O  O53  1  0.12579000  0.45304000  0.54696000  1.0 -0.609303343
O  O54  1  0.07074000  0.41191000  0.58809000  1.0 -0.5919490757
O  O55  1  0.87421000  0.54696000  0.54696000  1.0 -0.609303343
O  O56  1  0.92926000  0.58809000  0.58809000  1.0 -0.5919490757
O  O57  1  0.54696000  0.54696000  0.87421000  1.0 -0.609303343
O  O58  1  0.58809000  0.58809000  0.92926000  1.0 -0.5919490757
O  O59  1  0.45304000  0.54696000  0.12579000  1.0 -0.609303343
O  O60  1  0.41191000  0.58809000  0.07074000  1.0 -0.5919490757
O  O61  1  0.45304000  0.45304000  0.87421000  1.0 -0.609303343
O  O62  1  0.41191000  0.41191000  0.92926000  1.0 -0.5919490757
O  O63  1  0.54696000  0.45304000  0.12579000  1.0 -0.609303343
O  O64  1  0.58809000  0.41191000  0.07074000  1.0 -0.5919490757
O  O65  1  0.54696000  0.12579000  0.45304000  1.0 -0.609303343
O  O66  1  0.58809000  0.07074000  0.41191000  1.0 -0.5919490757
O  O67  1  0.54696000  0.87421000  0.54696000  1.0 -0.609303343
O  O68  1  0.58809000  0.92926000  0.58809000  1.0 -0.5919490757
O  O69  1  0.45304000  0.12579000  0.54696000  1.0 -0.609303343
O  O70  1  0.41191000  0.07074000  0.58809000  1.0 -0.5919490757
O  O71  1  0.45304000  0.87421000  0.45304000  1.0 -0.609303343
O  O72  1  0.41191000  0.92926000  0.41191000  1.0 -0.5919490757
O  O73  1  0.44149000  0.00000000  0.35868000  1.0 -0.609303343
O  O74  1  0.55851000  0.00000000  0.35868000  1.0 -0.609303343
O  O75  1  0.55851000  0.00000000  0.64132000  1.0 -0.609303343
O  O76  1  0.44149000  0.00000000  0.64132000  1.0 -0.609303343
O  O77  1  0.35868000  0.44149000  0.00000000  1.0 -0.609303343
O  O78  1  0.35868000  0.55851000  0.00000000  1.0 -0.609303343
O  O79  1  0.64132000  0.55851000  0.00000000  1.0 -0.609303343
O  O80  1  0.64132000  0.44149000  0.00000000  1.0 -0.609303343
O  O81  1  0.00000000  0.35868000  0.44149000  1.0 -0.609303343
O  O82  1  0.00000000  0.35868000  0.55851000  1.0 -0.609303343
O  O83  1  0.00000000  0.64132000  0.55851000  1.0 -0.609303343
O  O84  1  0.00000000  0.64132000  0.44149000  1.0 -0.609303343
O  O85  1  0.00000000  0.44149000  0.64132000  1.0 -0.609303343
O  O86  1  0.00000000  0.55851000  0.64132000  1.0 -0.609303343
O  O87  1  0.00000000  0.55851000  0.35868000  1.0 -0.609303343
O  O88  1  0.00000000  0.44149000  0.35868000  1.0 -0.609303343
O  O89  1  0.44149000  0.35868000  0.00000000  1.0 -0.609303343
O  O90  1  0.55851000  0.35868000  0.00000000  1.0 -0.609303343
O  O91  1  0.55851000  0.64132000  0.00000000  1.0 -0.609303343
O  O92  1  0.44149000  0.64132000  0.00000000  1.0 -0.609303343
O  O93  1  0.35868000  0.00000000  0.55851000  1.0 -0.609303343
O  O94  1  0.35868000  0.00000000  0.44149000  1.0 -0.609303343
O  O95  1  0.64132000  0.00000000  0.44149000  1.0 -0.609303343
O  O96  1  0.64132000  0.00000000  0.55851000  1.0 -0.609303343
O  O97  1  0.50000000  0.06700000  0.31700000  1.0 -0.6558430371
O  O98  1  0.50000000  0.93300000  0.31700000  1.0 -0.6558430371
O  O99  1  0.50000000  0.06700000  0.68300000  1.0 -0.6558430371
O  O100  1  0.50000000  0.93300000  0.68300000  1.0 -0.6558430371
O  O101  1  0.31700000  0.50000000  0.06700000  1.0 -0.6558430371
O  O102  1  0.31700000  0.50000000  0.93300000  1.0 -0.6558430371
O  O103  1  0.68300000  0.50000000  0.06700000  1.0 -0.6558430371
O  O104  1  0.68300000  0.50000000  0.93300000  1.0 -0.6558430371
O  O105  1  0.06700000  0.31700000  0.50000000  1.0 -0.6558430371
O  O106  1  0.93300000  0.31700000  0.50000000  1.0 -0.6558430371
O  O107  1  0.06700000  0.68300000  0.50000000  1.0 -0.6558430371
O  O108  1  0.93300000  0.68300000  0.50000000  1.0 -0.6558430371
O  O109  1  0.06700000  0.50000000  0.68300000  1.0 -0.6558430371
O  O110  1  0.93300000  0.50000000  0.68300000  1.0 -0.6558430371
O  O111  1  0.06700000  0.50000000  0.31700000  1.0 -0.6558430371
O  O112  1  0.93300000  0.50000000  0.31700000  1.0 -0.6558430371
O  O113  1  0.50000000  0.31700000  0.93300000  1.0 -0.6558430371
O  O114  1  0.50000000  0.31700000  0.06700000  1.0 -0.6558430371
O  O115  1  0.50000000  0.68300000  0.93300000  1.0 -0.6558430371
O  O116  1  0.50000000  0.68300000  0.06700000  1.0 -0.6558430371
O  O117  1  0.31700000  0.06700000  0.50000000  1.0 -0.6558430371
O  O118  1  0.31700000  0.93300000  0.50000000  1.0 -0.6558430371
O  O119  1  0.68300000  0.06700000  0.50000000  1.0 -0.6558430371
O  O120  1  0.68300000  0.93300000  0.50000000  1.0 -0.6558430371
