# DDEC6 charges by PACMAN v1.1 (https://github.com/mtap-research/PACMAN-charge/)
data_IPADUB_ASR_pacman
_symmetry_space_group_name_H-M   'P 1'
_cell_length_a   28.14500000
_cell_length_b   28.14500000
_cell_length_c   28.14500000
_cell_angle_alpha   90.00000000
_cell_angle_beta   90.00000000
_cell_angle_gamma   90.00000000
_symmetry_Int_Tables_number   1
_chemical_formula_structural   Zr3Mo4H40(C5O2)8
_chemical_formula_sum   'Zr18 Mo24 H240 C240 O96'
_cell_volume   22294.80914863
_cell_formula_units_Z   6
loop_
 _symmetry_equiv_pos_site_id
 _symmetry_equiv_pos_as_xyz
  1  'x, y, z'
loop_
 _atom_site_type_symbol
 _atom_site_label
 _atom_site_symmetry_multiplicity
 _atom_site_fract_x
 _atom_site_fract_y
 _atom_site_fract_z
 _atom_site_occupancy
 _atom_site_charge
Zr  Zr1  1  0.00000000  0.56287000  0.56287000  1.0 2.4585978474
Zr  Zr2  1  0.00000000  0.43713000  0.56287000  1.0 2.4585978474
Zr  Zr3  1  0.00000000  0.56287000  0.43713000  1.0 2.4585978474
Zr  Zr4  1  0.00000000  0.43713000  0.43713000  1.0 2.4585978474
Zr  Zr5  1  0.56287000  0.00000000  0.56287000  1.0 2.4585978474
Zr  Zr6  1  0.56287000  0.00000000  0.43713000  1.0 2.4585978474
Zr  Zr7  1  0.43713000  0.00000000  0.56287000  1.0 2.4585978474
Zr  Zr8  1  0.43713000  0.00000000  0.43713000  1.0 2.4585978474
Zr  Zr9  1  0.56287000  0.56287000  0.00000000  1.0 2.4585978474
Zr  Zr10  1  0.43713000  0.56287000  0.00000000  1.0 2.4585978474
Zr  Zr11  1  0.56287000  0.43713000  0.00000000  1.0 2.4585978474
Zr  Zr12  1  0.43713000  0.43713000  0.00000000  1.0 2.4585978474
Zr  Zr13  1  0.08783000  0.50000000  0.50000000  1.0 2.3135644878
Zr  Zr14  1  0.91217000  0.50000000  0.50000000  1.0 2.3135644878
Zr  Zr15  1  0.50000000  0.08783000  0.50000000  1.0 2.3135644878
Zr  Zr16  1  0.50000000  0.91217000  0.50000000  1.0 2.3135644878
Zr  Zr17  1  0.50000000  0.50000000  0.08783000  1.0 2.3135644878
Zr  Zr18  1  0.50000000  0.50000000  0.91217000  1.0 2.3135644878
Mo  Mo1  1  0.05630000  0.66290000  0.50000000  1.0 1.1836884007
Mo  Mo2  1  0.94370000  0.33710000  0.50000000  1.0 1.1861431783
Mo  Mo3  1  0.94370000  0.66290000  0.50000000  1.0 1.1861431783
Mo  Mo4  1  0.05630000  0.33710000  0.50000000  1.0 1.1836884007
Mo  Mo5  1  0.50000000  0.05630000  0.66290000  1.0 1.1861431783
Mo  Mo6  1  0.50000000  0.94370000  0.33710000  1.0 1.1836884007
Mo  Mo7  1  0.50000000  0.94370000  0.66290000  1.0 1.1836884007
Mo  Mo8  1  0.50000000  0.05630000  0.33710000  1.0 1.1861431783
Mo  Mo9  1  0.66290000  0.50000000  0.05630000  1.0 1.1861431783
Mo  Mo10  1  0.33710000  0.50000000  0.94370000  1.0 1.1836884007
Mo  Mo11  1  0.66290000  0.50000000  0.94370000  1.0 1.1861431783
Mo  Mo12  1  0.33710000  0.50000000  0.05630000  1.0 1.1836884007
Mo  Mo13  1  0.66290000  0.05630000  0.50000000  1.0 1.1861431783
Mo  Mo14  1  0.33710000  0.94370000  0.50000000  1.0 1.1836884007
Mo  Mo15  1  0.66290000  0.94370000  0.50000000  1.0 1.1836884007
Mo  Mo16  1  0.33710000  0.05630000  0.50000000  1.0 1.1861431783
Mo  Mo17  1  0.05630000  0.50000000  0.33710000  1.0 1.1836884007
Mo  Mo18  1  0.94370000  0.50000000  0.66290000  1.0 1.1861431783
Mo  Mo19  1  0.94370000  0.50000000  0.33710000  1.0 1.1861431783
Mo  Mo20  1  0.05630000  0.50000000  0.66290000  1.0 1.1836884007
Mo  Mo21  1  0.50000000  0.66290000  0.94370000  1.0 1.1836884007
Mo  Mo22  1  0.50000000  0.33710000  0.05630000  1.0 1.1861431783
Mo  Mo23  1  0.50000000  0.66290000  0.05630000  1.0 1.1836884007
Mo  Mo24  1  0.50000000  0.33710000  0.94370000  1.0 1.1861431783
H  H1  1  0.23450000  0.71908000  0.59978000  1.0 0.0361575498
H  H2  1  0.28584000  0.73706000  0.58325000  1.0 0.0361575498
H  H3  1  0.25323000  0.77029000  0.61588000  1.0 0.0205429191
H  H4  1  0.76550000  0.28092000  0.59978000  1.0 0.0361575498
H  H5  1  0.71416000  0.26294000  0.58325000  1.0 0.0361575498
H  H6  1  0.74677000  0.22971000  0.61588000  1.0 0.0205429191
H  H7  1  0.76550000  0.71908000  0.40022000  1.0 0.0361575498
H  H8  1  0.71416000  0.73706000  0.41675000  1.0 0.0361575498
H  H9  1  0.74677000  0.77029000  0.38412000  1.0 0.0205429191
H  H10  1  0.23450000  0.28092000  0.40022000  1.0 0.0361575498
H  H11  1  0.28584000  0.26294000  0.41675000  1.0 0.0361575498
H  H12  1  0.25323000  0.22971000  0.38412000  1.0 0.0205429191
H  H13  1  0.59978000  0.23450000  0.71908000  1.0 0.0361575498
H  H14  1  0.58325000  0.28584000  0.73706000  1.0 0.0361575498
H  H15  1  0.61588000  0.25323000  0.77029000  1.0 0.0205429191
H  H16  1  0.59978000  0.76550000  0.28092000  1.0 0.0361575498
H  H17  1  0.58325000  0.71416000  0.26294000  1.0 0.0361575498
H  H18  1  0.61588000  0.74677000  0.22971000  1.0 0.0205429191
H  H19  1  0.40022000  0.76550000  0.71908000  1.0 0.0361575498
H  H20  1  0.41675000  0.71416000  0.73706000  1.0 0.0361575498
H  H21  1  0.38412000  0.74677000  0.77029000  1.0 0.0205429191
H  H22  1  0.40022000  0.23450000  0.28092000  1.0 0.0361575498
H  H23  1  0.41675000  0.28584000  0.26294000  1.0 0.0361575498
H  H24  1  0.38412000  0.25323000  0.22971000  1.0 0.0205429191
H  H25  1  0.71908000  0.59978000  0.23450000  1.0 0.0361575498
H  H26  1  0.73706000  0.58325000  0.28584000  1.0 0.0361575498
H  H27  1  0.77029000  0.61588000  0.25323000  1.0 0.0205429191
H  H28  1  0.28092000  0.59978000  0.76550000  1.0 0.0361575498
H  H29  1  0.26294000  0.58325000  0.71416000  1.0 0.0361575498
H  H30  1  0.22971000  0.61588000  0.74677000  1.0 0.0205429191
H  H31  1  0.71908000  0.40022000  0.76550000  1.0 0.0361575498
H  H32  1  0.73706000  0.41675000  0.71416000  1.0 0.0361575498
H  H33  1  0.77029000  0.38412000  0.74677000  1.0 0.0205429191
H  H34  1  0.28092000  0.40022000  0.23450000  1.0 0.0361575498
H  H35  1  0.26294000  0.41675000  0.28584000  1.0 0.0361575498
H  H36  1  0.22971000  0.38412000  0.25323000  1.0 0.0205429191
H  H37  1  0.71908000  0.23450000  0.40022000  1.0 0.0361575498
H  H38  1  0.73706000  0.28584000  0.41675000  1.0 0.0361575498
H  H39  1  0.77029000  0.25323000  0.38412000  1.0 0.0205429191
H  H40  1  0.28092000  0.76550000  0.40022000  1.0 0.0361575498
H  H41  1  0.26294000  0.71416000  0.41675000  1.0 0.0361575498
H  H42  1  0.22971000  0.74677000  0.38412000  1.0 0.0205429191
H  H43  1  0.71908000  0.76550000  0.59978000  1.0 0.0361575498
H  H44  1  0.73706000  0.71416000  0.58325000  1.0 0.0361575498
H  H45  1  0.77029000  0.74677000  0.61588000  1.0 0.0205429191
H  H46  1  0.28092000  0.23450000  0.59978000  1.0 0.0361575498
H  H47  1  0.26294000  0.28584000  0.58325000  1.0 0.0361575498
H  H48  1  0.22971000  0.25323000  0.61588000  1.0 0.0205429191
H  H49  1  0.23450000  0.59978000  0.28092000  1.0 0.0361575498
H  H50  1  0.28584000  0.58325000  0.26294000  1.0 0.0361575498
H  H51  1  0.25323000  0.61588000  0.22971000  1.0 0.0205429191
H  H52  1  0.76550000  0.59978000  0.71908000  1.0 0.0361575498
H  H53  1  0.71416000  0.58325000  0.73706000  1.0 0.0361575498
H  H54  1  0.74677000  0.61588000  0.77029000  1.0 0.0205429191
H  H55  1  0.76550000  0.40022000  0.28092000  1.0 0.0361575498
H  H56  1  0.71416000  0.41675000  0.26294000  1.0 0.0361575498
H  H57  1  0.74677000  0.38412000  0.22971000  1.0 0.0205429191
H  H58  1  0.23450000  0.40022000  0.71908000  1.0 0.0361575498
H  H59  1  0.28584000  0.41675000  0.73706000  1.0 0.0361575498
H  H60  1  0.25323000  0.38412000  0.77029000  1.0 0.0205429191
H  H61  1  0.59978000  0.71908000  0.76550000  1.0 0.0361575498
H  H62  1  0.58325000  0.73706000  0.71416000  1.0 0.0361575498
H  H63  1  0.61588000  0.77029000  0.74677000  1.0 0.0205429191
H  H64  1  0.59978000  0.28092000  0.23450000  1.0 0.0361575498
H  H65  1  0.58325000  0.26294000  0.28584000  1.0 0.0361575498
H  H66  1  0.61588000  0.22971000  0.25323000  1.0 0.0205429191
H  H67  1  0.40022000  0.71908000  0.23450000  1.0 0.0361575498
H  H68  1  0.41675000  0.73706000  0.28584000  1.0 0.0361575498
H  H69  1  0.38412000  0.77029000  0.25323000  1.0 0.0205429191
H  H70  1  0.40022000  0.28092000  0.76550000  1.0 0.0361575498
H  H71  1  0.41675000  0.26294000  0.71416000  1.0 0.0361575498
H  H72  1  0.38412000  0.22971000  0.74677000  1.0 0.0205429191
H  H73  1  0.76550000  0.28092000  0.40022000  1.0 0.0361575498
H  H74  1  0.71416000  0.26294000  0.41675000  1.0 0.0361575498
H  H75  1  0.74677000  0.22971000  0.38412000  1.0 0.0205429191
H  H76  1  0.23450000  0.71908000  0.40022000  1.0 0.0361575498
H  H77  1  0.28584000  0.73706000  0.41675000  1.0 0.0361575498
H  H78  1  0.25323000  0.77029000  0.38412000  1.0 0.0205429191
H  H79  1  0.23450000  0.28092000  0.59978000  1.0 0.0361575498
H  H80  1  0.28584000  0.26294000  0.58325000  1.0 0.0361575498
H  H81  1  0.25323000  0.22971000  0.61588000  1.0 0.0205429191
H  H82  1  0.76550000  0.71908000  0.59978000  1.0 0.0361575498
H  H83  1  0.71416000  0.73706000  0.58325000  1.0 0.0361575498
H  H84  1  0.74677000  0.77029000  0.61588000  1.0 0.0205429191
H  H85  1  0.40022000  0.76550000  0.28092000  1.0 0.0361575498
H  H86  1  0.41675000  0.71416000  0.26294000  1.0 0.0361575498
H  H87  1  0.38412000  0.74677000  0.22971000  1.0 0.0205429191
H  H88  1  0.40022000  0.23450000  0.71908000  1.0 0.0361575498
H  H89  1  0.41675000  0.28584000  0.73706000  1.0 0.0361575498
H  H90  1  0.38412000  0.25323000  0.77029000  1.0 0.0205429191
H  H91  1  0.59978000  0.23450000  0.28092000  1.0 0.0361575498
H  H92  1  0.58325000  0.28584000  0.26294000  1.0 0.0361575498
H  H93  1  0.61588000  0.25323000  0.22971000  1.0 0.0205429191
H  H94  1  0.59978000  0.76550000  0.71908000  1.0 0.0361575498
H  H95  1  0.58325000  0.71416000  0.73706000  1.0 0.0361575498
H  H96  1  0.61588000  0.74677000  0.77029000  1.0 0.0205429191
H  H97  1  0.28092000  0.40022000  0.76550000  1.0 0.0361575498
H  H98  1  0.26294000  0.41675000  0.71416000  1.0 0.0361575498
H  H99  1  0.22971000  0.38412000  0.74677000  1.0 0.0205429191
H  H100  1  0.71908000  0.40022000  0.23450000  1.0 0.0361575498
H  H101  1  0.73706000  0.41675000  0.28584000  1.0 0.0361575498
H  H102  1  0.77029000  0.38412000  0.25323000  1.0 0.0205429191
H  H103  1  0.28092000  0.59978000  0.23450000  1.0 0.0361575498
H  H104  1  0.26294000  0.58325000  0.28584000  1.0 0.0361575498
H  H105  1  0.22971000  0.61588000  0.25323000  1.0 0.0205429191
H  H106  1  0.71908000  0.59978000  0.76550000  1.0 0.0361575498
H  H107  1  0.73706000  0.58325000  0.71416000  1.0 0.0361575498
H  H108  1  0.77029000  0.61588000  0.74677000  1.0 0.0205429191
H  H109  1  0.28092000  0.76550000  0.59978000  1.0 0.0361575498
H  H110  1  0.26294000  0.71416000  0.58325000  1.0 0.0361575498
H  H111  1  0.22971000  0.74677000  0.61588000  1.0 0.0205429191
H  H112  1  0.71908000  0.23450000  0.59978000  1.0 0.0361575498
H  H113  1  0.73706000  0.28584000  0.58325000  1.0 0.0361575498
H  H114  1  0.77029000  0.25323000  0.61588000  1.0 0.0205429191
H  H115  1  0.28092000  0.23450000  0.40022000  1.0 0.0361575498
H  H116  1  0.26294000  0.28584000  0.41675000  1.0 0.0361575498
H  H117  1  0.22971000  0.25323000  0.38412000  1.0 0.0205429191
H  H118  1  0.71908000  0.76550000  0.40022000  1.0 0.0361575498
H  H119  1  0.73706000  0.71416000  0.41675000  1.0 0.0361575498
H  H120  1  0.77029000  0.74677000  0.38412000  1.0 0.0205429191
H  H121  1  0.76550000  0.40022000  0.71908000  1.0 0.0361575498
H  H122  1  0.71416000  0.41675000  0.73706000  1.0 0.0361575498
H  H123  1  0.74677000  0.38412000  0.77029000  1.0 0.0205429191
H  H124  1  0.23450000  0.40022000  0.28092000  1.0 0.0361575498
H  H125  1  0.28584000  0.41675000  0.26294000  1.0 0.0361575498
H  H126  1  0.25323000  0.38412000  0.22971000  1.0 0.0205429191
H  H127  1  0.23450000  0.59978000  0.71908000  1.0 0.0361575498
H  H128  1  0.28584000  0.58325000  0.73706000  1.0 0.0361575498
H  H129  1  0.25323000  0.61588000  0.77029000  1.0 0.0205429191
H  H130  1  0.76550000  0.59978000  0.28092000  1.0 0.0361575498
H  H131  1  0.71416000  0.58325000  0.26294000  1.0 0.0361575498
H  H132  1  0.74677000  0.61588000  0.22971000  1.0 0.0205429191
H  H133  1  0.40022000  0.28092000  0.23450000  1.0 0.0361575498
H  H134  1  0.41675000  0.26294000  0.28584000  1.0 0.0361575498
H  H135  1  0.38412000  0.22971000  0.25323000  1.0 0.0205429191
H  H136  1  0.40022000  0.71908000  0.76550000  1.0 0.0361575498
H  H137  1  0.41675000  0.73706000  0.71416000  1.0 0.0361575498
H  H138  1  0.38412000  0.77029000  0.74677000  1.0 0.0205429191
H  H139  1  0.59978000  0.28092000  0.76550000  1.0 0.0361575498
H  H140  1  0.58325000  0.26294000  0.71416000  1.0 0.0361575498
H  H141  1  0.61588000  0.22971000  0.74677000  1.0 0.0205429191
H  H142  1  0.59978000  0.71908000  0.23450000  1.0 0.0361575498
H  H143  1  0.58325000  0.73706000  0.28584000  1.0 0.0361575498
H  H144  1  0.61588000  0.77029000  0.25323000  1.0 0.0205429191
H  H145  1  0.20678000  0.57177000  0.57177000  1.0 0.1112820989
H  H146  1  0.10855000  0.64395000  0.64395000  1.0 0.0905741042
H  H147  1  0.16949000  0.68419000  0.68419000  1.0 0.1458016986
H  H148  1  0.26466000  0.61047000  0.61047000  1.0 0.1334921157
H  H149  1  0.79322000  0.42823000  0.57177000  1.0 0.1112820989
H  H150  1  0.89145000  0.35605000  0.64395000  1.0 0.0905741042
H  H151  1  0.83051000  0.31581000  0.68419000  1.0 0.1458016986
H  H152  1  0.73534000  0.38953000  0.61047000  1.0 0.1334921157
H  H153  1  0.79322000  0.57177000  0.42823000  1.0 0.1112820989
H  H154  1  0.89145000  0.64395000  0.35605000  1.0 0.0905741042
H  H155  1  0.83051000  0.68419000  0.31581000  1.0 0.1458016986
H  H156  1  0.73534000  0.61047000  0.38953000  1.0 0.1334921157
H  H157  1  0.20678000  0.42823000  0.42823000  1.0 0.1112820989
H  H158  1  0.10855000  0.35605000  0.35605000  1.0 0.0905741042
H  H159  1  0.16949000  0.31581000  0.31581000  1.0 0.1458016986
H  H160  1  0.26466000  0.38953000  0.38953000  1.0 0.1334921157
H  H161  1  0.57177000  0.20678000  0.57177000  1.0 0.1112820989
H  H162  1  0.64395000  0.10855000  0.64395000  1.0 0.0905741042
H  H163  1  0.68419000  0.16949000  0.68419000  1.0 0.1458016986
H  H164  1  0.61047000  0.26466000  0.61047000  1.0 0.1334921157
H  H165  1  0.57177000  0.79322000  0.42823000  1.0 0.1112820989
H  H166  1  0.64395000  0.89145000  0.35605000  1.0 0.0905741042
H  H167  1  0.68419000  0.83051000  0.31581000  1.0 0.1458016986
H  H168  1  0.61047000  0.73534000  0.38953000  1.0 0.1334921157
H  H169  1  0.42823000  0.79322000  0.57177000  1.0 0.1112820989
H  H170  1  0.35605000  0.89145000  0.64395000  1.0 0.0905741042
H  H171  1  0.31581000  0.83051000  0.68419000  1.0 0.1458016986
H  H172  1  0.38953000  0.73534000  0.61047000  1.0 0.1334921157
H  H173  1  0.42823000  0.20678000  0.42823000  1.0 0.1112820989
H  H174  1  0.35605000  0.10855000  0.35605000  1.0 0.0905741042
H  H175  1  0.31581000  0.16949000  0.31581000  1.0 0.1458016986
H  H176  1  0.38953000  0.26466000  0.38953000  1.0 0.1334921157
H  H177  1  0.57177000  0.57177000  0.20678000  1.0 0.1112820989
H  H178  1  0.64395000  0.64395000  0.10855000  1.0 0.0905741042
H  H179  1  0.68419000  0.68419000  0.16949000  1.0 0.1458016986
H  H180  1  0.61047000  0.61047000  0.26466000  1.0 0.1334921157
H  H181  1  0.42823000  0.57177000  0.79322000  1.0 0.1112820989
H  H182  1  0.35605000  0.64395000  0.89145000  1.0 0.0905741042
H  H183  1  0.31581000  0.68419000  0.83051000  1.0 0.1458016986
H  H184  1  0.38953000  0.61047000  0.73534000  1.0 0.1334921157
H  H185  1  0.57177000  0.42823000  0.79322000  1.0 0.1112820989
H  H186  1  0.64395000  0.35605000  0.89145000  1.0 0.0905741042
H  H187  1  0.68419000  0.31581000  0.83051000  1.0 0.1458016986
H  H188  1  0.61047000  0.38953000  0.73534000  1.0 0.1334921157
H  H189  1  0.42823000  0.42823000  0.20678000  1.0 0.1112820989
H  H190  1  0.35605000  0.35605000  0.10855000  1.0 0.0905741042
H  H191  1  0.31581000  0.31581000  0.16949000  1.0 0.1458016986
H  H192  1  0.38953000  0.38953000  0.26466000  1.0 0.1334921157
H  H193  1  0.57177000  0.20678000  0.42823000  1.0 0.1112820989
H  H194  1  0.64395000  0.10855000  0.35605000  1.0 0.0905741042
H  H195  1  0.68419000  0.16949000  0.31581000  1.0 0.1458016986
H  H196  1  0.61047000  0.26466000  0.38953000  1.0 0.1334921157
H  H197  1  0.42823000  0.79322000  0.42823000  1.0 0.1112820989
H  H198  1  0.35605000  0.89145000  0.35605000  1.0 0.0905741042
H  H199  1  0.31581000  0.83051000  0.31581000  1.0 0.1458016986
H  H200  1  0.38953000  0.73534000  0.38953000  1.0 0.1334921157
H  H201  1  0.57177000  0.79322000  0.57177000  1.0 0.1112820989
H  H202  1  0.64395000  0.89145000  0.64395000  1.0 0.0905741042
H  H203  1  0.68419000  0.83051000  0.68419000  1.0 0.1458016986
H  H204  1  0.61047000  0.73534000  0.61047000  1.0 0.1334921157
H  H205  1  0.42823000  0.20678000  0.57177000  1.0 0.1112820989
H  H206  1  0.35605000  0.10855000  0.64395000  1.0 0.0905741042
H  H207  1  0.31581000  0.16949000  0.68419000  1.0 0.1458016986
H  H208  1  0.38953000  0.26466000  0.61047000  1.0 0.1334921157
H  H209  1  0.20678000  0.57177000  0.42823000  1.0 0.1112820989
H  H210  1  0.10855000  0.64395000  0.35605000  1.0 0.0905741042
H  H211  1  0.16949000  0.68419000  0.31581000  1.0 0.1458016986
H  H212  1  0.26466000  0.61047000  0.38953000  1.0 0.1334921157
H  H213  1  0.79322000  0.57177000  0.57177000  1.0 0.1112820989
H  H214  1  0.89145000  0.64395000  0.64395000  1.0 0.0905741042
H  H215  1  0.83051000  0.68419000  0.68419000  1.0 0.1458016986
H  H216  1  0.73534000  0.61047000  0.61047000  1.0 0.1334921157
H  H217  1  0.79322000  0.42823000  0.42823000  1.0 0.1112820989
H  H218  1  0.89145000  0.35605000  0.35605000  1.0 0.0905741042
H  H219  1  0.83051000  0.31581000  0.31581000  1.0 0.1458016986
H  H220  1  0.73534000  0.38953000  0.38953000  1.0 0.1334921157
H  H221  1  0.20678000  0.42823000  0.57177000  1.0 0.1112820989
H  H222  1  0.10855000  0.35605000  0.64395000  1.0 0.0905741042
H  H223  1  0.16949000  0.31581000  0.68419000  1.0 0.1458016986
H  H224  1  0.26466000  0.38953000  0.61047000  1.0 0.1334921157
H  H225  1  0.57177000  0.57177000  0.79322000  1.0 0.1112820989
H  H226  1  0.64395000  0.64395000  0.89145000  1.0 0.0905741042
H  H227  1  0.68419000  0.68419000  0.83051000  1.0 0.1458016986
H  H228  1  0.61047000  0.61047000  0.73534000  1.0 0.1334921157
H  H229  1  0.57177000  0.42823000  0.20678000  1.0 0.1112820989
H  H230  1  0.64395000  0.35605000  0.10855000  1.0 0.0905741042
H  H231  1  0.68419000  0.31581000  0.16949000  1.0 0.1458016986
H  H232  1  0.61047000  0.38953000  0.26466000  1.0 0.1334921157
H  H233  1  0.42823000  0.57177000  0.20678000  1.0 0.1112820989
H  H234  1  0.35605000  0.64395000  0.10855000  1.0 0.0905741042
H  H235  1  0.31581000  0.68419000  0.16949000  1.0 0.1458016986
H  H236  1  0.38953000  0.61047000  0.26466000  1.0 0.1334921157
H  H237  1  0.42823000  0.42823000  0.79322000  1.0 0.1112820989
H  H238  1  0.35605000  0.35605000  0.89145000  1.0 0.0905741042
H  H239  1  0.31581000  0.31581000  0.83051000  1.0 0.1458016986
H  H240  1  0.38953000  0.38953000  0.73534000  1.0 0.1334921157
C  C1  1  0.15050000  0.60210000  0.60210000  1.0 -0.1076197589
C  C2  1  0.26270000  0.67380000  0.67380000  1.0 -0.052904103
C  C3  1  0.19780000  0.59480000  0.59480000  1.0 -0.0925612861
C  C4  1  0.14070000  0.63670000  0.63670000  1.0 -0.0213456504
C  C5  1  0.22270000  0.65130000  0.65130000  1.0 0.0205429191
C  C6  1  0.11380000  0.57830000  0.57830000  1.0 0.5536867614
C  C7  1  0.17720000  0.66100000  0.66100000  1.0 -0.1500942377
C  C8  1  0.23250000  0.61770000  0.61770000  1.0 -0.1500942377
C  C9  1  0.84950000  0.39790000  0.60210000  1.0 -0.1076197589
C  C10  1  0.73730000  0.32620000  0.67380000  1.0 -0.052904103
C  C11  1  0.80220000  0.40520000  0.59480000  1.0 -0.0925612861
C  C12  1  0.85930000  0.36330000  0.63670000  1.0 -0.0213456504
C  C13  1  0.77730000  0.34870000  0.65130000  1.0 0.0205429191
C  C14  1  0.88620000  0.42170000  0.57830000  1.0 0.5536867614
C  C15  1  0.82280000  0.33900000  0.66100000  1.0 -0.1500942377
C  C16  1  0.76750000  0.38230000  0.61770000  1.0 -0.1500942377
C  C17  1  0.84950000  0.60210000  0.39790000  1.0 -0.1076197589
C  C18  1  0.73730000  0.67380000  0.32620000  1.0 -0.052904103
C  C19  1  0.80220000  0.59480000  0.40520000  1.0 -0.0925612861
C  C20  1  0.85930000  0.63670000  0.36330000  1.0 -0.0213456504
C  C21  1  0.77730000  0.65130000  0.34870000  1.0 0.0205429191
C  C22  1  0.88620000  0.57830000  0.42170000  1.0 0.5536867614
C  C23  1  0.82280000  0.66100000  0.33900000  1.0 -0.1500942377
C  C24  1  0.76750000  0.61770000  0.38230000  1.0 -0.1500942377
C  C25  1  0.15050000  0.39790000  0.39790000  1.0 -0.1076197589
C  C26  1  0.26270000  0.32620000  0.32620000  1.0 -0.052904103
C  C27  1  0.19780000  0.40520000  0.40520000  1.0 -0.0925612861
C  C28  1  0.14070000  0.36330000  0.36330000  1.0 -0.0213456504
C  C29  1  0.22270000  0.34870000  0.34870000  1.0 0.0205429191
C  C30  1  0.11380000  0.42170000  0.42170000  1.0 0.5536867614
C  C31  1  0.17720000  0.33900000  0.33900000  1.0 -0.1500942377
C  C32  1  0.23250000  0.38230000  0.38230000  1.0 -0.1500942377
C  C33  1  0.60210000  0.15050000  0.60210000  1.0 -0.1076197589
C  C34  1  0.67380000  0.26270000  0.67380000  1.0 -0.052904103
C  C35  1  0.59480000  0.19780000  0.59480000  1.0 -0.0925612861
C  C36  1  0.63670000  0.14070000  0.63670000  1.0 -0.0213456504
C  C37  1  0.65130000  0.22270000  0.65130000  1.0 0.0205429191
C  C38  1  0.57830000  0.11380000  0.57830000  1.0 0.5536867614
C  C39  1  0.66100000  0.17720000  0.66100000  1.0 -0.1500942377
C  C40  1  0.61770000  0.23250000  0.61770000  1.0 -0.1500942377
C  C41  1  0.60210000  0.84950000  0.39790000  1.0 -0.1076197589
C  C42  1  0.67380000  0.73730000  0.32620000  1.0 -0.052904103
C  C43  1  0.59480000  0.80220000  0.40520000  1.0 -0.0925612861
C  C44  1  0.63670000  0.85930000  0.36330000  1.0 -0.0213456504
C  C45  1  0.65130000  0.77730000  0.34870000  1.0 0.0205429191
C  C46  1  0.57830000  0.88620000  0.42170000  1.0 0.5536867614
C  C47  1  0.66100000  0.82280000  0.33900000  1.0 -0.1500942377
C  C48  1  0.61770000  0.76750000  0.38230000  1.0 -0.1500942377
C  C49  1  0.39790000  0.84950000  0.60210000  1.0 -0.1076197589
C  C50  1  0.32620000  0.73730000  0.67380000  1.0 -0.052904103
C  C51  1  0.40520000  0.80220000  0.59480000  1.0 -0.0925612861
C  C52  1  0.36330000  0.85930000  0.63670000  1.0 -0.0213456504
C  C53  1  0.34870000  0.77730000  0.65130000  1.0 0.0205429191
C  C54  1  0.42170000  0.88620000  0.57830000  1.0 0.5536867614
C  C55  1  0.33900000  0.82280000  0.66100000  1.0 -0.1500942377
C  C56  1  0.38230000  0.76750000  0.61770000  1.0 -0.1500942377
C  C57  1  0.39790000  0.15050000  0.39790000  1.0 -0.1076197589
C  C58  1  0.32620000  0.26270000  0.32620000  1.0 -0.052904103
C  C59  1  0.40520000  0.19780000  0.40520000  1.0 -0.0925612861
C  C60  1  0.36330000  0.14070000  0.36330000  1.0 -0.0213456504
C  C61  1  0.34870000  0.22270000  0.34870000  1.0 0.0205429191
C  C62  1  0.42170000  0.11380000  0.42170000  1.0 0.5536867614
C  C63  1  0.33900000  0.17720000  0.33900000  1.0 -0.1500942377
C  C64  1  0.38230000  0.23250000  0.38230000  1.0 -0.1500942377
C  C65  1  0.60210000  0.60210000  0.15050000  1.0 -0.1076197589
C  C66  1  0.67380000  0.67380000  0.26270000  1.0 -0.052904103
C  C67  1  0.59480000  0.59480000  0.19780000  1.0 -0.0925612861
C  C68  1  0.63670000  0.63670000  0.14070000  1.0 -0.0213456504
C  C69  1  0.65130000  0.65130000  0.22270000  1.0 0.0205429191
C  C70  1  0.57830000  0.57830000  0.11380000  1.0 0.5536867614
C  C71  1  0.66100000  0.66100000  0.17720000  1.0 -0.1500942377
C  C72  1  0.61770000  0.61770000  0.23250000  1.0 -0.1500942377
C  C73  1  0.39790000  0.60210000  0.84950000  1.0 -0.1076197589
C  C74  1  0.32620000  0.67380000  0.73730000  1.0 -0.052904103
C  C75  1  0.40520000  0.59480000  0.80220000  1.0 -0.0925612861
C  C76  1  0.36330000  0.63670000  0.85930000  1.0 -0.0213456504
C  C77  1  0.34870000  0.65130000  0.77730000  1.0 0.0205429191
C  C78  1  0.42170000  0.57830000  0.88620000  1.0 0.5536867614
C  C79  1  0.33900000  0.66100000  0.82280000  1.0 -0.1500942377
C  C80  1  0.38230000  0.61770000  0.76750000  1.0 -0.1500942377
C  C81  1  0.60210000  0.39790000  0.84950000  1.0 -0.1076197589
C  C82  1  0.67380000  0.32620000  0.73730000  1.0 -0.052904103
C  C83  1  0.59480000  0.40520000  0.80220000  1.0 -0.0925612861
C  C84  1  0.63670000  0.36330000  0.85930000  1.0 -0.0213456504
C  C85  1  0.65130000  0.34870000  0.77730000  1.0 0.0205429191
C  C86  1  0.57830000  0.42170000  0.88620000  1.0 0.5536867614
C  C87  1  0.66100000  0.33900000  0.82280000  1.0 -0.1500942377
C  C88  1  0.61770000  0.38230000  0.76750000  1.0 -0.1500942377
C  C89  1  0.39790000  0.39790000  0.15050000  1.0 -0.1076197589
C  C90  1  0.32620000  0.32620000  0.26270000  1.0 -0.052904103
C  C91  1  0.40520000  0.40520000  0.19780000  1.0 -0.0925612861
C  C92  1  0.36330000  0.36330000  0.14070000  1.0 -0.0213456504
C  C93  1  0.34870000  0.34870000  0.22270000  1.0 0.0205429191
C  C94  1  0.42170000  0.42170000  0.11380000  1.0 0.5536867614
C  C95  1  0.33900000  0.33900000  0.17720000  1.0 -0.1500942377
C  C96  1  0.38230000  0.38230000  0.23250000  1.0 -0.1500942377
C  C97  1  0.60210000  0.15050000  0.39790000  1.0 -0.1076197589
C  C98  1  0.67380000  0.26270000  0.32620000  1.0 -0.052904103
C  C99  1  0.59480000  0.19780000  0.40520000  1.0 -0.0925612861
C  C100  1  0.63670000  0.14070000  0.36330000  1.0 -0.0213456504
C  C101  1  0.65130000  0.22270000  0.34870000  1.0 0.0205429191
C  C102  1  0.57830000  0.11380000  0.42170000  1.0 0.5536867614
C  C103  1  0.66100000  0.17720000  0.33900000  1.0 -0.1500942377
C  C104  1  0.61770000  0.23250000  0.38230000  1.0 -0.1500942377
C  C105  1  0.39790000  0.84950000  0.39790000  1.0 -0.1076197589
C  C106  1  0.32620000  0.73730000  0.32620000  1.0 -0.052904103
C  C107  1  0.40520000  0.80220000  0.40520000  1.0 -0.0925612861
C  C108  1  0.36330000  0.85930000  0.36330000  1.0 -0.0213456504
C  C109  1  0.34870000  0.77730000  0.34870000  1.0 0.0205429191
C  C110  1  0.42170000  0.88620000  0.42170000  1.0 0.5536867614
C  C111  1  0.33900000  0.82280000  0.33900000  1.0 -0.1500942377
C  C112  1  0.38230000  0.76750000  0.38230000  1.0 -0.1500942377
C  C113  1  0.60210000  0.84950000  0.60210000  1.0 -0.1076197589
C  C114  1  0.67380000  0.73730000  0.67380000  1.0 -0.052904103
C  C115  1  0.59480000  0.80220000  0.59480000  1.0 -0.0925612861
C  C116  1  0.63670000  0.85930000  0.63670000  1.0 -0.0213456504
C  C117  1  0.65130000  0.77730000  0.65130000  1.0 0.0205429191
C  C118  1  0.57830000  0.88620000  0.57830000  1.0 0.5536867614
C  C119  1  0.66100000  0.82280000  0.66100000  1.0 -0.1500942377
C  C120  1  0.61770000  0.76750000  0.61770000  1.0 -0.1500942377
C  C121  1  0.39790000  0.15050000  0.60210000  1.0 -0.1076197589
C  C122  1  0.32620000  0.26270000  0.67380000  1.0 -0.052904103
C  C123  1  0.40520000  0.19780000  0.59480000  1.0 -0.0925612861
C  C124  1  0.36330000  0.14070000  0.63670000  1.0 -0.0213456504
C  C125  1  0.34870000  0.22270000  0.65130000  1.0 0.0205429191
C  C126  1  0.42170000  0.11380000  0.57830000  1.0 0.5536867614
C  C127  1  0.33900000  0.17720000  0.66100000  1.0 -0.1500942377
C  C128  1  0.38230000  0.23250000  0.61770000  1.0 -0.1500942377
C  C129  1  0.15050000  0.60210000  0.39790000  1.0 -0.1076197589
C  C130  1  0.26270000  0.67380000  0.32620000  1.0 -0.052904103
C  C131  1  0.19780000  0.59480000  0.40520000  1.0 -0.0925612861
C  C132  1  0.14070000  0.63670000  0.36330000  1.0 -0.0213456504
C  C133  1  0.22270000  0.65130000  0.34870000  1.0 0.0205429191
C  C134  1  0.11380000  0.57830000  0.42170000  1.0 0.5536867614
C  C135  1  0.17720000  0.66100000  0.33900000  1.0 -0.1500942377
C  C136  1  0.23250000  0.61770000  0.38230000  1.0 -0.1500942377
C  C137  1  0.84950000  0.60210000  0.60210000  1.0 -0.1076197589
C  C138  1  0.73730000  0.67380000  0.67380000  1.0 -0.052904103
C  C139  1  0.80220000  0.59480000  0.59480000  1.0 -0.0925612861
C  C140  1  0.85930000  0.63670000  0.63670000  1.0 -0.0213456504
C  C141  1  0.77730000  0.65130000  0.65130000  1.0 0.0205429191
C  C142  1  0.88620000  0.57830000  0.57830000  1.0 0.5536867614
C  C143  1  0.82280000  0.66100000  0.66100000  1.0 -0.1500942377
C  C144  1  0.76750000  0.61770000  0.61770000  1.0 -0.1500942377
C  C145  1  0.84950000  0.39790000  0.39790000  1.0 -0.1076197589
C  C146  1  0.73730000  0.32620000  0.32620000  1.0 -0.052904103
C  C147  1  0.80220000  0.40520000  0.40520000  1.0 -0.0925612861
C  C148  1  0.85930000  0.36330000  0.36330000  1.0 -0.0213456504
C  C149  1  0.77730000  0.34870000  0.34870000  1.0 0.0205429191
C  C150  1  0.88620000  0.42170000  0.42170000  1.0 0.5536867614
C  C151  1  0.82280000  0.33900000  0.33900000  1.0 -0.1500942377
C  C152  1  0.76750000  0.38230000  0.38230000  1.0 -0.1500942377
C  C153  1  0.15050000  0.39790000  0.60210000  1.0 -0.1076197589
C  C154  1  0.26270000  0.32620000  0.67380000  1.0 -0.052904103
C  C155  1  0.19780000  0.40520000  0.59480000  1.0 -0.0925612861
C  C156  1  0.14070000  0.36330000  0.63670000  1.0 -0.0213456504
C  C157  1  0.22270000  0.34870000  0.65130000  1.0 0.0205429191
C  C158  1  0.11380000  0.42170000  0.57830000  1.0 0.5536867614
C  C159  1  0.17720000  0.33900000  0.66100000  1.0 -0.1500942377
C  C160  1  0.23250000  0.38230000  0.61770000  1.0 -0.1500942377
C  C161  1  0.60210000  0.60210000  0.84950000  1.0 -0.1076197589
C  C162  1  0.67380000  0.67380000  0.73730000  1.0 -0.052904103
C  C163  1  0.59480000  0.59480000  0.80220000  1.0 -0.0925612861
C  C164  1  0.63670000  0.63670000  0.85930000  1.0 -0.0213456504
C  C165  1  0.65130000  0.65130000  0.77730000  1.0 0.0205429191
C  C166  1  0.57830000  0.57830000  0.88620000  1.0 0.5536867614
C  C167  1  0.66100000  0.66100000  0.82280000  1.0 -0.1500942377
C  C168  1  0.61770000  0.61770000  0.76750000  1.0 -0.1500942377
C  C169  1  0.60210000  0.39790000  0.15050000  1.0 -0.1076197589
C  C170  1  0.67380000  0.32620000  0.26270000  1.0 -0.052904103
C  C171  1  0.59480000  0.40520000  0.19780000  1.0 -0.0925612861
C  C172  1  0.63670000  0.36330000  0.14070000  1.0 -0.0213456504
C  C173  1  0.65130000  0.34870000  0.22270000  1.0 0.0205429191
C  C174  1  0.57830000  0.42170000  0.11380000  1.0 0.5536867614
C  C175  1  0.66100000  0.33900000  0.17720000  1.0 -0.1500942377
C  C176  1  0.61770000  0.38230000  0.23250000  1.0 -0.1500942377
C  C177  1  0.39790000  0.60210000  0.15050000  1.0 -0.1076197589
C  C178  1  0.32620000  0.67380000  0.26270000  1.0 -0.052904103
C  C179  1  0.40520000  0.59480000  0.19780000  1.0 -0.0925612861
C  C180  1  0.36330000  0.63670000  0.14070000  1.0 -0.0213456504
C  C181  1  0.34870000  0.65130000  0.22270000  1.0 0.0205429191
C  C182  1  0.42170000  0.57830000  0.11380000  1.0 0.5536867614
C  C183  1  0.33900000  0.66100000  0.17720000  1.0 -0.1500942377
C  C184  1  0.38230000  0.61770000  0.23250000  1.0 -0.1500942377
C  C185  1  0.39790000  0.39790000  0.84950000  1.0 -0.1076197589
C  C186  1  0.32620000  0.32620000  0.73730000  1.0 -0.052904103
C  C187  1  0.40520000  0.40520000  0.80220000  1.0 -0.0925612861
C  C188  1  0.36330000  0.36330000  0.85930000  1.0 -0.0213456504
C  C189  1  0.34870000  0.34870000  0.77730000  1.0 0.0205429191
C  C190  1  0.42170000  0.42170000  0.88620000  1.0 0.5536867614
C  C191  1  0.33900000  0.33900000  0.82280000  1.0 -0.1500942377
C  C192  1  0.38230000  0.38230000  0.76750000  1.0 -0.1500942377
C  C193  1  0.28450000  0.71550000  0.65340000  1.0 0.0361575498
C  C194  1  0.26260000  0.73740000  0.60910000  1.0 -0.2861909794
C  C195  1  0.71550000  0.28450000  0.65340000  1.0 0.0361575498
C  C196  1  0.73740000  0.26260000  0.60910000  1.0 -0.2861909794
C  C197  1  0.71550000  0.71550000  0.34660000  1.0 0.0361575498
C  C198  1  0.73740000  0.73740000  0.39090000  1.0 -0.2861909794
C  C199  1  0.28450000  0.28450000  0.34660000  1.0 0.0361575498
C  C200  1  0.26260000  0.26260000  0.39090000  1.0 -0.2847088391
C  C201  1  0.65340000  0.28450000  0.71550000  1.0 0.0361575498
C  C202  1  0.60910000  0.26260000  0.73740000  1.0 -0.2847088391
C  C203  1  0.65340000  0.71550000  0.28450000  1.0 0.0361575498
C  C204  1  0.60910000  0.73740000  0.26260000  1.0 -0.2861909794
C  C205  1  0.34660000  0.71550000  0.71550000  1.0 0.0361575498
C  C206  1  0.39090000  0.73740000  0.73740000  1.0 -0.2861909794
C  C207  1  0.34660000  0.28450000  0.28450000  1.0 0.0361575498
C  C208  1  0.39090000  0.26260000  0.26260000  1.0 -0.2847088391
C  C209  1  0.71550000  0.65340000  0.28450000  1.0 0.0361575498
C  C210  1  0.73740000  0.60910000  0.26260000  1.0 -0.2861909794
C  C211  1  0.28450000  0.65340000  0.71550000  1.0 0.0361575498
C  C212  1  0.26260000  0.60910000  0.73740000  1.0 -0.2861909794
C  C213  1  0.71550000  0.34660000  0.71550000  1.0 0.0361575498
C  C214  1  0.73740000  0.39090000  0.73740000  1.0 -0.2861909794
C  C215  1  0.28450000  0.34660000  0.28450000  1.0 0.0361575498
C  C216  1  0.26260000  0.39090000  0.26260000  1.0 -0.2847088391
C  C217  1  0.71550000  0.28450000  0.34660000  1.0 0.0361575498
C  C218  1  0.73740000  0.26260000  0.39090000  1.0 -0.2861909794
C  C219  1  0.28450000  0.71550000  0.34660000  1.0 0.0361575498
C  C220  1  0.26260000  0.73740000  0.39090000  1.0 -0.2861909794
C  C221  1  0.71550000  0.71550000  0.65340000  1.0 0.0361575498
C  C222  1  0.73740000  0.73740000  0.60910000  1.0 -0.2861909794
C  C223  1  0.28450000  0.28450000  0.65340000  1.0 0.0361575498
C  C224  1  0.26260000  0.26260000  0.60910000  1.0 -0.2847088391
C  C225  1  0.28450000  0.65340000  0.28450000  1.0 0.0361575498
C  C226  1  0.26260000  0.60910000  0.26260000  1.0 -0.2861909794
C  C227  1  0.71550000  0.65340000  0.71550000  1.0 0.0361575498
C  C228  1  0.73740000  0.60910000  0.73740000  1.0 -0.2861909794
C  C229  1  0.71550000  0.34660000  0.28450000  1.0 0.0361575498
C  C230  1  0.73740000  0.39090000  0.26260000  1.0 -0.2861909794
C  C231  1  0.28450000  0.34660000  0.71550000  1.0 0.0361575498
C  C232  1  0.26260000  0.39090000  0.73740000  1.0 -0.2847088391
C  C233  1  0.65340000  0.71550000  0.71550000  1.0 0.0361575498
C  C234  1  0.60910000  0.73740000  0.73740000  1.0 -0.2861909794
C  C235  1  0.65340000  0.28450000  0.28450000  1.0 0.0361575498
C  C236  1  0.60910000  0.26260000  0.26260000  1.0 -0.2847088391
C  C237  1  0.34660000  0.71550000  0.28450000  1.0 0.0361575498
C  C238  1  0.39090000  0.73740000  0.26260000  1.0 -0.2861909794
C  C239  1  0.34660000  0.28450000  0.71550000  1.0 0.0361575498
C  C240  1  0.39090000  0.26260000  0.73740000  1.0 -0.2847088391
O  O1  1  0.12650000  0.54820000  0.54820000  1.0 -0.5891209209
O  O2  1  0.07110000  0.58820000  0.58820000  1.0 -0.6111458703
O  O3  1  0.87350000  0.45180000  0.54820000  1.0 -0.5891209209
O  O4  1  0.92890000  0.41180000  0.58820000  1.0 -0.6111458703
O  O5  1  0.87350000  0.54820000  0.45180000  1.0 -0.5891209209
O  O6  1  0.92890000  0.58820000  0.41180000  1.0 -0.6111458703
O  O7  1  0.12650000  0.45180000  0.45180000  1.0 -0.5891209209
O  O8  1  0.07110000  0.41180000  0.41180000  1.0 -0.6111458703
O  O9  1  0.54820000  0.12650000  0.54820000  1.0 -0.5891209209
O  O10  1  0.58820000  0.07110000  0.58820000  1.0 -0.6111458703
O  O11  1  0.54820000  0.87350000  0.45180000  1.0 -0.5891209209
O  O12  1  0.58820000  0.92890000  0.41180000  1.0 -0.6111458703
O  O13  1  0.45180000  0.87350000  0.54820000  1.0 -0.5891209209
O  O14  1  0.41180000  0.92890000  0.58820000  1.0 -0.6111458703
O  O15  1  0.45180000  0.12650000  0.45180000  1.0 -0.5891209209
O  O16  1  0.41180000  0.07110000  0.41180000  1.0 -0.6111458703
O  O17  1  0.54820000  0.54820000  0.12650000  1.0 -0.5891209209
O  O18  1  0.58820000  0.58820000  0.07110000  1.0 -0.6111458703
O  O19  1  0.45180000  0.54820000  0.87350000  1.0 -0.5891209209
O  O20  1  0.41180000  0.58820000  0.92890000  1.0 -0.6111458703
O  O21  1  0.54820000  0.45180000  0.87350000  1.0 -0.5891209209
O  O22  1  0.58820000  0.41180000  0.92890000  1.0 -0.6111458703
O  O23  1  0.45180000  0.45180000  0.12650000  1.0 -0.5891209209
O  O24  1  0.41180000  0.41180000  0.07110000  1.0 -0.6111458703
O  O25  1  0.54820000  0.12650000  0.45180000  1.0 -0.5891209209
O  O26  1  0.58820000  0.07110000  0.41180000  1.0 -0.6111458703
O  O27  1  0.45180000  0.87350000  0.45180000  1.0 -0.5891209209
O  O28  1  0.41180000  0.92890000  0.41180000  1.0 -0.6111458703
O  O29  1  0.54820000  0.87350000  0.54820000  1.0 -0.5891209209
O  O30  1  0.58820000  0.92890000  0.58820000  1.0 -0.6111458703
O  O31  1  0.45180000  0.12650000  0.54820000  1.0 -0.5891209209
O  O32  1  0.41180000  0.07110000  0.58820000  1.0 -0.6111458703
O  O33  1  0.12650000  0.54820000  0.45180000  1.0 -0.5891209209
O  O34  1  0.07110000  0.58820000  0.41180000  1.0 -0.6111458703
O  O35  1  0.87350000  0.54820000  0.54820000  1.0 -0.5891209209
O  O36  1  0.92890000  0.58820000  0.58820000  1.0 -0.6111458703
O  O37  1  0.87350000  0.45180000  0.45180000  1.0 -0.5891209209
O  O38  1  0.92890000  0.41180000  0.41180000  1.0 -0.6111458703
O  O39  1  0.12650000  0.45180000  0.54820000  1.0 -0.5891209209
O  O40  1  0.07110000  0.41180000  0.58820000  1.0 -0.6111458703
O  O41  1  0.54820000  0.54820000  0.87350000  1.0 -0.5891209209
O  O42  1  0.58820000  0.58820000  0.92890000  1.0 -0.6111458703
O  O43  1  0.54820000  0.45180000  0.12650000  1.0 -0.5891209209
O  O44  1  0.58820000  0.41180000  0.07110000  1.0 -0.6111458703
O  O45  1  0.45180000  0.54820000  0.12650000  1.0 -0.5891209209
O  O46  1  0.41180000  0.58820000  0.07110000  1.0 -0.6111458703
O  O47  1  0.45180000  0.45180000  0.87350000  1.0 -0.5891209209
O  O48  1  0.41180000  0.41180000  0.92890000  1.0 -0.6111458703
O  O49  1  0.04100000  0.50000000  0.56110000  1.0 -1.1365679815
O  O50  1  0.95900000  0.50000000  0.56110000  1.0 -1.1365679815
O  O51  1  0.95900000  0.50000000  0.43890000  1.0 -1.1365679815
O  O52  1  0.04100000  0.50000000  0.43890000  1.0 -1.1365679815
O  O53  1  0.56110000  0.04100000  0.50000000  1.0 -1.1365679815
O  O54  1  0.56110000  0.95900000  0.50000000  1.0 -1.1365679815
O  O55  1  0.43890000  0.95900000  0.50000000  1.0 -1.1365679815
O  O56  1  0.43890000  0.04100000  0.50000000  1.0 -1.1365679815
O  O57  1  0.50000000  0.56110000  0.04100000  1.0 -1.1365679815
O  O58  1  0.50000000  0.56110000  0.95900000  1.0 -1.1365679815
O  O59  1  0.50000000  0.43890000  0.95900000  1.0 -1.1365679815
O  O60  1  0.50000000  0.43890000  0.04100000  1.0 -1.1365679815
O  O61  1  0.50000000  0.04100000  0.43890000  1.0 -1.1365679815
O  O62  1  0.50000000  0.95900000  0.43890000  1.0 -1.1365679815
O  O63  1  0.50000000  0.95900000  0.56110000  1.0 -1.1365679815
O  O64  1  0.50000000  0.04100000  0.56110000  1.0 -1.1365679815
O  O65  1  0.04100000  0.56110000  0.50000000  1.0 -1.1365679815
O  O66  1  0.95900000  0.56110000  0.50000000  1.0 -1.1365679815
O  O67  1  0.95900000  0.43890000  0.50000000  1.0 -1.1365679815
O  O68  1  0.04100000  0.43890000  0.50000000  1.0 -1.1365679815
O  O69  1  0.56110000  0.50000000  0.95900000  1.0 -1.1365679815
O  O70  1  0.56110000  0.50000000  0.04100000  1.0 -1.1365679815
O  O71  1  0.43890000  0.50000000  0.04100000  1.0 -1.1365679815
O  O72  1  0.43890000  0.50000000  0.95900000  1.0 -1.1365679815
O  O73  1  0.00000000  0.63950000  0.55310000  1.0 -1.0727081412
O  O74  1  0.00000000  0.36050000  0.55310000  1.0 -1.0727081412
O  O75  1  0.00000000  0.63950000  0.44690000  1.0 -1.0727081412
O  O76  1  0.00000000  0.36050000  0.44690000  1.0 -1.0727081412
O  O77  1  0.55310000  0.00000000  0.63950000  1.0 -1.0727081412
O  O78  1  0.55310000  0.00000000  0.36050000  1.0 -1.0727081412
O  O79  1  0.44690000  0.00000000  0.63950000  1.0 -1.0727081412
O  O80  1  0.44690000  0.00000000  0.36050000  1.0 -1.0727081412
O  O81  1  0.63950000  0.55310000  0.00000000  1.0 -1.0727081412
O  O82  1  0.36050000  0.55310000  0.00000000  1.0 -1.0727081412
O  O83  1  0.63950000  0.44690000  0.00000000  1.0 -1.0727081412
O  O84  1  0.36050000  0.44690000  0.00000000  1.0 -1.0727081412
O  O85  1  0.63950000  0.00000000  0.44690000  1.0 -1.0727081412
O  O86  1  0.36050000  0.00000000  0.44690000  1.0 -1.0727081412
O  O87  1  0.63950000  0.00000000  0.55310000  1.0 -1.0727081412
O  O88  1  0.36050000  0.00000000  0.55310000  1.0 -1.0727081412
O  O89  1  0.00000000  0.55310000  0.36050000  1.0 -1.0727081412
O  O90  1  0.00000000  0.55310000  0.63950000  1.0 -1.0727081412
O  O91  1  0.00000000  0.44690000  0.36050000  1.0 -1.0727081412
O  O92  1  0.00000000  0.44690000  0.63950000  1.0 -1.0727081412
O  O93  1  0.55310000  0.63950000  0.00000000  1.0 -1.0727081412
O  O94  1  0.55310000  0.36050000  0.00000000  1.0 -1.0727081412
O  O95  1  0.44690000  0.63950000  0.00000000  1.0 -1.0727081412
O  O96  1  0.44690000  0.36050000  0.00000000  1.0 -1.0727081412
