# DDEC6 charges by PACMAN v1.1 (https://github.com/mtap-research/PACMAN-charge/)
data_IPEBEM_FSR_pacman
_symmetry_space_group_name_H-M   'P 1'
_cell_length_a   26.71760000
_cell_length_b   26.71760000
_cell_length_c   7.19420000
_cell_angle_alpha   90.00000000
_cell_angle_beta   90.00000000
_cell_angle_gamma   90.00000000
_symmetry_Int_Tables_number   1
_chemical_formula_structural   Cu2H44C57(IN2)2
_chemical_formula_sum   'Cu8 H176 C228 I8 N16'
_cell_volume   5135.43686340
_cell_formula_units_Z   4
loop_
 _symmetry_equiv_pos_site_id
 _symmetry_equiv_pos_as_xyz
  1  'x, y, z'
loop_
 _atom_site_type_symbol
 _atom_site_label
 _atom_site_symmetry_multiplicity
 _atom_site_fract_x
 _atom_site_fract_y
 _atom_site_fract_z
 _atom_site_occupancy
 _atom_site_charge
Cu  Cu1  1  0.69946000  0.75493000  0.36550000  1.0 0.1722499327
Cu  Cu2  1  0.30054000  0.24507000  0.36550000  1.0 0.1722499327
Cu  Cu3  1  0.24507000  0.69946000  0.63450000  1.0 0.1722499327
Cu  Cu4  1  0.75493000  0.30054000  0.63450000  1.0 0.1722499327
Cu  Cu5  1  0.79527000  0.74986000  0.86630000  1.0 0.1722499327
Cu  Cu6  1  0.20473000  0.25014000  0.86630000  1.0 0.1722499327
Cu  Cu7  1  0.25014000  0.79527000  0.13370000  1.0 0.1722499327
Cu  Cu8  1  0.74986000  0.20473000  0.13370000  1.0 0.1722499327
H  H1  1  0.65810000  0.74710000  0.99090000  1.0 0.0901216406
H  H2  1  0.34190000  0.25290000  0.99090000  1.0 0.0901216406
H  H3  1  0.25290000  0.65810000  0.00910000  1.0 0.0901216406
H  H4  1  0.74710000  0.34190000  0.00910000  1.0 0.0901216406
H  H5  1  0.65280000  0.65470000  0.39990000  1.0 0.0901216406
H  H6  1  0.34720000  0.34530000  0.39990000  1.0 0.0901216406
H  H7  1  0.34530000  0.65280000  0.60010000  1.0 0.0901216406
H  H8  1  0.65470000  0.34720000  0.60010000  1.0 0.0901216406
H  H9  1  0.60000000  0.77000000  0.51890000  1.0 0.0901216406
H  H10  1  0.40000000  0.23000000  0.51890000  1.0 0.0901216406
H  H11  1  0.23000000  0.60000000  0.48110000  1.0 0.0901216406
H  H12  1  0.77000000  0.40000000  0.48110000  1.0 0.0901216406
H  H13  1  0.70780000  0.86320000  0.52240000  1.0 0.0901216406
H  H14  1  0.29220000  0.13680000  0.52240000  1.0 0.0901216406
H  H15  1  0.13680000  0.70780000  0.47760000  1.0 0.0901216406
H  H16  1  0.86320000  0.29220000  0.47760000  1.0 0.0901216406
H  H17  1  0.84520000  0.85220000  0.89070000  1.0 0.0997307226
H  H18  1  0.15480000  0.14780000  0.89070000  1.0 0.0997307226
H  H19  1  0.14780000  0.84520000  0.10930000  1.0 0.0997307226
H  H20  1  0.85220000  0.15480000  0.10930000  1.0 0.0997307226
H  H21  1  0.83050000  0.75940000  0.49180000  1.0 0.0901216406
H  H22  1  0.16950000  0.24060000  0.49180000  1.0 0.0901216406
H  H23  1  0.24060000  0.83050000  0.50820000  1.0 0.0901216406
H  H24  1  0.75940000  0.16950000  0.50820000  1.0 0.0901216406
H  H25  1  0.61720000  0.69210000  0.79300000  1.0 0.11916281
H  H26  1  0.38280000  0.30790000  0.79300000  1.0 0.11916281
H  H27  1  0.30790000  0.61720000  0.20700000  1.0 0.11916281
H  H28  1  0.69210000  0.38280000  0.20700000  1.0 0.11916281
H  H29  1  0.59900000  0.59940000  0.22860000  1.0 0.1268051313
H  H30  1  0.40100000  0.40060000  0.22860000  1.0 0.1268051313
H  H31  1  0.40060000  0.59900000  0.77140000  1.0 0.1268051313
H  H32  1  0.59940000  0.40100000  0.77140000  1.0 0.1268051313
H  H33  1  0.55210000  0.83020000  0.66440000  1.0 0.0997307226
H  H34  1  0.44790000  0.16980000  0.66440000  1.0 0.0997307226
H  H35  1  0.16980000  0.55210000  0.33560000  1.0 0.0997307226
H  H36  1  0.83020000  0.44790000  0.33560000  1.0 0.0997307226
H  H37  1  0.67910000  0.89640000  0.81900000  1.0 0.0680847124
H  H38  1  0.32090000  0.10360000  0.81900000  1.0 0.0680847124
H  H39  1  0.10360000  0.67910000  0.18100000  1.0 0.0680847124
H  H40  1  0.89640000  0.32090000  0.18100000  1.0 0.0680847124
H  H41  1  0.90230000  0.89880000  0.72780000  1.0 0.1268051313
H  H42  1  0.09770000  0.10120000  0.72780000  1.0 0.1268051313
H  H43  1  0.10120000  0.90230000  0.27220000  1.0 0.1268051313
H  H44  1  0.89880000  0.09770000  0.27220000  1.0 0.1268051313
H  H45  1  0.87630000  0.81140000  0.28400000  1.0 0.11916281
H  H46  1  0.12370000  0.18860000  0.28400000  1.0 0.11916281
H  H47  1  0.18860000  0.87630000  0.71600000  1.0 0.11916281
H  H48  1  0.81140000  0.12370000  0.71600000  1.0 0.11916281
H  H49  1  0.53840000  0.65870000  0.71460000  1.0 0.11916281
H  H50  1  0.46160000  0.34130000  0.71460000  1.0 0.11916281
H  H51  1  0.34130000  0.53840000  0.28540000  1.0 0.11916281
H  H52  1  0.65870000  0.46160000  0.28540000  1.0 0.11916281
H  H53  1  0.60060000  0.54240000  0.98780000  1.0 0.1097519241
H  H54  1  0.39940000  0.45760000  0.98780000  1.0 0.1097519241
H  H55  1  0.45760000  0.60060000  0.01220000  1.0 0.1097519241
H  H56  1  0.54240000  0.39940000  0.01220000  1.0 0.1097519241
H  H57  1  0.51100000  0.89310000  0.78680000  1.0 0.1097519241
H  H58  1  0.48900000  0.10690000  0.78680000  1.0 0.1097519241
H  H59  1  0.10690000  0.51100000  0.21320000  1.0 0.1097519241
H  H60  1  0.89310000  0.48900000  0.21320000  1.0 0.1097519241
H  H61  1  0.64210000  0.92330000  0.03850000  1.0 0.1097519241
H  H62  1  0.35790000  0.07670000  0.03850000  1.0 0.1097519241
H  H63  1  0.07670000  0.64210000  0.96150000  1.0 0.1097519241
H  H64  1  0.92330000  0.35790000  0.96150000  1.0 0.1097519241
H  H65  1  0.89860000  0.95960000  0.49050000  1.0 0.1097519241
H  H66  1  0.10140000  0.04040000  0.49050000  1.0 0.1097519241
H  H67  1  0.04040000  0.89860000  0.50950000  1.0 0.1097519241
H  H68  1  0.95960000  0.10140000  0.50950000  1.0 0.1097519241
H  H69  1  0.95540000  0.84230000  0.20470000  1.0 0.11916281
H  H70  1  0.04460000  0.15770000  0.20470000  1.0 0.11916281
H  H71  1  0.15770000  0.95540000  0.79530000  1.0 0.11916281
H  H72  1  0.84230000  0.04460000  0.79530000  1.0 0.11916281
H  H73  1  0.50000000  0.60370000  0.50960000  1.0 0.11916281
H  H74  1  0.50000000  0.39630000  0.50960000  1.0 0.11916281
H  H75  1  0.39630000  0.50000000  0.49040000  1.0 0.11916281
H  H76  1  0.60370000  0.50000000  0.49040000  1.0 0.11916281
H  H77  1  0.55850000  0.48730000  0.78720000  1.0 0.1097519241
H  H78  1  0.44150000  0.51270000  0.78720000  1.0 0.1097519241
H  H79  1  0.51270000  0.55850000  0.21280000  1.0 0.1097519241
H  H80  1  0.48730000  0.44150000  0.21280000  1.0 0.1097519241
H  H81  1  0.47130000  0.94230000  0.00810000  1.0 0.11916281
H  H82  1  0.52870000  0.05770000  0.00810000  1.0 0.11916281
H  H83  1  0.05770000  0.47130000  0.99190000  1.0 0.11916281
H  H84  1  0.94230000  0.52870000  0.99190000  1.0 0.11916281
H  H85  1  0.60230000  0.97650000  0.24730000  1.0 0.1097519241
H  H86  1  0.39770000  0.02350000  0.24730000  1.0 0.1097519241
H  H87  1  0.02350000  0.60230000  0.75270000  1.0 0.1097519241
H  H88  1  0.97650000  0.39770000  0.75270000  1.0 0.1097519241
H  H89  1  0.94350000  0.01370000  0.29860000  1.0 0.1097519241
H  H90  1  0.05650000  0.98630000  0.29860000  1.0 0.1097519241
H  H91  1  0.98630000  0.94350000  0.70140000  1.0 0.1097519241
H  H92  1  0.01370000  0.05650000  0.70140000  1.0 0.1097519241
H  H93  1  0.00570000  0.89630000  0.03340000  1.0 0.1097519241
H  H94  1  0.99430000  0.10370000  0.03340000  1.0 0.1097519241
H  H95  1  0.10370000  0.00570000  0.96660000  1.0 0.1097519241
H  H96  1  0.89630000  0.99430000  0.96660000  1.0 0.1097519241
H  H97  1  0.47260000  0.90040000  0.26730000  1.0 0.0901216406
H  H98  1  0.52740000  0.09960000  0.26730000  1.0 0.0901216406
H  H99  1  0.09960000  0.47260000  0.73270000  1.0 0.0901216406
H  H100  1  0.90040000  0.52740000  0.73270000  1.0 0.0901216406
H  H101  1  0.45160000  0.02700000  0.56120000  1.0 0.0901216406
H  H102  1  0.54840000  0.97300000  0.56120000  1.0 0.0901216406
H  H103  1  0.97300000  0.45160000  0.43880000  1.0 0.0901216406
H  H104  1  0.02700000  0.54840000  0.43880000  1.0 0.0901216406
H  H105  1  0.40720000  0.86140000  0.44540000  1.0 0.0680847124
H  H106  1  0.59280000  0.13860000  0.44540000  1.0 0.0680847124
H  H107  1  0.13860000  0.40720000  0.55460000  1.0 0.0680847124
H  H108  1  0.86140000  0.59280000  0.55460000  1.0 0.0680847124
H  H109  1  0.39740000  0.98600000  0.76520000  1.0 0.0997307226
H  H110  1  0.60260000  0.01400000  0.76520000  1.0 0.0997307226
H  H111  1  0.01400000  0.39740000  0.23480000  1.0 0.0997307226
H  H112  1  0.98600000  0.60260000  0.23480000  1.0 0.0997307226
H  H113  1  0.35770000  0.83210000  0.59100000  1.0 0.077786758
H  H114  1  0.64230000  0.16790000  0.59100000  1.0 0.077786758
H  H115  1  0.16790000  0.35770000  0.40900000  1.0 0.077786758
H  H116  1  0.83210000  0.64230000  0.40900000  1.0 0.077786758
H  H117  1  0.37140000  0.93240000  0.00280000  1.0 0.0997307226
H  H118  1  0.62860000  0.06760000  0.00280000  1.0 0.0997307226
H  H119  1  0.06760000  0.37140000  0.99720000  1.0 0.0997307226
H  H120  1  0.93240000  0.62860000  0.99720000  1.0 0.0997307226
H  H121  1  0.30840000  0.78190000  0.79520000  1.0 0.0901216406
H  H122  1  0.69160000  0.21810000  0.79520000  1.0 0.0901216406
H  H123  1  0.21810000  0.30840000  0.20480000  1.0 0.0901216406
H  H124  1  0.78190000  0.69160000  0.20480000  1.0 0.0901216406
H  H125  1  0.31640000  0.88290000  0.17080000  1.0 0.0901216406
H  H126  1  0.68360000  0.11710000  0.17080000  1.0 0.0901216406
H  H127  1  0.11710000  0.31640000  0.82920000  1.0 0.0901216406
H  H128  1  0.88290000  0.68360000  0.82920000  1.0 0.0901216406
H  H129  1  0.85570000  0.56440000  0.48430000  1.0 0.077786758
H  H130  1  0.14430000  0.43560000  0.48430000  1.0 0.077786758
H  H131  1  0.43560000  0.85570000  0.51570000  1.0 0.077786758
H  H132  1  0.56440000  0.14430000  0.51570000  1.0 0.077786758
H  H133  1  0.90300000  0.50490000  0.65240000  1.0 0.0901216406
H  H134  1  0.09700000  0.49510000  0.65240000  1.0 0.0901216406
H  H135  1  0.49510000  0.90300000  0.34760000  1.0 0.0901216406
H  H136  1  0.50490000  0.09700000  0.34760000  1.0 0.0901216406
H  H137  1  0.03130000  0.57120000  0.49910000  1.0 0.0901216406
H  H138  1  0.96870000  0.42880000  0.49910000  1.0 0.0901216406
H  H139  1  0.42880000  0.03130000  0.50090000  1.0 0.0901216406
H  H140  1  0.57120000  0.96870000  0.50090000  1.0 0.0901216406
H  H141  1  0.98660000  0.61980000  0.28150000  1.0 0.0997307226
H  H142  1  0.01340000  0.38020000  0.28150000  1.0 0.0997307226
H  H143  1  0.38020000  0.98660000  0.71850000  1.0 0.0997307226
H  H144  1  0.61980000  0.01340000  0.71850000  1.0 0.0997307226
H  H145  1  0.81990000  0.60970000  0.31440000  1.0 0.0680847124
H  H146  1  0.18010000  0.39030000  0.31440000  1.0 0.0680847124
H  H147  1  0.39030000  0.81990000  0.68560000  1.0 0.0680847124
H  H148  1  0.60970000  0.18010000  0.68560000  1.0 0.0680847124
H  H149  1  0.79110000  0.64010000  0.00280000  1.0 0.0901216406
H  H150  1  0.20890000  0.35990000  0.00280000  1.0 0.0901216406
H  H151  1  0.35990000  0.79110000  0.99720000  1.0 0.0901216406
H  H152  1  0.64010000  0.20890000  0.99720000  1.0 0.0997307226
H  H153  1  0.89780000  0.73210000  0.96790000  1.0 0.0901216406
H  H154  1  0.10220000  0.26790000  0.96790000  1.0 0.0901216406
H  H155  1  0.26790000  0.89780000  0.03210000  1.0 0.0901216406
H  H156  1  0.73210000  0.10220000  0.03210000  1.0 0.0901216406
H  H157  1  0.94400000  0.68410000  0.17960000  1.0 0.1097519241
H  H158  1  0.05600000  0.31590000  0.17960000  1.0 0.1097519241
H  H159  1  0.31590000  0.94400000  0.82040000  1.0 0.1097519241
H  H160  1  0.68410000  0.05600000  0.82040000  1.0 0.1097519241
H  H161  1  0.85990000  0.33130000  0.06880000  1.0 0.0901216406
H  H162  1  0.14010000  0.66870000  0.06880000  1.0 0.0901216406
H  H163  1  0.66870000  0.85990000  0.93120000  1.0 0.0901216406
H  H164  1  0.33130000  0.14010000  0.93120000  1.0 0.0901216406
H  H165  1  0.82030000  0.28430000  0.31330000  1.0 0.0901216406
H  H166  1  0.17970000  0.71570000  0.31330000  1.0 0.0901216406
H  H167  1  0.71570000  0.82030000  0.68670000  1.0 0.0901216406
H  H168  1  0.28430000  0.17970000  0.68670000  1.0 0.0901216406
H  H169  1  0.81970000  0.39290000  0.65570000  1.0 0.0901216406
H  H170  1  0.18030000  0.60710000  0.65570000  1.0 0.0901216406
H  H171  1  0.60710000  0.81970000  0.34430000  1.0 0.0901216406
H  H172  1  0.39290000  0.18030000  0.34430000  1.0 0.0901216406
H  H173  1  0.88060000  0.43080000  0.47790000  1.0 0.0997307226
H  H174  1  0.11940000  0.56920000  0.47790000  1.0 0.0997307226
H  H175  1  0.56920000  0.88060000  0.52210000  1.0 0.0997307226
H  H176  1  0.43080000  0.11940000  0.52210000  1.0 0.0997307226
C  C1  1  0.64780000  0.71610000  0.04000000  1.0 0.077786758
C  C2  1  0.35220000  0.28390000  0.04000000  1.0 0.077786758
C  C3  1  0.28390000  0.64780000  0.96000000  1.0 0.077786758
C  C4  1  0.71610000  0.35220000  0.96000000  1.0 0.077786758
C  C5  1  0.64340000  0.66370000  0.27800000  1.0 0.077786758
C  C6  1  0.35660000  0.33630000  0.27800000  1.0 0.077786758
C  C7  1  0.33630000  0.64340000  0.72200000  1.0 0.077786758
C  C8  1  0.66370000  0.35660000  0.72200000  1.0 0.077786758
C  C9  1  0.61530000  0.79970000  0.55900000  1.0 0.0073450084
C  C10  1  0.38470000  0.20030000  0.55900000  1.0 0.0073450084
C  C11  1  0.20030000  0.61530000  0.44100000  1.0 0.0073450084
C  C12  1  0.79970000  0.38470000  0.44100000  1.0 0.0073450084
C  C13  1  0.67970000  0.84950000  0.58200000  1.0 -0.009786757
C  C14  1  0.32030000  0.15050000  0.58200000  1.0 -0.009786757
C  C15  1  0.15050000  0.67970000  0.41800000  1.0 -0.009786757
C  C16  1  0.84950000  0.32030000  0.41800000  1.0 -0.009786757
C  C17  1  0.85600000  0.84050000  0.77400000  1.0 0.0680847124
C  C18  1  0.14400000  0.15950000  0.77400000  1.0 0.0680847124
C  C19  1  0.15950000  0.85600000  0.22600000  1.0 0.0680847124
C  C20  1  0.84050000  0.14400000  0.22600000  1.0 0.0680847124
C  C21  1  0.84600000  0.78800000  0.54100000  1.0 0.0609341217
C  C22  1  0.15400000  0.21200000  0.54100000  1.0 0.0609341217
C  C23  1  0.21200000  0.84600000  0.45900000  1.0 0.0609341217
C  C24  1  0.78800000  0.15400000  0.45900000  1.0 0.0609341217
C  C25  1  0.62190000  0.68410000  0.91900000  1.0 -0.2002238864
C  C26  1  0.37810000  0.31590000  0.91900000  1.0 -0.2002238864
C  C27  1  0.31590000  0.62190000  0.08100000  1.0 -0.2002238864
C  C28  1  0.68410000  0.37810000  0.08100000  1.0 -0.2002238864
C  C29  1  0.61220000  0.62840000  0.17300000  1.0 -0.186235304
C  C30  1  0.38780000  0.37160000  0.17300000  1.0 -0.186235304
C  C31  1  0.37160000  0.61220000  0.82700000  1.0 -0.186235304
C  C32  1  0.62840000  0.38780000  0.82700000  1.0 -0.186235304
C  C33  1  0.58710000  0.83350000  0.66100000  1.0 -0.0786492853
C  C34  1  0.41290000  0.16650000  0.66100000  1.0 -0.0786492853
C  C35  1  0.16650000  0.58710000  0.33900000  1.0 -0.0786492853
C  C36  1  0.83350000  0.41290000  0.33900000  1.0 -0.0786492853
C  C37  1  0.65940000  0.87690000  0.73900000  1.0 -0.0515072933
C  C38  1  0.34060000  0.12310000  0.73900000  1.0 -0.0515072933
C  C39  1  0.12310000  0.65940000  0.26100000  1.0 -0.0515072933
C  C40  1  0.87690000  0.34060000  0.26100000  1.0 -0.0515072933
C  C41  1  0.88700000  0.87110000  0.67100000  1.0 -0.2002238864
C  C42  1  0.11300000  0.12890000  0.67100000  1.0 -0.2002238864
C  C43  1  0.12890000  0.88700000  0.32900000  1.0 -0.2002238864
C  C44  1  0.87110000  0.11300000  0.32900000  1.0 -0.2002238864
C  C45  1  0.87380000  0.81950000  0.41100000  1.0 -0.186235304
C  C46  1  0.12620000  0.18050000  0.41100000  1.0 -0.186235304
C  C47  1  0.18050000  0.87380000  0.58900000  1.0 -0.186235304
C  C48  1  0.81950000  0.12620000  0.58900000  1.0 -0.186235304
C  C49  1  0.60340000  0.63960000  0.99500000  1.0 0.1097519241
C  C50  1  0.39660000  0.36040000  0.99500000  1.0 0.1097519241
C  C51  1  0.36040000  0.60340000  0.00500000  1.0 0.1097519241
C  C52  1  0.63960000  0.39660000  0.00500000  1.0 0.1097519241
C  C53  1  0.60970000  0.87170000  0.75700000  1.0 0.0494623764
C  C54  1  0.39030000  0.12830000  0.75700000  1.0 0.0494623764
C  C55  1  0.12830000  0.60970000  0.24300000  1.0 0.0494623764
C  C56  1  0.87170000  0.39030000  0.24300000  1.0 0.0494623764
C  C57  1  0.89590000  0.86150000  0.48300000  1.0 0.0997307226
C  C58  1  0.10410000  0.13850000  0.48300000  1.0 0.0997307226
C  C59  1  0.13850000  0.89590000  0.51700000  1.0 0.0997307226
C  C60  1  0.86150000  0.10410000  0.51700000  1.0 0.0997307226
C  C61  1  0.57450000  0.60640000  0.87200000  1.0 0.0680847124
C  C62  1  0.42550000  0.39360000  0.87200000  1.0 0.0680847124
C  C63  1  0.39360000  0.57450000  0.12800000  1.0 0.0680847124
C  C64  1  0.60640000  0.42550000  0.12800000  1.0 0.0680847124
C  C65  1  0.58230000  0.90310000  0.88600000  1.0 0.002057358
C  C66  1  0.41770000  0.09690000  0.88600000  1.0 0.002057358
C  C67  1  0.09690000  0.58230000  0.11400000  1.0 0.002057358
C  C68  1  0.90310000  0.41770000  0.11400000  1.0 0.002057358
C  C69  1  0.92410000  0.89430000  0.37400000  1.0 0.0494623764
C  C70  1  0.07590000  0.10570000  0.37400000  1.0 0.0494623764
C  C71  1  0.10570000  0.92410000  0.62600000  1.0 0.0494623764
C  C72  1  0.89430000  0.07590000  0.62600000  1.0 0.0494623764
C  C73  1  0.54340000  0.62410000  0.72900000  1.0 -0.1508591539
C  C74  1  0.45660000  0.37590000  0.72900000  1.0 -0.1508591539
C  C75  1  0.37590000  0.54340000  0.27100000  1.0 -0.1508591539
C  C76  1  0.62410000  0.45660000  0.27100000  1.0 -0.1508591539
C  C77  1  0.58010000  0.55520000  0.89300000  1.0 -0.1508591539
C  C78  1  0.41990000  0.44480000  0.89300000  1.0 -0.1508591539
C  C79  1  0.44480000  0.58010000  0.10700000  1.0 -0.1508591539
C  C80  1  0.55520000  0.41990000  0.10700000  1.0 -0.1508591539
C  C81  1  0.52990000  0.90930000  0.87900000  1.0 -0.2828983544
C  C82  1  0.47010000  0.09070000  0.87900000  1.0 -0.2828983544
C  C83  1  0.09070000  0.52990000  0.12100000  1.0 -0.2828983544
C  C84  1  0.90930000  0.47010000  0.12100000  1.0 -0.2828983544
C  C85  1  0.60730000  0.92810000  0.02800000  1.0 -0.1663659541
C  C86  1  0.39270000  0.07190000  0.02800000  1.0 -0.1663659541
C  C87  1  0.07190000  0.60730000  0.97200000  1.0 -0.1663659541
C  C88  1  0.92810000  0.39270000  0.97200000  1.0 -0.1663659541
C  C89  1  0.91910000  0.94660000  0.39600000  1.0 -0.1392934361
C  C90  1  0.08090000  0.05340000  0.39600000  1.0 -0.1392934361
C  C91  1  0.05340000  0.91910000  0.60400000  1.0 -0.1392934361
C  C92  1  0.94660000  0.08090000  0.60400000  1.0 -0.1392934361
C  C93  1  0.95390000  0.87690000  0.22800000  1.0 -0.1392934361
C  C94  1  0.04610000  0.12310000  0.22800000  1.0 -0.1392934361
C  C95  1  0.12310000  0.95390000  0.77200000  1.0 -0.1392934361
C  C96  1  0.87690000  0.04610000  0.77200000  1.0 -0.1392934361
C  C97  1  0.51990000  0.59080000  0.60600000  1.0 -0.1571838363
C  C98  1  0.48010000  0.40920000  0.60600000  1.0 -0.1571838363
C  C99  1  0.40920000  0.51990000  0.39400000  1.0 -0.1571838363
C  C100  1  0.59080000  0.48010000  0.39400000  1.0 -0.1571838363
C  C101  1  0.55510000  0.52200000  0.77020000  1.0 -0.1508591539
C  C102  1  0.44490000  0.47800000  0.77020000  1.0 -0.1508591539
C  C103  1  0.47800000  0.55510000  0.22980000  1.0 -0.1508591539
C  C104  1  0.52200000  0.44490000  0.22980000  1.0 -0.1508591539
C  C105  1  0.50640000  0.93990000  0.01100000  1.0 -0.2489140248
C  C106  1  0.49360000  0.06010000  0.01100000  1.0 -0.2489140248
C  C107  1  0.06010000  0.50640000  0.98900000  1.0 -0.2489140248
C  C108  1  0.93990000  0.49360000  0.98900000  1.0 -0.2489140248
C  C109  1  0.58360000  0.95990000  0.15600000  1.0 -0.2489140248
C  C110  1  0.41640000  0.04010000  0.15600000  1.0 -0.2489140248
C  C111  1  0.04010000  0.58360000  0.84400000  1.0 -0.2489140248
C  C112  1  0.95990000  0.41640000  0.84400000  1.0 -0.2489140248
C  C113  1  0.94490000  0.97910000  0.27700000  1.0 -0.1508591539
C  C114  1  0.05510000  0.02090000  0.27700000  1.0 -0.1508591539
C  C115  1  0.02090000  0.94490000  0.72300000  1.0 -0.1508591539
C  C116  1  0.97910000  0.05510000  0.72300000  1.0 -0.1508591539
C  C117  1  0.98140000  0.90910000  0.11600000  1.0 -0.1663659541
C  C118  1  0.01860000  0.09090000  0.11600000  1.0 -0.1663659541
C  C119  1  0.09090000  0.98140000  0.88400000  1.0 -0.1663659541
C  C120  1  0.90910000  0.01860000  0.88400000  1.0 -0.1663659541
C  C121  1  0.52510000  0.54030000  0.62200000  1.0 0.0609341217
C  C122  1  0.47490000  0.45970000  0.62200000  1.0 0.0609341217
C  C123  1  0.45970000  0.52510000  0.37800000  1.0 0.0609341217
C  C124  1  0.54030000  0.47490000  0.37800000  1.0 0.0609341217
C  C125  1  0.53200000  0.96660000  0.14500000  1.0 0.0181873641
C  C126  1  0.46800000  0.03340000  0.14500000  1.0 0.0181873641
C  C127  1  0.03340000  0.53200000  0.85500000  1.0 0.0181873641
C  C128  1  0.96660000  0.46800000  0.85500000  1.0 0.0181873641
C  C129  1  0.97260000  0.96140000  0.12600000  1.0 0.0609341217
C  C130  1  0.02740000  0.03860000  0.12600000  1.0 0.0609341217
C  C131  1  0.03860000  0.97260000  0.87400000  1.0 0.0609341217
C  C132  1  0.96140000  0.02740000  0.87400000  1.0 0.0609341217
C  C133  1  0.50000000  0.50000000  0.50000000  1.0 -0.0044363988
C  C134  1  0.50000000  0.00000000  0.27900000  1.0 0.02982471
C  C135  1  0.00000000  0.50000000  0.72100000  1.0 0.02982471
C  C136  1  0.00000000  0.00000000  0.00000000  1.0 -0.009786757
C  C137  1  0.46290000  0.97010000  0.38600000  1.0 0.0439976239
C  C138  1  0.53710000  0.02990000  0.38600000  1.0 0.0439976239
C  C139  1  0.02990000  0.46290000  0.61400000  1.0 0.0439976239
C  C140  1  0.97010000  0.53710000  0.61400000  1.0 0.0439976239
C  C141  1  0.45500000  0.91810000  0.35900000  1.0 -0.0515072933
C  C142  1  0.54500000  0.08190000  0.35900000  1.0 -0.0515072933
C  C143  1  0.08190000  0.45500000  0.64100000  1.0 -0.0515072933
C  C144  1  0.91810000  0.54500000  0.64100000  1.0 -0.0515072933
C  C145  1  0.44350000  0.99320000  0.53900000  1.0 -0.0786492853
C  C146  1  0.55650000  0.00680000  0.53900000  1.0 -0.0786492853
C  C147  1  0.00680000  0.44350000  0.46100000  1.0 -0.0786492853
C  C148  1  0.99320000  0.55650000  0.46100000  1.0 -0.0786492853
C  C149  1  0.41930000  0.89330000  0.47700000  1.0 -0.033001219
C  C150  1  0.58070000  0.10670000  0.47700000  1.0 -0.033001219
C  C151  1  0.10670000  0.41930000  0.52300000  1.0 -0.033001219
C  C152  1  0.89330000  0.58070000  0.52300000  1.0 -0.033001219
C  C153  1  0.41200000  0.96870000  0.66500000  1.0 -0.1309194751
C  C154  1  0.58800000  0.03130000  0.66500000  1.0 -0.1192890707
C  C155  1  0.03130000  0.41200000  0.33500000  1.0 -0.1309194751
C  C156  1  0.96870000  0.58800000  0.33500000  1.0 -0.1192890707
C  C157  1  0.40270000  0.91690000  0.63800000  1.0 0.02982471
C  C158  1  0.59730000  0.08310000  0.63800000  1.0 0.02982471
C  C159  1  0.08310000  0.40270000  0.36200000  1.0 0.02982471
C  C160  1  0.91690000  0.59730000  0.36200000  1.0 0.02982471
C  C161  1  0.36740000  0.88920000  0.76500000  1.0 0.02982471
C  C162  1  0.63260000  0.11080000  0.76500000  1.0 0.02982471
C  C163  1  0.11080000  0.36740000  0.23500000  1.0 0.02982471
C  C164  1  0.88920000  0.63260000  0.23500000  1.0 0.02982471
C  C165  1  0.34940000  0.84430000  0.71000000  1.0 -0.0958052399
C  C166  1  0.65060000  0.15570000  0.71000000  1.0 -0.0958052399
C  C167  1  0.15570000  0.34940000  0.29000000  1.0 -0.0958052399
C  C168  1  0.84430000  0.65060000  0.29000000  1.0 -0.0958052399
C  C169  1  0.35690000  0.90380000  0.94900000  1.0 -0.1192890707
C  C170  1  0.64310000  0.09620000  0.94900000  1.0 -0.1192890707
C  C171  1  0.09620000  0.35690000  0.05100000  1.0 -0.1192890707
C  C172  1  0.90380000  0.64310000  0.05100000  1.0 -0.1192890707
C  C173  1  0.31720000  0.81450000  0.83100000  1.0 0.02982471
C  C174  1  0.68280000  0.18550000  0.83100000  1.0 0.02982471
C  C175  1  0.18550000  0.31720000  0.16900000  1.0 0.02982471
C  C176  1  0.81450000  0.68280000  0.16900000  1.0 0.02982471
C  C177  1  0.32330000  0.87310000  0.04800000  1.0 0.0439976239
C  C178  1  0.67670000  0.12690000  0.04800000  1.0 0.0439976239
C  C179  1  0.12690000  0.32330000  0.95200000  1.0 0.0439976239
C  C180  1  0.87310000  0.67670000  0.95200000  1.0 0.0439976239
C  C181  1  0.89090000  0.56440000  0.48000000  1.0 -0.0399706913
C  C182  1  0.10910000  0.43560000  0.48000000  1.0 -0.0399706913
C  C183  1  0.43560000  0.89090000  0.52000000  1.0 -0.0399706913
C  C184  1  0.56440000  0.10910000  0.52000000  1.0 -0.0399706913
C  C185  1  0.91930000  0.53140000  0.59200000  1.0 -0.0560835023
C  C186  1  0.08070000  0.46860000  0.59200000  1.0 -0.0560835023
C  C187  1  0.46860000  0.91930000  0.40800000  1.0 -0.0560835023
C  C188  1  0.53140000  0.08070000  0.40800000  1.0 -0.0560835023
C  C189  1  0.99620000  0.56900000  0.49400000  1.0 -0.0786492853
C  C190  1  0.00380000  0.43100000  0.49400000  1.0 -0.0786492853
C  C191  1  0.43100000  0.99620000  0.50600000  1.0 -0.0786492853
C  C192  1  0.56900000  0.00380000  0.50600000  1.0 -0.0786492853
C  C193  1  0.96930000  0.59900000  0.36500000  1.0 -0.1309194751
C  C194  1  0.03070000  0.40100000  0.36500000  1.0 -0.1392934361
C  C195  1  0.40100000  0.96930000  0.63500000  1.0 -0.1392934361
C  C196  1  0.59900000  0.03070000  0.63500000  1.0 -0.1392934361
C  C197  1  0.83890000  0.62800000  0.22800000  1.0 -0.0679977862
C  C198  1  0.16110000  0.37200000  0.22800000  1.0 -0.0679977862
C  C199  1  0.37200000  0.83890000  0.77200000  1.0 -0.0679977862
C  C200  1  0.62800000  0.16110000  0.77200000  1.0 -0.0679977862
C  C201  1  0.81750000  0.65550000  0.06800000  1.0 0.02982471
C  C202  1  0.18250000  0.34450000  0.06800000  1.0 0.02982471
C  C203  1  0.34450000  0.81750000  0.93200000  1.0 0.02982471
C  C204  1  0.65550000  0.18250000  0.93200000  1.0 0.02982471
C  C205  1  0.88180000  0.70630000  0.03400000  1.0 0.0073450084
C  C206  1  0.11820000  0.29370000  0.03400000  1.0 0.0073450084
C  C207  1  0.29370000  0.88180000  0.96600000  1.0 0.002057358
C  C208  1  0.70630000  0.11820000  0.96600000  1.0 0.0073450084
C  C209  1  0.91060000  0.67570000  0.15400000  1.0 -0.0958052399
C  C210  1  0.08940000  0.32430000  0.15400000  1.0 -0.0958052399
C  C211  1  0.32430000  0.91060000  0.84600000  1.0 -0.0958052399
C  C212  1  0.67570000  0.08940000  0.84600000  1.0 -0.0958052399
C  C213  1  0.85420000  0.34470000  0.18800000  1.0 -0.0919124475
C  C214  1  0.14580000  0.65530000  0.18800000  1.0 -0.0919124475
C  C215  1  0.65530000  0.85420000  0.81200000  1.0 -0.0919124475
C  C216  1  0.34470000  0.14580000  0.81200000  1.0 -0.0919124475
C  C217  1  0.82580000  0.31870000  0.33200000  1.0 0.0494623764
C  C218  1  0.17420000  0.68130000  0.33200000  1.0 0.0494623764
C  C219  1  0.68130000  0.82580000  0.66800000  1.0 0.0494623764
C  C220  1  0.31870000  0.17420000  0.66800000  1.0 0.0494623764
C  C221  1  0.82810000  0.37940000  0.53900000  1.0 0.02982471
C  C222  1  0.17190000  0.62060000  0.53900000  1.0 0.02982471
C  C223  1  0.62060000  0.82810000  0.46100000  1.0 0.02982471
C  C224  1  0.37940000  0.17190000  0.46100000  1.0 0.02982471
C  C225  1  0.86300000  0.40380000  0.42700000  1.0 -0.1113537653
C  C226  1  0.13700000  0.59620000  0.42700000  1.0 -0.1113537653
C  C227  1  0.59620000  0.86300000  0.57300000  1.0 -0.1113537653
C  C228  1  0.40380000  0.13700000  0.57300000  1.0 -0.1113537653
I  I1  1  0.74214000  0.69666000  0.62630000  1.0 -0.4507472469
I  I2  1  0.25786000  0.30334000  0.62630000  1.0 -0.4507472469
I  I3  1  0.30334000  0.74214000  0.37370000  1.0 -0.4507472469
I  I4  1  0.69666000  0.25786000  0.37370000  1.0 -0.4507472469
I  I5  1  0.75361000  0.80722000  0.12700000  1.0 -0.4507472469
I  I6  1  0.24639000  0.19278000  0.12700000  1.0 -0.4507472469
I  I7  1  0.19278000  0.75361000  0.87300000  1.0 -0.4507472469
I  I8  1  0.80722000  0.24639000  0.87300000  1.0 -0.4507472469
N  N1  1  0.65930000  0.70720000  0.21400000  1.0 -0.2002238864
N  N2  1  0.34070000  0.29280000  0.21400000  1.0 -0.2002238864
N  N3  1  0.29280000  0.65930000  0.78600000  1.0 -0.2002238864
N  N4  1  0.70720000  0.34070000  0.78600000  1.0 -0.2002238864
N  N5  1  0.66220000  0.80730000  0.51660000  1.0 -0.1392934361
N  N6  1  0.33780000  0.19270000  0.51660000  1.0 -0.1392934361
N  N7  1  0.19270000  0.66220000  0.48340000  1.0 -0.1309194751
N  N8  1  0.80730000  0.33780000  0.48340000  1.0 -0.1392934361
N  N9  1  0.84060000  0.79560000  0.72000000  1.0 -0.2002238864
N  N10  1  0.15940000  0.20440000  0.72000000  1.0 -0.2002238864
N  N11  1  0.20440000  0.84060000  0.28000000  1.0 -0.2002238864
N  N12  1  0.79560000  0.15940000  0.28000000  1.0 -0.2002238864
N  N13  1  0.83240000  0.69950000  0.01000000  1.0 -0.1309194751
N  N14  1  0.16760000  0.30050000  0.01000000  1.0 -0.1309194751
N  N15  1  0.30050000  0.83240000  0.99000000  1.0 -0.1309194751
N  N16  1  0.69950000  0.16760000  0.99000000  1.0 -0.1309194751
