# DDEC6 charges by PACMAN v1.1 (https://github.com/mtap-research/PACMAN-charge/)
data_IPICOA_ASR_pacman
_symmetry_space_group_name_H-M   'P 1'
_cell_length_a   9.60830000
_cell_length_b   14.08400000
_cell_length_c   16.03600000
_cell_angle_alpha   90.00000000
_cell_angle_beta   90.00000000
_cell_angle_gamma   90.00000000
_symmetry_Int_Tables_number   1
_chemical_formula_structural   Zn3P4(HO3)4
_chemical_formula_sum   'Zn12 P16 H16 O48'
_cell_volume   2170.04439390
_cell_formula_units_Z   4
loop_
 _symmetry_equiv_pos_site_id
 _symmetry_equiv_pos_as_xyz
  1  'x, y, z'
loop_
 _atom_site_type_symbol
 _atom_site_label
 _atom_site_symmetry_multiplicity
 _atom_site_fract_x
 _atom_site_fract_y
 _atom_site_fract_z
 _atom_site_occupancy
 _atom_site_charge
Zn  Zn1  1  0.04010000  0.89320000  0.42021000  1.0 1.0899780767
Zn  Zn2  1  0.45990000  0.39320000  0.07979000  1.0 1.0899780767
Zn  Zn3  1  0.95990000  0.60680000  0.42021000  1.0 1.0899780767
Zn  Zn4  1  0.54010000  0.10680000  0.07979000  1.0 1.0899780767
Zn  Zn5  1  0.95990000  0.10680000  0.57979000  1.0 1.0899780767
Zn  Zn6  1  0.54010000  0.60680000  0.92021000  1.0 1.0899780767
Zn  Zn7  1  0.04010000  0.39320000  0.57979000  1.0 1.0899780767
Zn  Zn8  1  0.45990000  0.89320000  0.92021000  1.0 1.0899780767
Zn  Zn9  1  0.00000000  0.75000000  0.76115000  1.0 1.1225215273
Zn  Zn10  1  0.50000000  0.25000000  0.73885000  1.0 1.1225215273
Zn  Zn11  1  0.00000000  0.25000000  0.23885000  1.0 1.1225215273
Zn  Zn12  1  0.50000000  0.75000000  0.26115000  1.0 1.1225215273
P  P1  1  0.75858000  0.77600000  0.38431000  1.0 1.2346420066
P  P2  1  0.74142000  0.27600000  0.11569000  1.0 1.2346420066
P  P3  1  0.24142000  0.72400000  0.38431000  1.0 1.2346420066
P  P4  1  0.25858000  0.22400000  0.11569000  1.0 1.2346420066
P  P5  1  0.24142000  0.22400000  0.61569000  1.0 1.2358335035
P  P6  1  0.25858000  0.72400000  0.88431000  1.0 1.2358335035
P  P7  1  0.75858000  0.27600000  0.61569000  1.0 1.2346420066
P  P8  1  0.74142000  0.77600000  0.88431000  1.0 1.2346420066
P  P9  1  0.98286000  0.88788000  0.61216000  1.0 1.2214799004
P  P10  1  0.51714000  0.38788000  0.88784000  1.0 1.2214799004
P  P11  1  0.01714000  0.61212000  0.61216000  1.0 1.2214799004
P  P12  1  0.48286000  0.11212000  0.88784000  1.0 1.2214799004
P  P13  1  0.01714000  0.11212000  0.38784000  1.0 1.2214799004
P  P14  1  0.48286000  0.61212000  0.11216000  1.0 1.2214799004
P  P15  1  0.98286000  0.38788000  0.38784000  1.0 1.2214799004
P  P16  1  0.51714000  0.88788000  0.11216000  1.0 1.2214799004
H  H1  1  0.72000000  0.75800000  0.46300000  1.0 -0.1208388133
H  H2  1  0.78000000  0.25800000  0.03700000  1.0 -0.1208388133
H  H3  1  0.28000000  0.74200000  0.46300000  1.0 -0.1208388133
H  H4  1  0.22000000  0.24200000  0.03700000  1.0 -0.1208388133
H  H5  1  0.28000000  0.24200000  0.53700000  1.0 -0.1208388133
H  H6  1  0.22000000  0.74200000  0.96300000  1.0 -0.1208388133
H  H7  1  0.72000000  0.25800000  0.53700000  1.0 -0.1208388133
H  H8  1  0.78000000  0.75800000  0.96300000  1.0 -0.1208388133
H  H9  1  0.87600000  0.82800000  0.60200000  1.0 -0.1441774348
H  H10  1  0.62400000  0.32800000  0.89800000  1.0 -0.1441774348
H  H11  1  0.12400000  0.67200000  0.60200000  1.0 -0.1441774348
H  H12  1  0.37600000  0.17200000  0.89800000  1.0 -0.1441774348
H  H13  1  0.12400000  0.17200000  0.39800000  1.0 -0.1441774348
H  H14  1  0.37600000  0.67200000  0.10200000  1.0 -0.1441774348
H  H15  1  0.87600000  0.32800000  0.39800000  1.0 -0.1441774348
H  H16  1  0.62400000  0.82800000  0.10200000  1.0 -0.1441774348
O  O1  1  0.84880000  0.86170000  0.39780000  1.0 -0.6466455123
O  O2  1  0.65120000  0.36170000  0.10220000  1.0 -0.6466455123
O  O3  1  0.15120000  0.63830000  0.39780000  1.0 -0.6466455123
O  O4  1  0.34880000  0.13830000  0.10220000  1.0 -0.6466455123
O  O5  1  0.15120000  0.13830000  0.60220000  1.0 -0.6466455123
O  O6  1  0.34880000  0.63830000  0.89780000  1.0 -0.6466455123
O  O7  1  0.84880000  0.36170000  0.60220000  1.0 -0.6466455123
O  O8  1  0.65120000  0.86170000  0.89780000  1.0 -0.6466455123
O  O9  1  0.64840000  0.80390000  0.32350000  1.0 -0.63533511
O  O10  1  0.85160000  0.30390000  0.17650000  1.0 -0.63533511
O  O11  1  0.35160000  0.69610000  0.32350000  1.0 -0.63533511
O  O12  1  0.14840000  0.19610000  0.17650000  1.0 -0.63533511
O  O13  1  0.35160000  0.19610000  0.67650000  1.0 -0.63533511
O  O14  1  0.14840000  0.69610000  0.82350000  1.0 -0.63533511
O  O15  1  0.64840000  0.30390000  0.67650000  1.0 -0.63533511
O  O16  1  0.85160000  0.80390000  0.82350000  1.0 -0.63533511
O  O17  1  0.83540000  0.68770000  0.35687000  1.0 -0.6466455123
O  O18  1  0.66460000  0.18770000  0.14313000  1.0 -0.6466455123
O  O19  1  0.16460000  0.81230000  0.35687000  1.0 -0.6466455123
O  O20  1  0.33540000  0.31230000  0.14313000  1.0 -0.6466455123
O  O21  1  0.16460000  0.31230000  0.64313000  1.0 -0.6466455123
O  O22  1  0.33540000  0.81230000  0.85687000  1.0 -0.6466455123
O  O23  1  0.83540000  0.18770000  0.64313000  1.0 -0.6466455123
O  O24  1  0.66460000  0.68770000  0.85687000  1.0 -0.6466455123
O  O25  1  0.07990000  0.88780000  0.53810000  1.0 -0.6744237615
O  O26  1  0.42010000  0.38780000  0.96190000  1.0 -0.6744237615
O  O27  1  0.92010000  0.61220000  0.53810000  1.0 -0.6744237615
O  O28  1  0.57990000  0.11220000  0.96190000  1.0 -0.6744237615
O  O29  1  0.92010000  0.11220000  0.46190000  1.0 -0.6744237615
O  O30  1  0.57990000  0.61220000  0.03810000  1.0 -0.6744237615
O  O31  1  0.07990000  0.38780000  0.46190000  1.0 -0.6744237615
O  O32  1  0.42010000  0.88780000  0.03810000  1.0 -0.6744237615
O  O33  1  0.91290000  0.98350000  0.62660000  1.0 -0.6088834627
O  O34  1  0.58710000  0.48350000  0.87340000  1.0 -0.6088834627
O  O35  1  0.08710000  0.51650000  0.62660000  1.0 -0.6088834627
O  O36  1  0.41290000  0.01650000  0.87340000  1.0 -0.6088834627
O  O37  1  0.08710000  0.01650000  0.37340000  1.0 -0.6088834627
O  O38  1  0.41290000  0.51650000  0.12660000  1.0 -0.6088834627
O  O39  1  0.91290000  0.48350000  0.37340000  1.0 -0.6088834627
O  O40  1  0.58710000  0.98350000  0.12660000  1.0 -0.6088834627
O  O41  1  0.05950000  0.85470000  0.69019000  1.0 -0.6307090147
O  O42  1  0.44050000  0.35470000  0.80981000  1.0 -0.6307090147
O  O43  1  0.94050000  0.64530000  0.69019000  1.0 -0.6307090147
O  O44  1  0.55950000  0.14530000  0.80981000  1.0 -0.6307090147
O  O45  1  0.94050000  0.14530000  0.30981000  1.0 -0.6307090147
O  O46  1  0.55950000  0.64530000  0.19019000  1.0 -0.6307090147
O  O47  1  0.05950000  0.35470000  0.30981000  1.0 -0.6307090147
O  O48  1  0.44050000  0.85470000  0.19019000  1.0 -0.6307090147
