# DDEC6 charges by PACMAN v1.1 (https://github.com/mtap-research/PACMAN-charge/)
data_IPIFAP_FSR_pacman
_symmetry_space_group_name_H-M   'P 1'
_cell_length_a   11.96300000
_cell_length_b   11.96300000
_cell_length_c   11.34600000
_cell_angle_alpha   90.00000000
_cell_angle_beta   90.00000000
_cell_angle_gamma   121.12500000
_symmetry_Int_Tables_number   1
_chemical_formula_structural   Ag3H29C18N8O7
_chemical_formula_sum   'Ag6 H58 C36 N16 O14'
_cell_volume   1390.00981348
_cell_formula_units_Z   2
loop_
 _symmetry_equiv_pos_site_id
 _symmetry_equiv_pos_as_xyz
  1  'x, y, z'
loop_
 _atom_site_type_symbol
 _atom_site_label
 _atom_site_symmetry_multiplicity
 _atom_site_fract_x
 _atom_site_fract_y
 _atom_site_fract_z
 _atom_site_occupancy
 _atom_site_charge
Ag  Ag1  1  0.35149000  0.85887000  0.47508000  1.0 0.2795331875
Ag  Ag2  1  0.64851000  0.14113000  0.97508000  1.0 0.2795331875
Ag  Ag3  1  0.85887000  0.35149000  0.47508000  1.0 0.2795331875
Ag  Ag4  1  0.14113000  0.64851000  0.97508000  1.0 0.2795331875
Ag  Ag5  1  0.82608000  0.82608000  0.29824000  1.0 0.3142898107
Ag  Ag6  1  0.17392000  0.17392000  0.79824000  1.0 0.3142898107
H  H1  1  0.48460000  0.91320000  0.18120000  1.0 0.098891216
H  H2  1  0.51540000  0.08680000  0.68120000  1.0 0.098891216
H  H3  1  0.91320000  0.48460000  0.18120000  1.0 0.098891216
H  H4  1  0.08680000  0.51540000  0.68120000  1.0 0.098891216
H  H5  1  0.49400000  0.04220000  0.22490000  1.0 0.1111490819
H  H6  1  0.50600000  0.95780000  0.72490000  1.0 0.1111490819
H  H7  1  0.04220000  0.49400000  0.22490000  1.0 0.1111490819
H  H8  1  0.95780000  0.50600000  0.72490000  1.0 0.1111490819
H  H9  1  0.58630000  0.12910000  0.41880000  1.0 0.1111490819
H  H10  1  0.41370000  0.87090000  0.91880000  1.0 0.1111490819
H  H11  1  0.12910000  0.58630000  0.41880000  1.0 0.1111490819
H  H12  1  0.87090000  0.41370000  0.91880000  1.0 0.1111490819
H  H13  1  0.63510000  0.05490000  0.49750000  1.0 0.098891216
H  H14  1  0.36490000  0.94510000  0.99750000  1.0 0.098891216
H  H15  1  0.05490000  0.63510000  0.49750000  1.0 0.098891216
H  H16  1  0.94510000  0.36490000  0.99750000  1.0 0.098891216
H  H17  1  0.61810000  0.85790000  0.42880000  1.0 0.1111490819
H  H18  1  0.38190000  0.14210000  0.92880000  1.0 0.1111490819
H  H19  1  0.85790000  0.61810000  0.42880000  1.0 0.1111490819
H  H20  1  0.14210000  0.38190000  0.92880000  1.0 0.1111490819
H  H21  1  0.55810000  0.80150000  0.30440000  1.0 0.1155856276
H  H22  1  0.44190000  0.19850000  0.80440000  1.0 0.1155856276
H  H23  1  0.80150000  0.55810000  0.30440000  1.0 0.1155856276
H  H24  1  0.19850000  0.44190000  0.80440000  1.0 0.1155856276
H  H25  1  0.90980000  0.12880000  0.33360000  1.0 0.098891216
H  H26  1  0.09020000  0.87120000  0.83360000  1.0 0.098891216
H  H27  1  0.12880000  0.90980000  0.33360000  1.0 0.098891216
H  H28  1  0.87120000  0.09020000  0.83360000  1.0 0.098891216
H  H29  1  0.82960000  0.05480000  0.44650000  1.0 0.1111490819
H  H30  1  0.17040000  0.94520000  0.94650000  1.0 0.1111490819
H  H31  1  0.05480000  0.82960000  0.44650000  1.0 0.1111490819
H  H32  1  0.94520000  0.17040000  0.94650000  1.0 0.1111490819
H  H33  1  0.81720000  0.04220000  0.13800000  1.0 0.098891216
H  H34  1  0.18280000  0.95780000  0.63800000  1.0 0.098891216
H  H35  1  0.04220000  0.81720000  0.13800000  1.0 0.098891216
H  H36  1  0.95780000  0.18280000  0.63800000  1.0 0.098891216
H  H37  1  0.68020000  0.91360000  0.12740000  1.0 0.1111490819
H  H38  1  0.31980000  0.08640000  0.62740000  1.0 0.1111490819
H  H39  1  0.91360000  0.68020000  0.12740000  1.0 0.1111490819
H  H40  1  0.08640000  0.31980000  0.62740000  1.0 0.1111490819
H  H41  1  0.83350000  0.24070000  0.20750000  1.0 0.0930416906
H  H42  1  0.16650000  0.75930000  0.70750000  1.0 0.0930416906
H  H43  1  0.24070000  0.83350000  0.20750000  1.0 0.0930416906
H  H44  1  0.75930000  0.16650000  0.70750000  1.0 0.0930416906
H  H45  1  0.70700000  0.24180000  0.24160000  1.0 0.1111490819
H  H46  1  0.29300000  0.75820000  0.74160000  1.0 0.1111490819
H  H47  1  0.24180000  0.70700000  0.24160000  1.0 0.1111490819
H  H48  1  0.75820000  0.29300000  0.74160000  1.0 0.1111490819
H  H49  1  0.50680000  0.61680000  0.68620000  1.0 0.145528915
H  H50  1  0.49320000  0.38320000  0.18620000  1.0 0.145528915
H  H51  1  0.61680000  0.50680000  0.68620000  1.0 0.145528915
H  H52  1  0.38320000  0.49320000  0.18620000  1.0 0.145528915
H  H53  1  0.37270000  0.49010000  0.66010000  1.0 0.1318351949
H  H54  1  0.62730000  0.50990000  0.16010000  1.0 0.1318351949
H  H55  1  0.49010000  0.37270000  0.66010000  1.0 0.1318351949
H  H56  1  0.50990000  0.62730000  0.16010000  1.0 0.1318351949
H  H57  1  0.44740000  0.44740000  0.38910000  1.0 0.3560535783
H  H58  1  0.55260000  0.55260000  0.88910000  1.0 0.3560535783
C  C1  1  0.53720000  0.99240000  0.22640000  1.0 -0.031347488
C  C2  1  0.46280000  0.00760000  0.72640000  1.0 -0.031347488
C  C3  1  0.99240000  0.53720000  0.22640000  1.0 -0.031347488
C  C4  1  0.00760000  0.46280000  0.72640000  1.0 -0.031347488
C  C5  1  0.62791000  0.07769000  0.41700000  1.0 -0.047675562
C  C6  1  0.37209000  0.92231000  0.91700000  1.0 -0.047675562
C  C7  1  0.07769000  0.62791000  0.41700000  1.0 -0.047675562
C  C8  1  0.92231000  0.37209000  0.91700000  1.0 -0.047675562
C  C9  1  0.61094000  0.88146000  0.34860000  1.0 -0.0404644317
C  C10  1  0.38906000  0.11854000  0.84860000  1.0 -0.0404644317
C  C11  1  0.88146000  0.61094000  0.34860000  1.0 -0.0404644317
C  C12  1  0.11854000  0.38906000  0.84860000  1.0 -0.0404644317
C  C13  1  0.82237000  0.07803000  0.36610000  1.0 -0.0404644317
C  C14  1  0.17763000  0.92197000  0.86610000  1.0 -0.0404644317
C  C15  1  0.07803000  0.82237000  0.36610000  1.0 -0.0404644317
C  C16  1  0.92197000  0.17763000  0.86610000  1.0 -0.0404644317
C  C17  1  0.73128000  0.99232000  0.17360000  1.0 -0.047675562
C  C18  1  0.26872000  0.00768000  0.67360000  1.0 -0.047675562
C  C19  1  0.99232000  0.73128000  0.17360000  1.0 -0.047675562
C  C20  1  0.00768000  0.26872000  0.67360000  1.0 -0.047675562
C  C21  1  0.74738000  0.18942000  0.24240000  1.0 -0.0404644317
C  C22  1  0.25262000  0.81058000  0.74240000  1.0 -0.0404644317
C  C23  1  0.18942000  0.74738000  0.24240000  1.0 -0.0404644317
C  C24  1  0.81058000  0.25262000  0.74240000  1.0 -0.0404644317
C  C25  1  0.39923000  0.64657000  0.56400000  1.0 0.5694501275
C  C26  1  0.60077000  0.35343000  0.06400000  1.0 0.5694501275
C  C27  1  0.64657000  0.39923000  0.56400000  1.0 0.5694501275
C  C28  1  0.35343000  0.60077000  0.06400000  1.0 0.5694501275
C  C29  1  0.44712000  0.56508000  0.62360000  1.0 -0.4216275564
C  C30  1  0.55288000  0.43492000  0.12360000  1.0 -0.4216275564
C  C31  1  0.56508000  0.44712000  0.62360000  1.0 -0.4216275564
C  C32  1  0.43492000  0.55288000  0.12360000  1.0 -0.4216275564
C  C33  1  0.51560000  0.51560000  0.54400000  1.0 0.2654344911
C  C34  1  0.48440000  0.48440000  0.04400000  1.0 0.2654344911
C  C35  1  0.63200000  0.63200000  0.47670000  1.0 0.5064740652
C  C36  1  0.36800000  0.36800000  0.97670000  1.0 0.5064740652
N  N1  1  0.54612000  0.95768000  0.34910000  1.0 -0.1467787488
N  N2  1  0.45388000  0.04232000  0.84910000  1.0 -0.1467787488
N  N3  1  0.95768000  0.54612000  0.34910000  1.0 -0.1467787488
N  N4  1  0.04232000  0.45388000  0.84910000  1.0 -0.1467787488
N  N5  1  0.74422000  0.95662000  0.29490000  1.0 -0.1309219612
N  N6  1  0.25578000  0.04338000  0.79490000  1.0 -0.1309219612
N  N7  1  0.95662000  0.74422000  0.29490000  1.0 -0.1309219612
N  N8  1  0.04338000  0.25578000  0.79490000  1.0 -0.1309219612
N  N9  1  0.76040000  0.15740000  0.36580000  1.0 -0.1467787488
N  N10  1  0.23960000  0.84260000  0.86580000  1.0 -0.1467787488
N  N11  1  0.15740000  0.76040000  0.36580000  1.0 -0.1467787488
N  N12  1  0.84260000  0.23960000  0.86580000  1.0 -0.1467787488
N  N13  1  0.66775000  0.07025000  0.17080000  1.0 -0.1467787488
N  N14  1  0.33225000  0.92975000  0.67080000  1.0 -0.1467787488
N  N15  1  0.07025000  0.66775000  0.17080000  1.0 -0.1467787488
N  N16  1  0.92975000  0.33225000  0.67080000  1.0 -0.1467787488
O  O1  1  0.72130000  0.72130000  0.53660000  1.0 -0.5679634786
O  O2  1  0.27870000  0.27870000  0.03660000  1.0 -0.5679634786
O  O3  1  0.62640000  0.62640000  0.36660000  1.0 -0.5679634786
O  O4  1  0.37360000  0.37360000  0.86660000  1.0 -0.5679634786
O  O5  1  0.30450000  0.59570000  0.50520000  1.0 -0.519503288
O  O6  1  0.69550000  0.40430000  0.00520000  1.0 -0.519503288
O  O7  1  0.59570000  0.30450000  0.50520000  1.0 -0.519503288
O  O8  1  0.40430000  0.69550000  0.00520000  1.0 -0.519503288
O  O9  1  0.45940000  0.76500000  0.58170000  1.0 -0.5303639894
O  O10  1  0.54060000  0.23500000  0.08170000  1.0 -0.5303639894
O  O11  1  0.76500000  0.45940000  0.58170000  1.0 -0.5303639894
O  O12  1  0.23500000  0.54060000  0.08170000  1.0 -0.5303639894
O  O13  1  0.42730000  0.42730000  0.46070000  1.0 -0.519503288
O  O14  1  0.57270000  0.57270000  0.96070000  1.0 -0.519503288
