# DDEC6 charges by PACMAN v1.1 (https://github.com/mtap-research/PACMAN-charge/)
data_IRAJIV_ASR_pacman
_symmetry_space_group_name_H-M   'P 1'
_cell_length_a   13.34220000
_cell_length_b   13.34220000
_cell_length_c   17.86870000
_cell_angle_alpha   90.00000000
_cell_angle_beta   90.00000000
_cell_angle_gamma   120.00000000
_symmetry_Int_Tables_number   1
_chemical_formula_structural   Ga4P7(HO3)7
_chemical_formula_sum   'Ga16 P28 H28 O84'
_cell_volume   2754.72646950
_cell_formula_units_Z   4
loop_
 _symmetry_equiv_pos_site_id
 _symmetry_equiv_pos_as_xyz
  1  'x, y, z'
loop_
 _atom_site_type_symbol
 _atom_site_label
 _atom_site_symmetry_multiplicity
 _atom_site_fract_x
 _atom_site_fract_y
 _atom_site_fract_z
 _atom_site_occupancy
 _atom_site_charge
Ga  Ga1  1  0.00000000  0.00000000  0.25000000  1.0 1.3465544957
Ga  Ga2  1  0.00000000  0.00000000  0.75000000  1.0 1.3465544957
Ga  Ga3  1  0.00000000  0.00000000  0.50000000  1.0 1.4066396731
Ga  Ga4  1  0.00000000  0.00000000  0.00000000  1.0 1.4044617194
Ga  Ga5  1  0.85958000  0.56737000  0.46033000  1.0 1.4434239643
Ga  Ga6  1  0.43263000  0.29221000  0.46033000  1.0 1.4434239643
Ga  Ga7  1  0.56737000  0.85958000  0.03967000  1.0 1.4434239643
Ga  Ga8  1  0.70779000  0.14042000  0.46033000  1.0 1.4434239643
Ga  Ga9  1  0.14042000  0.70779000  0.03967000  1.0 1.4434239643
Ga  Ga10  1  0.29221000  0.43263000  0.03967000  1.0 1.4434239643
Ga  Ga11  1  0.14042000  0.43263000  0.53967000  1.0 1.4434239643
Ga  Ga12  1  0.56737000  0.70779000  0.53967000  1.0 1.4434239643
Ga  Ga13  1  0.43263000  0.14042000  0.96033000  1.0 1.4434239643
Ga  Ga14  1  0.29221000  0.85958000  0.53967000  1.0 1.4434239643
Ga  Ga15  1  0.85958000  0.29221000  0.96033000  1.0 1.4434239643
Ga  Ga16  1  0.70779000  0.56737000  0.96033000  1.0 1.4434239643
P  P1  1  0.97456000  0.81342000  0.37109000  1.0 1.069068529
P  P2  1  0.18658000  0.16114000  0.37109000  1.0 1.069068529
P  P3  1  0.81342000  0.97456000  0.12891000  1.0 1.069068529
P  P4  1  0.83886000  0.02544000  0.37109000  1.0 1.069068529
P  P5  1  0.02544000  0.83886000  0.12891000  1.0 1.069068529
P  P6  1  0.16114000  0.18658000  0.12891000  1.0 1.069068529
P  P7  1  0.02544000  0.18658000  0.62891000  1.0 1.069068529
P  P8  1  0.81342000  0.83886000  0.62891000  1.0 1.069068529
P  P9  1  0.18658000  0.02544000  0.87109000  1.0 1.069068529
P  P10  1  0.16114000  0.97456000  0.62891000  1.0 1.069068529
P  P11  1  0.97456000  0.16114000  0.87109000  1.0 1.069068529
P  P12  1  0.83886000  0.81342000  0.87109000  1.0 1.069068529
P  P13  1  0.87253000  0.36784000  0.55354000  1.0 1.036661265
P  P14  1  0.63216000  0.50469000  0.55354000  1.0 1.036661265
P  P15  1  0.36784000  0.87253000  0.94646000  1.0 1.036661265
P  P16  1  0.49531000  0.12747000  0.55354000  1.0 1.036661265
P  P17  1  0.12747000  0.49531000  0.94646000  1.0 1.036661265
P  P18  1  0.50469000  0.63216000  0.94646000  1.0 1.036661265
P  P19  1  0.12747000  0.63216000  0.44646000  1.0 1.036661265
P  P20  1  0.36784000  0.49531000  0.44646000  1.0 1.036661265
P  P21  1  0.63216000  0.12747000  0.05354000  1.0 1.036661265
P  P22  1  0.50469000  0.87253000  0.44646000  1.0 1.036661265
P  P23  1  0.87253000  0.50469000  0.05354000  1.0 1.036661265
P  P24  1  0.49531000  0.36784000  0.05354000  1.0 1.036661265
P  P25  1  0.66666667  0.33333333  0.36290000  1.0 1.1086041706
P  P26  1  0.33333333  0.66666667  0.13710000  1.0 1.1086041706
P  P27  1  0.33333333  0.66666667  0.63710000  1.0 1.1086041706
P  P28  1  0.66666667  0.33333333  0.86290000  1.0 1.1086041706
H  H1  1  0.03670000  0.80610000  0.34720000  1.0 0.0370663302
H  H2  1  0.19390000  0.23060000  0.34720000  1.0 0.0370663302
H  H3  1  0.80610000  0.03670000  0.15280000  1.0 0.0370663302
H  H4  1  0.76940000  0.96330000  0.34720000  1.0 0.0370663302
H  H5  1  0.96330000  0.76940000  0.15280000  1.0 0.0370663302
H  H6  1  0.23060000  0.19390000  0.15280000  1.0 0.0370663302
H  H7  1  0.96330000  0.19390000  0.65280000  1.0 0.0370663302
H  H8  1  0.80610000  0.76940000  0.65280000  1.0 0.0370663302
H  H9  1  0.19390000  0.96330000  0.84720000  1.0 0.0370663302
H  H10  1  0.23060000  0.03670000  0.65280000  1.0 0.0370663302
H  H11  1  0.03670000  0.23060000  0.84720000  1.0 0.0370663302
H  H12  1  0.76940000  0.80610000  0.84720000  1.0 0.0370663302
H  H13  1  0.82970000  0.32380000  0.59780000  1.0 0.0522352963
H  H14  1  0.67620000  0.50590000  0.59780000  1.0 0.0522352963
H  H15  1  0.32380000  0.82970000  0.90220000  1.0 0.0522352963
H  H16  1  0.49410000  0.17030000  0.59780000  1.0 0.0522352963
H  H17  1  0.17030000  0.49410000  0.90220000  1.0 0.0522352963
H  H18  1  0.50590000  0.67620000  0.90220000  1.0 0.0522352963
H  H19  1  0.17030000  0.67620000  0.40220000  1.0 0.0522352963
H  H20  1  0.32380000  0.49410000  0.40220000  1.0 0.0522352963
H  H21  1  0.67620000  0.17030000  0.09780000  1.0 0.0522352963
H  H22  1  0.50590000  0.82970000  0.40220000  1.0 0.0522352963
H  H23  1  0.82970000  0.50590000  0.09780000  1.0 0.0522352963
H  H24  1  0.49410000  0.32380000  0.09780000  1.0 0.0522352963
H  H25  1  0.66666667  0.33333333  0.30810000  1.0 0.0370663302
H  H26  1  0.33333333  0.66666667  0.19190000  1.0 0.0370663302
H  H27  1  0.33333333  0.66666667  0.69190000  1.0 0.0370663302
H  H28  1  0.66666667  0.33333333  0.80810000  1.0 0.0370663302
O  O1  1  0.92550000  0.85980000  0.31110000  1.0 -0.6395819632
O  O2  1  0.14020000  0.06570000  0.31110000  1.0 -0.6395819632
O  O3  1  0.85980000  0.92550000  0.18890000  1.0 -0.6395819632
O  O4  1  0.93430000  0.07450000  0.31110000  1.0 -0.6395819632
O  O5  1  0.07450000  0.93430000  0.18890000  1.0 -0.6395819632
O  O6  1  0.06570000  0.14020000  0.18890000  1.0 -0.6395819632
O  O7  1  0.07450000  0.14020000  0.68890000  1.0 -0.6395819632
O  O8  1  0.85980000  0.93430000  0.68890000  1.0 -0.6395819632
O  O9  1  0.14020000  0.07450000  0.81110000  1.0 -0.6395819632
O  O10  1  0.06570000  0.92550000  0.68890000  1.0 -0.6395819632
O  O11  1  0.92550000  0.06570000  0.81110000  1.0 -0.6395819632
O  O12  1  0.93430000  0.85980000  0.81110000  1.0 -0.6395819632
O  O13  1  0.02850000  0.89340000  0.43870000  1.0 -0.6283052157
O  O14  1  0.10660000  0.13510000  0.43870000  1.0 -0.6283052157
O  O15  1  0.89340000  0.02850000  0.06130000  1.0 -0.6201600899
O  O16  1  0.86490000  0.97150000  0.43870000  1.0 -0.6201600899
O  O17  1  0.97150000  0.86490000  0.06130000  1.0 -0.6201600899
O  O18  1  0.13510000  0.10660000  0.06130000  1.0 -0.6201600899
O  O19  1  0.97150000  0.10660000  0.56130000  1.0 -0.6283052157
O  O20  1  0.89340000  0.86490000  0.56130000  1.0 -0.6283052157
O  O21  1  0.10660000  0.97150000  0.93870000  1.0 -0.6201600899
O  O22  1  0.13510000  0.02850000  0.56130000  1.0 -0.6283052157
O  O23  1  0.02850000  0.13510000  0.93870000  1.0 -0.6283052157
O  O24  1  0.86490000  0.89340000  0.93870000  1.0 -0.6283052157
O  O25  1  0.83030000  0.45190000  0.53610000  1.0 -0.6718908024
O  O26  1  0.54810000  0.37840000  0.53610000  1.0 -0.6718908024
O  O27  1  0.45190000  0.83030000  0.96390000  1.0 -0.6718908024
O  O28  1  0.62160000  0.16970000  0.53610000  1.0 -0.6718908024
O  O29  1  0.16970000  0.62160000  0.96390000  1.0 -0.6718908024
O  O30  1  0.37840000  0.54810000  0.96390000  1.0 -0.6718908024
O  O31  1  0.16970000  0.54810000  0.46390000  1.0 -0.6718908024
O  O32  1  0.45190000  0.62160000  0.46390000  1.0 -0.6718908024
O  O33  1  0.54810000  0.16970000  0.03610000  1.0 -0.6718908024
O  O34  1  0.37840000  0.83030000  0.46390000  1.0 -0.6718908024
O  O35  1  0.83030000  0.37840000  0.03610000  1.0 -0.6718908024
O  O36  1  0.62160000  0.45190000  0.03610000  1.0 -0.6718908024
O  O37  1  0.71980000  0.56740000  0.49170000  1.0 -0.6283052157
O  O38  1  0.43260000  0.15240000  0.49170000  1.0 -0.6283052157
O  O39  1  0.56740000  0.71980000  0.00830000  1.0 -0.6283052157
O  O40  1  0.84760000  0.28020000  0.49170000  1.0 -0.6283052157
O  O41  1  0.28020000  0.84760000  0.00830000  1.0 -0.6283052157
O  O42  1  0.15240000  0.43260000  0.00830000  1.0 -0.6283052157
O  O43  1  0.28020000  0.43260000  0.50830000  1.0 -0.6283052157
O  O44  1  0.56740000  0.84760000  0.50830000  1.0 -0.6283052157
O  O45  1  0.43260000  0.28020000  0.99170000  1.0 -0.6283052157
O  O46  1  0.15240000  0.71980000  0.50830000  1.0 -0.6283052157
O  O47  1  0.71980000  0.15240000  0.99170000  1.0 -0.6283052157
O  O48  1  0.84760000  0.56740000  0.99170000  1.0 -0.6283052157
O  O49  1  0.00050000  0.57260000  0.42640000  1.0 -0.6545983029
O  O50  1  0.42740000  0.42790000  0.42640000  1.0 -0.6545983029
O  O51  1  0.57260000  0.00050000  0.07360000  1.0 -0.6545983029
O  O52  1  0.57210000  0.99950000  0.42640000  1.0 -0.6545983029
O  O53  1  0.99950000  0.57210000  0.07360000  1.0 -0.6545983029
O  O54  1  0.42790000  0.42740000  0.07360000  1.0 -0.6545983029
O  O55  1  0.99950000  0.42740000  0.57360000  1.0 -0.6545983029
O  O56  1  0.57260000  0.57210000  0.57360000  1.0 -0.6545983029
O  O57  1  0.42740000  0.99950000  0.92640000  1.0 -0.6545983029
O  O58  1  0.42790000  0.00050000  0.57360000  1.0 -0.6545983029
O  O59  1  0.00050000  0.42790000  0.92640000  1.0 -0.6545983029
O  O60  1  0.57210000  0.57260000  0.92640000  1.0 -0.6545983029
O  O61  1  0.77490000  0.45060000  0.38260000  1.0 -0.6395819632
O  O62  1  0.54940000  0.32430000  0.38260000  1.0 -0.6395819632
O  O63  1  0.45060000  0.77490000  0.11740000  1.0 -0.6395819632
O  O64  1  0.67570000  0.22510000  0.38260000  1.0 -0.6395819632
O  O65  1  0.22510000  0.67570000  0.11740000  1.0 -0.6395819632
O  O66  1  0.32430000  0.54940000  0.11740000  1.0 -0.6395819632
O  O67  1  0.22510000  0.54940000  0.61740000  1.0 -0.6395819632
O  O68  1  0.45060000  0.67570000  0.61740000  1.0 -0.6395819632
O  O69  1  0.54940000  0.22510000  0.88260000  1.0 -0.6395819632
O  O70  1  0.32430000  0.77490000  0.61740000  1.0 -0.6395819632
O  O71  1  0.77490000  0.32430000  0.88260000  1.0 -0.6395819632
O  O72  1  0.67570000  0.45060000  0.88260000  1.0 -0.6395819632
O  O73  1  0.88110000  0.69210000  0.39230000  1.0 -0.6201600899
O  O74  1  0.30790000  0.18900000  0.39230000  1.0 -0.6201600899
O  O75  1  0.69210000  0.88110000  0.10770000  1.0 -0.6201600899
O  O76  1  0.81100000  0.11890000  0.39230000  1.0 -0.6201600899
O  O77  1  0.11890000  0.81100000  0.10770000  1.0 -0.6201600899
O  O78  1  0.18900000  0.30790000  0.10770000  1.0 -0.6201600899
O  O79  1  0.11890000  0.30790000  0.60770000  1.0 -0.6201600899
O  O80  1  0.69210000  0.81100000  0.60770000  1.0 -0.6201600899
O  O81  1  0.30790000  0.11890000  0.89230000  1.0 -0.6201600899
O  O82  1  0.18900000  0.88110000  0.60770000  1.0 -0.6201600899
O  O83  1  0.88110000  0.18900000  0.89230000  1.0 -0.6201600899
O  O84  1  0.81100000  0.69210000  0.89230000  1.0 -0.6201600899
