# DDEC6 charges by PACMAN v1.1 (https://github.com/mtap-research/PACMAN-charge/)
data_IROVAO_ASR_pacman
_symmetry_space_group_name_H-M   'P 1'
_cell_length_a   9.46170000
_cell_length_b   11.27720000
_cell_length_c   11.34890000
_cell_angle_alpha   79.25400000
_cell_angle_beta   65.72600000
_cell_angle_gamma   80.14300000
_symmetry_Int_Tables_number   1
_chemical_formula_structural   U5P8H8(CO6)4
_chemical_formula_sum   'U5 P8 H8 C4 O24'
_cell_volume   1078.46736185
_cell_formula_units_Z   1
loop_
 _symmetry_equiv_pos_site_id
 _symmetry_equiv_pos_as_xyz
  1  'x, y, z'
loop_
 _atom_site_type_symbol
 _atom_site_label
 _atom_site_symmetry_multiplicity
 _atom_site_fract_x
 _atom_site_fract_y
 _atom_site_fract_z
 _atom_site_occupancy
 _atom_site_charge
U  U1  1  0.69850000  0.44431000  0.04771000  1.0 2.420041271
U  U2  1  0.30150000  0.55569000  0.95229000  1.0 2.420041271
U  U3  1  0.27962000  0.96850000  0.02627000  1.0 2.0198187311
U  U4  1  0.72038000  0.03150000  0.97373000  1.0 2.0198187311
U  U5  1  0.00000000  0.50000000  0.50000000  1.0 2.0270699938
P  P1  1  0.63460000  0.61900000  0.75960000  1.0 1.437789448
P  P2  1  0.36540000  0.38100000  0.24040000  1.0 1.437789448
P  P3  1  0.55210000  0.75080000  0.98430000  1.0 1.3692106683
P  P4  1  0.44790000  0.24920000  0.01570000  1.0 1.3692106683
P  P5  1  0.01190000  0.20630000  0.95680000  1.0 1.4628821094
P  P6  1  0.98810000  0.79370000  0.04320000  1.0 1.4628821094
P  P7  1  0.08360000  0.46050000  0.78650000  1.0 1.4895128687
P  P8  1  0.91640000  0.53950000  0.21350000  1.0 1.4895128687
H  H1  1  0.78020000  0.74220000  0.79820000  1.0 0.2019429882
H  H2  1  0.21980000  0.25780000  0.20180000  1.0 0.2075864752
H  H3  1  0.64610000  0.82240000  0.76340000  1.0 0.1825582389
H  H4  1  0.35390000  0.17760000  0.23660000  1.0 0.1825582389
H  H5  1  0.22580000  0.27740000  0.78190000  1.0 0.2075864752
H  H6  1  0.77420000  0.72260000  0.21810000  1.0 0.2075864752
H  H7  1  0.09230000  0.27380000  0.73650000  1.0 0.1597954933
H  H8  1  0.90770000  0.72620000  0.26350000  1.0 0.1597954933
C  C1  1  0.67090000  0.74800000  0.81300000  1.0 -0.8021842758
C  C2  1  0.32910000  0.25200000  0.18700000  1.0 -0.8021842758
C  C3  1  0.11510000  0.29930000  0.80330000  1.0 -0.8390155554
C  C4  1  0.88490000  0.70070000  0.19670000  1.0 -0.8390155554
O  O1  1  0.38060000  0.73770000  0.00890000  1.0 -0.9116464774
O  O2  1  0.61940000  0.26230000  0.99110000  1.0 -0.9154194514
O  O3  1  0.62210000  0.65320000  0.06040000  1.0 -0.7724817316
O  O4  1  0.37790000  0.34680000  0.93960000  1.0 -0.7724817316
O  O5  1  0.20370000  0.50940000  0.81840000  1.0 -0.8194226544
O  O6  1  0.79630000  0.49060000  0.18160000  1.0 -0.8194226544
O  O7  1  0.54450000  0.88040000  0.01510000  1.0 -0.9754156987
O  O8  1  0.45550000  0.11960000  0.98490000  1.0 -0.9741514246
O  O9  1  0.91560000  0.49960000  0.87350000  1.0 -0.8695787013
O  O10  1  0.08440000  0.50040000  0.12650000  1.0 -0.8695787013
O  O11  1  0.61000000  0.51670000  0.87550000  1.0 -0.929984055
O  O12  1  0.39000000  0.48330000  0.12450000  1.0 -0.929984055
O  O13  1  0.88010000  0.28620000  0.04590000  1.0 -0.8308689634
O  O14  1  0.11990000  0.71380000  0.95410000  1.0 -0.8308689634
O  O15  1  0.12560000  0.14570000  0.02030000  1.0 -0.8308689634
O  O16  1  0.87440000  0.85430000  0.97970000  1.0 -0.8308689634
O  O17  1  0.47490000  0.64570000  0.74940000  1.0 -0.8106739442
O  O18  1  0.52510000  0.35430000  0.25060000  1.0 -0.8106739442
O  O19  1  0.94610000  0.11370000  0.91840000  1.0 -0.8695787013
O  O20  1  0.05390000  0.88630000  0.08160000  1.0 -0.8695787013
O  O21  1  0.76690000  0.59400000  0.63320000  1.0 -0.8390155554
O  O22  1  0.23310000  0.40600000  0.36680000  1.0 -0.8308689634
O  O23  1  0.11110000  0.50430000  0.64510000  1.0 -0.8695787013
O  O24  1  0.88890000  0.49570000  0.35490000  1.0 -0.8695787013
