# DDEC6 charges by PACMAN v1.1 (https://github.com/mtap-research/PACMAN-charge/)
data_IRUVUO_ASR_pacman
_symmetry_space_group_name_H-M   'P 1'
_cell_length_a   37.27000000
_cell_length_b   10.73300000
_cell_length_c   38.17100000
_cell_angle_alpha   90.00000000
_cell_angle_beta   90.00000000
_cell_angle_gamma   90.00000000
_symmetry_Int_Tables_number   1
_chemical_formula_structural   ZnH28C37(NO5)2
_chemical_formula_sum   'Zn16 H448 C592 N32 O160'
_cell_volume   15269.12181361
_cell_formula_units_Z   16
loop_
 _symmetry_equiv_pos_site_id
 _symmetry_equiv_pos_as_xyz
  1  'x, y, z'
loop_
 _atom_site_type_symbol
 _atom_site_label
 _atom_site_symmetry_multiplicity
 _atom_site_fract_x
 _atom_site_fract_y
 _atom_site_fract_z
 _atom_site_occupancy
 _atom_site_charge
Zn  Zn1  1  0.26983000  0.41304000  0.18688000  1.0 0.8987690309
Zn  Zn2  1  0.73017000  0.58696000  0.81312000  1.0 0.8987690309
Zn  Zn3  1  0.23017000  0.58696000  0.68688000  1.0 0.8987690309
Zn  Zn4  1  0.76983000  0.41304000  0.31312000  1.0 0.8987690309
Zn  Zn5  1  0.73017000  0.91304000  0.31312000  1.0 0.8987690309
Zn  Zn6  1  0.26983000  0.08696000  0.68688000  1.0 0.8987690309
Zn  Zn7  1  0.76983000  0.08696000  0.81312000  1.0 0.8987690309
Zn  Zn8  1  0.23017000  0.91304000  0.18688000  1.0 0.8987690309
Zn  Zn9  1  0.76594000  0.03100000  0.52370000  1.0 0.9518215085
Zn  Zn10  1  0.23406000  0.96900000  0.47630000  1.0 0.9518215085
Zn  Zn11  1  0.73406000  0.96900000  0.02370000  1.0 0.9518215085
Zn  Zn12  1  0.26594000  0.03100000  0.97630000  1.0 0.9518215085
Zn  Zn13  1  0.23406000  0.53100000  0.97630000  1.0 0.9518215085
Zn  Zn14  1  0.76594000  0.46900000  0.02370000  1.0 0.9518215085
Zn  Zn15  1  0.26594000  0.46900000  0.47630000  1.0 0.9518215085
Zn  Zn16  1  0.73406000  0.53100000  0.52370000  1.0 0.9518215085
H  H1  1  0.45530000  0.64980000  0.31420000  1.0 0.2691656773
H  H2  1  0.54470000  0.35020000  0.68580000  1.0 0.2691656773
H  H3  1  0.04470000  0.35020000  0.81420000  1.0 0.2691656773
H  H4  1  0.95530000  0.64980000  0.18580000  1.0 0.2691656773
H  H5  1  0.54470000  0.14980000  0.18580000  1.0 0.2691656773
H  H6  1  0.45530000  0.85020000  0.81420000  1.0 0.2691656773
H  H7  1  0.95530000  0.85020000  0.68580000  1.0 0.2691656773
H  H8  1  0.04470000  0.14980000  0.31420000  1.0 0.2691656773
H  H9  1  0.45300000  0.09020000  0.44810000  1.0 0.3068300883
H  H10  1  0.54700000  0.90980000  0.55190000  1.0 0.3068300883
H  H11  1  0.04700000  0.90980000  0.94810000  1.0 0.3068300883
H  H12  1  0.95300000  0.09020000  0.05190000  1.0 0.3068300883
H  H13  1  0.54700000  0.59020000  0.05190000  1.0 0.3068300883
H  H14  1  0.45300000  0.40980000  0.94810000  1.0 0.3068300883
H  H15  1  0.95300000  0.40980000  0.55190000  1.0 0.3068300883
H  H16  1  0.04700000  0.59020000  0.44810000  1.0 0.3068300883
H  H17  1  0.42520000  0.63640000  0.28080000  1.0 0.1087403025
H  H18  1  0.57480000  0.36360000  0.71920000  1.0 0.1087403025
H  H19  1  0.07480000  0.36360000  0.78080000  1.0 0.1087403025
H  H20  1  0.92520000  0.63640000  0.21920000  1.0 0.1087403025
H  H21  1  0.57480000  0.13640000  0.21920000  1.0 0.1087403025
H  H22  1  0.42520000  0.86360000  0.78080000  1.0 0.1087403025
H  H23  1  0.92520000  0.86360000  0.71920000  1.0 0.1087403025
H  H24  1  0.07480000  0.13640000  0.28080000  1.0 0.1087403025
H  H25  1  0.36340000  0.63800000  0.26960000  1.0 0.1187274453
H  H26  1  0.63660000  0.36200000  0.73040000  1.0 0.1187274453
H  H27  1  0.13660000  0.36200000  0.76960000  1.0 0.1187274453
H  H28  1  0.86340000  0.63800000  0.23040000  1.0 0.1187274453
H  H29  1  0.63660000  0.13800000  0.23040000  1.0 0.1187274453
H  H30  1  0.36340000  0.86200000  0.76960000  1.0 0.1187274453
H  H31  1  0.86340000  0.86200000  0.73040000  1.0 0.1187274453
H  H32  1  0.13660000  0.13800000  0.26960000  1.0 0.1187274453
H  H33  1  0.37140000  0.29890000  0.22360000  1.0 0.1087403025
H  H34  1  0.62860000  0.70110000  0.77640000  1.0 0.1087403025
H  H35  1  0.12860000  0.70110000  0.72360000  1.0 0.1087403025
H  H36  1  0.87140000  0.29890000  0.27640000  1.0 0.1087403025
H  H37  1  0.62860000  0.79890000  0.27640000  1.0 0.1087403025
H  H38  1  0.37140000  0.20110000  0.72360000  1.0 0.1087403025
H  H39  1  0.87140000  0.20110000  0.77640000  1.0 0.1087403025
H  H40  1  0.12860000  0.79890000  0.22360000  1.0 0.1087403025
H  H41  1  0.43310000  0.29730000  0.23470000  1.0 0.1087403025
H  H42  1  0.56690000  0.70270000  0.76530000  1.0 0.1087403025
H  H43  1  0.06690000  0.70270000  0.73470000  1.0 0.1087403025
H  H44  1  0.93310000  0.29730000  0.26530000  1.0 0.1087403025
H  H45  1  0.56690000  0.79730000  0.26530000  1.0 0.1087403025
H  H46  1  0.43310000  0.20270000  0.73470000  1.0 0.1087403025
H  H47  1  0.93310000  0.20270000  0.76530000  1.0 0.1087403025
H  H48  1  0.06690000  0.79730000  0.23470000  1.0 0.1087403025
H  H49  1  0.54870000  0.33820000  0.23410000  1.0 0.1087403025
H  H50  1  0.45130000  0.66180000  0.76590000  1.0 0.1087403025
H  H51  1  0.95130000  0.66180000  0.73410000  1.0 0.1087403025
H  H52  1  0.04870000  0.33820000  0.26590000  1.0 0.1087403025
H  H53  1  0.45130000  0.83820000  0.26590000  1.0 0.1087403025
H  H54  1  0.54870000  0.16180000  0.73410000  1.0 0.1087403025
H  H55  1  0.04870000  0.16180000  0.76590000  1.0 0.1087403025
H  H56  1  0.95130000  0.83820000  0.23410000  1.0 0.1087403025
H  H57  1  0.48590000  0.34260000  0.22720000  1.0 0.1087403025
H  H58  1  0.51410000  0.65740000  0.77280000  1.0 0.1087403025
H  H59  1  0.01410000  0.65740000  0.72720000  1.0 0.1087403025
H  H60  1  0.98590000  0.34260000  0.27280000  1.0 0.1087403025
H  H61  1  0.51410000  0.84260000  0.27280000  1.0 0.1087403025
H  H62  1  0.48590000  0.15740000  0.72720000  1.0 0.1087403025
H  H63  1  0.98590000  0.15740000  0.77280000  1.0 0.1087403025
H  H64  1  0.01410000  0.84260000  0.22720000  1.0 0.1087403025
H  H65  1  0.59840000  0.64580000  0.28580000  1.0 0.1087403025
H  H66  1  0.40160000  0.35420000  0.71420000  1.0 0.1087403025
H  H67  1  0.90160000  0.35420000  0.78580000  1.0 0.1087403025
H  H68  1  0.09840000  0.64580000  0.21420000  1.0 0.1087403025
H  H69  1  0.40160000  0.14580000  0.21420000  1.0 0.1087403025
H  H70  1  0.59840000  0.85420000  0.78580000  1.0 0.1087403025
H  H71  1  0.09840000  0.85420000  0.71420000  1.0 0.1087403025
H  H72  1  0.90160000  0.14580000  0.28580000  1.0 0.1087403025
H  H73  1  0.66100000  0.63750000  0.29170000  1.0 0.1277657274
H  H74  1  0.33900000  0.36250000  0.70830000  1.0 0.1277657274
H  H75  1  0.83900000  0.36250000  0.79170000  1.0 0.1277657274
H  H76  1  0.16100000  0.63750000  0.20830000  1.0 0.1277657274
H  H77  1  0.33900000  0.13750000  0.20830000  1.0 0.1277657274
H  H78  1  0.66100000  0.86250000  0.79170000  1.0 0.1277657274
H  H79  1  0.16100000  0.86250000  0.70830000  1.0 0.1277657274
H  H80  1  0.83900000  0.13750000  0.29170000  1.0 0.1277657274
H  H81  1  0.66120000  0.26730000  0.27990000  1.0 0.1277657274
H  H82  1  0.33880000  0.73270000  0.72010000  1.0 0.1277657274
H  H83  1  0.83880000  0.73270000  0.77990000  1.0 0.1277657274
H  H84  1  0.16120000  0.26730000  0.22010000  1.0 0.1277657274
H  H85  1  0.33880000  0.76730000  0.22010000  1.0 0.1277657274
H  H86  1  0.66120000  0.23270000  0.77990000  1.0 0.1277657274
H  H87  1  0.16120000  0.23270000  0.72010000  1.0 0.1277657274
H  H88  1  0.83880000  0.76730000  0.27990000  1.0 0.1277657274
H  H89  1  0.59750000  0.27030000  0.26930000  1.0 0.1087403025
H  H90  1  0.40250000  0.72970000  0.73070000  1.0 0.1087403025
H  H91  1  0.90250000  0.72970000  0.76930000  1.0 0.1087403025
H  H92  1  0.09750000  0.27030000  0.23070000  1.0 0.1087403025
H  H93  1  0.40250000  0.77030000  0.23070000  1.0 0.1087403025
H  H94  1  0.59750000  0.22970000  0.76930000  1.0 0.1087403025
H  H95  1  0.09750000  0.22970000  0.73070000  1.0 0.1087403025
H  H96  1  0.90250000  0.77030000  0.26930000  1.0 0.1087403025
H  H97  1  0.45830000  0.84090000  0.34540000  1.0 0.1187274453
H  H98  1  0.54170000  0.15910000  0.65460000  1.0 0.1187274453
H  H99  1  0.04170000  0.15910000  0.84540000  1.0 0.1187274453
H  H100  1  0.95830000  0.84090000  0.15460000  1.0 0.1187274453
H  H101  1  0.54170000  0.34090000  0.15460000  1.0 0.1187274453
H  H102  1  0.45830000  0.65910000  0.84540000  1.0 0.1187274453
H  H103  1  0.95830000  0.65910000  0.65460000  1.0 0.1187274453
H  H104  1  0.04170000  0.34090000  0.34540000  1.0 0.1187274453
H  H105  1  0.45390000  0.98330000  0.39060000  1.0 0.1187274453
H  H106  1  0.54610000  0.01670000  0.60940000  1.0 0.1187274453
H  H107  1  0.04610000  0.01670000  0.89060000  1.0 0.1187274453
H  H108  1  0.95390000  0.98330000  0.10940000  1.0 0.1187274453
H  H109  1  0.54610000  0.48330000  0.10940000  1.0 0.1187274453
H  H110  1  0.45390000  0.51670000  0.89060000  1.0 0.1187274453
H  H111  1  0.95390000  0.51670000  0.60940000  1.0 0.1187274453
H  H112  1  0.04610000  0.48330000  0.39060000  1.0 0.1187274453
H  H113  1  0.54450000  0.83670000  0.43240000  1.0 0.1187274453
H  H114  1  0.45550000  0.16330000  0.56760000  1.0 0.1187274453
H  H115  1  0.95550000  0.16330000  0.93240000  1.0 0.1187274453
H  H116  1  0.04450000  0.83670000  0.06760000  1.0 0.1187274453
H  H117  1  0.45550000  0.33670000  0.06760000  1.0 0.1187274453
H  H118  1  0.54450000  0.66330000  0.93240000  1.0 0.1187274453
H  H119  1  0.04450000  0.66330000  0.56760000  1.0 0.1187274453
H  H120  1  0.95550000  0.33670000  0.43240000  1.0 0.1187274453
H  H121  1  0.54620000  0.69050000  0.38730000  1.0 0.1277657274
H  H122  1  0.45380000  0.30950000  0.61270000  1.0 0.1277657274
H  H123  1  0.95380000  0.30950000  0.88730000  1.0 0.1277657274
H  H124  1  0.04620000  0.69050000  0.11270000  1.0 0.1277657274
H  H125  1  0.45380000  0.19050000  0.11270000  1.0 0.1277657274
H  H126  1  0.54620000  0.80950000  0.88730000  1.0 0.1277657274
H  H127  1  0.04620000  0.80950000  0.61270000  1.0 0.1277657274
H  H128  1  0.95380000  0.19050000  0.38730000  1.0 0.1277657274
H  H129  1  0.37320000  0.49880000  0.50570000  1.0 0.1277657274
H  H130  1  0.62680000  0.50120000  0.49430000  1.0 0.1277657274
H  H131  1  0.12680000  0.50120000  0.00570000  1.0 0.1277657274
H  H132  1  0.87320000  0.49880000  0.99430000  1.0 0.1277657274
H  H133  1  0.62680000  0.99880000  0.99430000  1.0 0.1277657274
H  H134  1  0.37320000  0.00120000  0.00570000  1.0 0.1277657274
H  H135  1  0.87320000  0.00120000  0.49430000  1.0 0.1277657274
H  H136  1  0.12680000  0.99880000  0.50570000  1.0 0.1277657274
H  H137  1  0.43380000  0.47640000  0.50160000  1.0 0.1187274453
H  H138  1  0.56620000  0.52360000  0.49840000  1.0 0.1187274453
H  H139  1  0.06620000  0.52360000  0.00160000  1.0 0.1187274453
H  H140  1  0.93380000  0.47640000  0.99840000  1.0 0.1187274453
H  H141  1  0.56620000  0.97640000  0.99840000  1.0 0.1187274453
H  H142  1  0.43380000  0.02360000  0.00160000  1.0 0.1187274453
H  H143  1  0.93380000  0.02360000  0.49840000  1.0 0.1187274453
H  H144  1  0.06620000  0.97640000  0.50160000  1.0 0.1187274453
H  H145  1  0.42040000  0.10450000  0.50400000  1.0 0.1187274453
H  H146  1  0.57960000  0.89550000  0.49600000  1.0 0.1187274453
H  H147  1  0.07960000  0.89550000  0.00400000  1.0 0.1187274453
H  H148  1  0.92040000  0.10450000  0.99600000  1.0 0.1187274453
H  H149  1  0.57960000  0.60450000  0.99600000  1.0 0.1187274453
H  H150  1  0.42040000  0.39550000  0.00400000  1.0 0.1187274453
H  H151  1  0.92040000  0.39550000  0.49600000  1.0 0.1187274453
H  H152  1  0.07960000  0.60450000  0.50400000  1.0 0.1187274453
H  H153  1  0.36000000  0.13170000  0.50610000  1.0 0.1277657274
H  H154  1  0.64000000  0.86830000  0.49390000  1.0 0.1277657274
H  H155  1  0.14000000  0.86830000  0.00610000  1.0 0.1277657274
H  H156  1  0.86000000  0.13170000  0.99390000  1.0 0.1187274453
H  H157  1  0.64000000  0.63170000  0.99390000  1.0 0.1277657274
H  H158  1  0.36000000  0.36830000  0.00610000  1.0 0.1277657274
H  H159  1  0.86000000  0.36830000  0.49390000  1.0 0.1277657274
H  H160  1  0.14000000  0.63170000  0.50610000  1.0 0.1277657274
H  H161  1  0.48890000  0.39980000  0.53590000  1.0 0.1187274453
H  H162  1  0.51110000  0.60020000  0.46410000  1.0 0.1187274453
H  H163  1  0.01110000  0.60020000  0.03590000  1.0 0.1087403025
H  H164  1  0.98890000  0.39980000  0.96410000  1.0 0.1187274453
H  H165  1  0.51110000  0.89980000  0.96410000  1.0 0.1187274453
H  H166  1  0.48890000  0.10020000  0.03590000  1.0 0.1087403025
H  H167  1  0.98890000  0.10020000  0.46410000  1.0 0.1187274453
H  H168  1  0.01110000  0.89980000  0.53590000  1.0 0.1187274453
H  H169  1  0.54880000  0.35720000  0.53700000  1.0 0.1187274453
H  H170  1  0.45120000  0.64280000  0.46300000  1.0 0.1187274453
H  H171  1  0.95120000  0.64280000  0.03700000  1.0 0.1187274453
H  H172  1  0.04880000  0.35720000  0.96300000  1.0 0.1187274453
H  H173  1  0.45120000  0.85720000  0.96300000  1.0 0.1187274453
H  H174  1  0.54880000  0.14280000  0.03700000  1.0 0.1187274453
H  H175  1  0.04880000  0.14280000  0.46300000  1.0 0.1187274453
H  H176  1  0.95120000  0.85720000  0.53700000  1.0 0.1187274453
H  H177  1  0.59740000  0.22050000  0.55420000  1.0 0.1087403025
H  H178  1  0.40260000  0.77950000  0.44580000  1.0 0.1087403025
H  H179  1  0.90260000  0.77950000  0.05420000  1.0 0.1087403025
H  H180  1  0.09740000  0.22050000  0.94580000  1.0 0.1087403025
H  H181  1  0.40260000  0.72050000  0.94580000  1.0 0.1087403025
H  H182  1  0.59740000  0.27950000  0.05420000  1.0 0.1087403025
H  H183  1  0.09740000  0.27950000  0.44580000  1.0 0.1087403025
H  H184  1  0.90260000  0.72050000  0.55420000  1.0 0.1087403025
H  H185  1  0.66150000  0.18680000  0.55110000  1.0 0.1187274453
H  H186  1  0.33850000  0.81320000  0.44890000  1.0 0.1187274453
H  H187  1  0.83850000  0.81320000  0.05110000  1.0 0.1187274453
H  H188  1  0.16150000  0.18680000  0.94890000  1.0 0.1187274453
H  H189  1  0.33850000  0.68680000  0.94890000  1.0 0.1187274453
H  H190  1  0.66150000  0.31320000  0.05110000  1.0 0.1187274453
H  H191  1  0.16150000  0.31320000  0.44890000  1.0 0.1187274453
H  H192  1  0.83850000  0.68680000  0.55110000  1.0 0.1187274453
H  H193  1  0.65340000  0.09760000  0.44980000  1.0 0.1187274453
H  H194  1  0.34660000  0.90240000  0.55020000  1.0 0.1187274453
H  H195  1  0.84660000  0.90240000  0.94980000  1.0 0.1187274453
H  H196  1  0.15340000  0.09760000  0.05020000  1.0 0.1187274453
H  H197  1  0.34660000  0.59760000  0.05020000  1.0 0.1187274453
H  H198  1  0.65340000  0.40240000  0.94980000  1.0 0.1187274453
H  H199  1  0.15340000  0.40240000  0.55020000  1.0 0.1187274453
H  H200  1  0.84660000  0.59760000  0.44980000  1.0 0.1187274453
H  H201  1  0.59340000  0.15360000  0.44940000  1.0 0.1187274453
H  H202  1  0.40660000  0.84640000  0.55060000  1.0 0.1087403025
H  H203  1  0.90660000  0.84640000  0.94940000  1.0 0.1187274453
H  H204  1  0.09340000  0.15360000  0.05060000  1.0 0.1087403025
H  H205  1  0.40660000  0.65360000  0.05060000  1.0 0.1087403025
H  H206  1  0.59340000  0.34640000  0.94940000  1.0 0.1087403025
H  H207  1  0.09340000  0.34640000  0.55060000  1.0 0.1087403025
H  H208  1  0.90660000  0.65360000  0.44940000  1.0 0.1187274453
H  H209  1  0.36660000  0.71290000  0.15630000  1.0 0.1400302123
H  H210  1  0.63340000  0.28710000  0.84370000  1.0 0.1400302123
H  H211  1  0.13340000  0.28710000  0.65630000  1.0 0.1400302123
H  H212  1  0.86660000  0.71290000  0.34370000  1.0 0.1400302123
H  H213  1  0.63340000  0.21290000  0.34370000  1.0 0.1400302123
H  H214  1  0.36660000  0.78710000  0.65630000  1.0 0.1400302123
H  H215  1  0.86660000  0.78710000  0.84370000  1.0 0.1400302123
H  H216  1  0.13340000  0.21290000  0.15630000  1.0 0.1400302123
H  H217  1  0.43360000  0.41830000  0.14390000  1.0 0.1400302123
H  H218  1  0.56640000  0.58170000  0.85610000  1.0 0.1400302123
H  H219  1  0.06640000  0.58170000  0.64390000  1.0 0.1400302123
H  H220  1  0.93360000  0.41830000  0.35610000  1.0 0.1400302123
H  H221  1  0.56640000  0.91830000  0.35610000  1.0 0.1400302123
H  H222  1  0.43360000  0.08170000  0.64390000  1.0 0.1400302123
H  H223  1  0.93360000  0.08170000  0.85610000  1.0 0.1400302123
H  H224  1  0.06640000  0.91830000  0.14390000  1.0 0.1400302123
H  H225  1  0.32720000  0.37140000  0.12940000  1.0 0.1400302123
H  H226  1  0.67280000  0.62860000  0.87060000  1.0 0.1400302123
H  H227  1  0.17280000  0.62860000  0.62940000  1.0 0.1400302123
H  H228  1  0.82720000  0.37140000  0.37060000  1.0 0.1400302123
H  H229  1  0.67280000  0.87140000  0.37060000  1.0 0.1400302123
H  H230  1  0.32720000  0.12860000  0.62940000  1.0 0.1400302123
H  H231  1  0.82720000  0.12860000  0.87060000  1.0 0.1400302123
H  H232  1  0.17280000  0.87140000  0.12940000  1.0 0.1400302123
H  H233  1  0.47320000  0.59020000  0.13440000  1.0 0.1087403025
H  H234  1  0.52680000  0.40980000  0.86560000  1.0 0.1087403025
H  H235  1  0.02680000  0.40980000  0.63440000  1.0 0.1087403025
H  H236  1  0.97320000  0.59020000  0.36560000  1.0 0.1087403025
H  H237  1  0.52680000  0.09020000  0.36560000  1.0 0.1087403025
H  H238  1  0.47320000  0.90980000  0.63440000  1.0 0.1087403025
H  H239  1  0.97320000  0.90980000  0.86560000  1.0 0.1087403025
H  H240  1  0.02680000  0.09020000  0.13440000  1.0 0.1087403025
H  H241  1  0.46980000  0.53530000  0.17340000  1.0 0.1087403025
H  H242  1  0.53020000  0.46470000  0.82660000  1.0 0.1087403025
H  H243  1  0.03020000  0.46470000  0.67340000  1.0 0.1087403025
H  H244  1  0.96980000  0.53530000  0.32660000  1.0 0.1087403025
H  H245  1  0.53020000  0.03530000  0.32660000  1.0 0.1087403025
H  H246  1  0.46980000  0.96470000  0.67340000  1.0 0.1087403025
H  H247  1  0.96980000  0.96470000  0.82660000  1.0 0.1087403025
H  H248  1  0.03020000  0.03530000  0.17340000  1.0 0.1087403025
H  H249  1  0.48700000  0.78740000  0.16020000  1.0 0.1187274453
H  H250  1  0.51300000  0.21260000  0.83980000  1.0 0.1187274453
H  H251  1  0.01300000  0.21260000  0.66020000  1.0 0.1187274453
H  H252  1  0.98700000  0.78740000  0.33980000  1.0 0.1187274453
H  H253  1  0.51300000  0.28740000  0.33980000  1.0 0.1187274453
H  H254  1  0.48700000  0.71260000  0.66020000  1.0 0.1187274453
H  H255  1  0.98700000  0.71260000  0.83980000  1.0 0.1187274453
H  H256  1  0.01300000  0.28740000  0.16020000  1.0 0.1187274453
H  H257  1  0.48920000  0.71810000  0.19730000  1.0 0.099989046
H  H258  1  0.51080000  0.28190000  0.80270000  1.0 0.099989046
H  H259  1  0.01080000  0.28190000  0.69730000  1.0 0.099989046
H  H260  1  0.98920000  0.71810000  0.30270000  1.0 0.099989046
H  H261  1  0.51080000  0.21810000  0.30270000  1.0 0.099989046
H  H262  1  0.48920000  0.78190000  0.69730000  1.0 0.099989046
H  H263  1  0.98920000  0.78190000  0.80270000  1.0 0.099989046
H  H264  1  0.01080000  0.21810000  0.19730000  1.0 0.099989046
H  H265  1  0.53960000  0.61830000  0.20740000  1.0 0.1187274453
H  H266  1  0.46040000  0.38170000  0.79260000  1.0 0.1187274453
H  H267  1  0.96040000  0.38170000  0.70740000  1.0 0.1187274453
H  H268  1  0.03960000  0.61830000  0.29260000  1.0 0.1187274453
H  H269  1  0.46040000  0.11830000  0.29260000  1.0 0.1187274453
H  H270  1  0.53960000  0.88170000  0.70740000  1.0 0.1187274453
H  H271  1  0.03960000  0.88170000  0.79260000  1.0 0.1187274453
H  H272  1  0.96040000  0.11830000  0.20740000  1.0 0.1187274453
H  H273  1  0.54840000  0.75990000  0.20020000  1.0 0.1187274453
H  H274  1  0.45160000  0.24010000  0.79980000  1.0 0.1187274453
H  H275  1  0.95160000  0.24010000  0.70020000  1.0 0.1187274453
H  H276  1  0.04840000  0.75990000  0.29980000  1.0 0.1187274453
H  H277  1  0.45160000  0.25990000  0.29980000  1.0 0.1187274453
H  H278  1  0.54840000  0.74010000  0.70020000  1.0 0.1187274453
H  H279  1  0.04840000  0.74010000  0.79980000  1.0 0.1187274453
H  H280  1  0.95160000  0.25990000  0.20020000  1.0 0.1187274453
H  H281  1  0.59230000  0.63320000  0.21400000  1.0 0.1087403025
H  H282  1  0.40770000  0.36680000  0.78600000  1.0 0.1087403025
H  H283  1  0.90770000  0.36680000  0.71400000  1.0 0.1087403025
H  H284  1  0.09230000  0.63320000  0.28600000  1.0 0.1087403025
H  H285  1  0.40770000  0.13320000  0.28600000  1.0 0.1087403025
H  H286  1  0.59230000  0.86680000  0.71400000  1.0 0.1087403025
H  H287  1  0.09230000  0.86680000  0.78600000  1.0 0.1087403025
H  H288  1  0.90770000  0.13320000  0.21400000  1.0 0.1087403025
H  H289  1  0.59780000  0.72450000  0.18150000  1.0 0.1187274453
H  H290  1  0.40220000  0.27550000  0.81850000  1.0 0.1187274453
H  H291  1  0.90220000  0.27550000  0.68150000  1.0 0.1187274453
H  H292  1  0.09780000  0.72450000  0.31850000  1.0 0.1187274453
H  H293  1  0.40220000  0.22450000  0.31850000  1.0 0.1187274453
H  H294  1  0.59780000  0.77550000  0.68150000  1.0 0.1187274453
H  H295  1  0.09780000  0.77550000  0.81850000  1.0 0.1187274453
H  H296  1  0.90220000  0.22450000  0.18150000  1.0 0.1187274453
H  H297  1  0.61630000  0.47990000  0.20610000  1.0 0.1187274453
H  H298  1  0.38370000  0.52010000  0.79390000  1.0 0.1187274453
H  H299  1  0.88370000  0.52010000  0.70610000  1.0 0.1187274453
H  H300  1  0.11630000  0.47990000  0.29390000  1.0 0.1187274453
H  H301  1  0.38370000  0.97990000  0.29390000  1.0 0.1187274453
H  H302  1  0.61630000  0.02010000  0.70610000  1.0 0.1187274453
H  H303  1  0.11630000  0.02010000  0.79390000  1.0 0.1187274453
H  H304  1  0.88370000  0.97990000  0.20610000  1.0 0.1187274453
H  H305  1  0.64060000  0.56900000  0.18290000  1.0 0.1187274453
H  H306  1  0.35940000  0.43100000  0.81710000  1.0 0.1187274453
H  H307  1  0.85940000  0.43100000  0.68290000  1.0 0.1187274453
H  H308  1  0.14060000  0.56900000  0.31710000  1.0 0.1187274453
H  H309  1  0.35940000  0.06900000  0.31710000  1.0 0.1187274453
H  H310  1  0.64060000  0.93100000  0.68290000  1.0 0.1187274453
H  H311  1  0.14060000  0.93100000  0.81710000  1.0 0.1187274453
H  H312  1  0.85940000  0.06900000  0.18290000  1.0 0.1187274453
H  H313  1  0.65690000  0.37710000  0.18370000  1.0 0.1277657274
H  H314  1  0.34310000  0.62290000  0.81630000  1.0 0.1277657274
H  H315  1  0.84310000  0.62290000  0.68370000  1.0 0.1277657274
H  H316  1  0.15690000  0.37710000  0.31630000  1.0 0.1277657274
H  H317  1  0.34310000  0.87710000  0.31630000  1.0 0.1277657274
H  H318  1  0.65690000  0.12290000  0.68370000  1.0 0.1277657274
H  H319  1  0.15690000  0.12290000  0.81630000  1.0 0.1277657274
H  H320  1  0.84310000  0.87710000  0.18370000  1.0 0.1277657274
H  H321  1  0.64920000  0.43150000  0.14550000  1.0 0.1187274453
H  H322  1  0.35080000  0.56850000  0.85450000  1.0 0.1187274453
H  H323  1  0.85080000  0.56850000  0.64550000  1.0 0.1187274453
H  H324  1  0.14920000  0.43150000  0.35450000  1.0 0.1187274453
H  H325  1  0.35080000  0.93150000  0.35450000  1.0 0.1187274453
H  H326  1  0.64920000  0.06850000  0.64550000  1.0 0.1187274453
H  H327  1  0.14920000  0.06850000  0.85450000  1.0 0.1187274453
H  H328  1  0.85080000  0.93150000  0.14550000  1.0 0.1187274453
H  H329  1  0.67440000  0.24850000  0.12700000  1.0 0.1400302123
H  H330  1  0.32560000  0.75150000  0.87300000  1.0 0.1400302123
H  H331  1  0.82560000  0.75150000  0.62700000  1.0 0.1400302123
H  H332  1  0.17440000  0.24850000  0.37300000  1.0 0.1400302123
H  H333  1  0.32560000  0.74850000  0.37300000  1.0 0.1400302123
H  H334  1  0.67440000  0.25150000  0.62700000  1.0 0.1400302123
H  H335  1  0.17440000  0.25150000  0.87300000  1.0 0.1400302123
H  H336  1  0.82560000  0.74850000  0.12700000  1.0 0.1400302123
H  H337  1  0.63850000  0.93860000  0.07490000  1.0 0.1482852126
H  H338  1  0.36150000  0.06140000  0.92510000  1.0 0.1482852126
H  H339  1  0.86150000  0.06140000  0.57490000  1.0 0.1482852126
H  H340  1  0.13850000  0.93860000  0.42510000  1.0 0.1482852126
H  H341  1  0.36150000  0.43860000  0.42510000  1.0 0.1482852126
H  H342  1  0.63850000  0.56140000  0.57490000  1.0 0.1482852126
H  H343  1  0.13850000  0.56140000  0.92510000  1.0 0.1482852126
H  H344  1  0.86150000  0.43860000  0.07490000  1.0 0.1482852126
H  H345  1  0.57380000  0.13180000  0.14070000  1.0 0.1187274453
H  H346  1  0.42620000  0.86820000  0.85930000  1.0 0.1187274453
H  H347  1  0.92620000  0.86820000  0.64070000  1.0 0.1187274453
H  H348  1  0.07380000  0.13180000  0.35930000  1.0 0.1187274453
H  H349  1  0.42620000  0.63180000  0.35930000  1.0 0.1187274453
H  H350  1  0.57380000  0.36820000  0.64070000  1.0 0.1187274453
H  H351  1  0.07380000  0.36820000  0.85930000  1.0 0.1187274453
H  H352  1  0.92620000  0.63180000  0.14070000  1.0 0.1187274453
H  H353  1  0.53550000  0.06840000  0.10150000  1.0 0.099989046
H  H354  1  0.46450000  0.93160000  0.89850000  1.0 0.099989046
H  H355  1  0.96450000  0.93160000  0.60150000  1.0 0.099989046
H  H356  1  0.03550000  0.06840000  0.39850000  1.0 0.099989046
H  H357  1  0.46450000  0.56840000  0.39850000  1.0 0.099989046
H  H358  1  0.53550000  0.43160000  0.60150000  1.0 0.099989046
H  H359  1  0.03550000  0.43160000  0.89850000  1.0 0.099989046
H  H360  1  0.96450000  0.56840000  0.10150000  1.0 0.099989046
H  H361  1  0.53920000  0.96820000  0.13250000  1.0 0.099989046
H  H362  1  0.46080000  0.03180000  0.86750000  1.0 0.099989046
H  H363  1  0.96080000  0.03180000  0.63250000  1.0 0.099989046
H  H364  1  0.03920000  0.96820000  0.36750000  1.0 0.099989046
H  H365  1  0.46080000  0.46820000  0.36750000  1.0 0.099989046
H  H366  1  0.53920000  0.53180000  0.63250000  1.0 0.099989046
H  H367  1  0.03920000  0.53180000  0.86750000  1.0 0.099989046
H  H368  1  0.96080000  0.46820000  0.13250000  1.0 0.099989046
H  H369  1  0.51320000  0.91500000  0.06380000  1.0 0.099989046
H  H370  1  0.48680000  0.08500000  0.93620000  1.0 0.099989046
H  H371  1  0.98680000  0.08500000  0.56380000  1.0 0.099989046
H  H372  1  0.01320000  0.91500000  0.43620000  1.0 0.099989046
H  H373  1  0.48680000  0.41500000  0.43620000  1.0 0.099989046
H  H374  1  0.51320000  0.58500000  0.56380000  1.0 0.099989046
H  H375  1  0.01320000  0.58500000  0.93620000  1.0 0.099989046
H  H376  1  0.98680000  0.41500000  0.06380000  1.0 0.099989046
H  H377  1  0.51890000  0.81040000  0.09350000  1.0 0.099989046
H  H378  1  0.48110000  0.18960000  0.90650000  1.0 0.099989046
H  H379  1  0.98110000  0.18960000  0.59350000  1.0 0.099989046
H  H380  1  0.01890000  0.81040000  0.40650000  1.0 0.099989046
H  H381  1  0.48110000  0.31040000  0.40650000  1.0 0.099989046
H  H382  1  0.51890000  0.68960000  0.59350000  1.0 0.099989046
H  H383  1  0.01890000  0.68960000  0.90650000  1.0 0.099989046
H  H384  1  0.98110000  0.31040000  0.09350000  1.0 0.099989046
H  H385  1  0.45550000  0.78500000  0.08480000  1.0 0.090759743
H  H386  1  0.54450000  0.21500000  0.91520000  1.0 0.090759743
H  H387  1  0.04450000  0.21500000  0.58480000  1.0 0.090759743
H  H388  1  0.95550000  0.78500000  0.41520000  1.0 0.090759743
H  H389  1  0.54450000  0.28500000  0.41520000  1.0 0.090759743
H  H390  1  0.45550000  0.71500000  0.58480000  1.0 0.090759743
H  H391  1  0.95550000  0.71500000  0.91520000  1.0 0.090759743
H  H392  1  0.04450000  0.28500000  0.08480000  1.0 0.090759743
H  H393  1  0.44720000  0.91290000  0.06440000  1.0 0.099989046
H  H394  1  0.55280000  0.08710000  0.93560000  1.0 0.099989046
H  H395  1  0.05280000  0.08710000  0.56440000  1.0 0.099989046
H  H396  1  0.94720000  0.91290000  0.43560000  1.0 0.099989046
H  H397  1  0.55280000  0.41290000  0.43560000  1.0 0.099989046
H  H398  1  0.44720000  0.58710000  0.56440000  1.0 0.099989046
H  H399  1  0.94720000  0.58710000  0.93560000  1.0 0.099989046
H  H400  1  0.05280000  0.41290000  0.06440000  1.0 0.099989046
H  H401  1  0.39660000  0.86160000  0.09950000  1.0 0.099989046
H  H402  1  0.60340000  0.13840000  0.90050000  1.0 0.099989046
H  H403  1  0.10340000  0.13840000  0.59950000  1.0 0.099989046
H  H404  1  0.89660000  0.86160000  0.40050000  1.0 0.099989046
H  H405  1  0.60340000  0.36160000  0.40050000  1.0 0.099989046
H  H406  1  0.39660000  0.63840000  0.59950000  1.0 0.099989046
H  H407  1  0.89660000  0.63840000  0.90050000  1.0 0.099989046
H  H408  1  0.10340000  0.36160000  0.09950000  1.0 0.099989046
H  H409  1  0.42120000  0.84810000  0.13330000  1.0 0.1087403025
H  H410  1  0.57880000  0.15190000  0.86670000  1.0 0.1087403025
H  H411  1  0.07880000  0.15190000  0.63330000  1.0 0.1087403025
H  H412  1  0.92120000  0.84810000  0.36670000  1.0 0.1087403025
H  H413  1  0.57880000  0.34810000  0.36670000  1.0 0.1087403025
H  H414  1  0.42120000  0.65190000  0.63330000  1.0 0.1087403025
H  H415  1  0.92120000  0.65190000  0.86670000  1.0 0.1087403025
H  H416  1  0.07880000  0.34810000  0.13330000  1.0 0.1087403025
H  H417  1  0.36870000  0.01980000  0.08840000  1.0 0.1087403025
H  H418  1  0.63130000  0.98020000  0.91160000  1.0 0.1087403025
H  H419  1  0.13130000  0.98020000  0.58840000  1.0 0.1087403025
H  H420  1  0.86870000  0.01980000  0.41160000  1.0 0.1087403025
H  H421  1  0.63130000  0.51980000  0.41160000  1.0 0.1087403025
H  H422  1  0.36870000  0.48020000  0.58840000  1.0 0.1087403025
H  H423  1  0.86870000  0.48020000  0.91160000  1.0 0.1087403025
H  H424  1  0.13130000  0.51980000  0.08840000  1.0 0.1087403025
H  H425  1  0.40050000  0.11360000  0.07880000  1.0 0.099989046
H  H426  1  0.59950000  0.88640000  0.92120000  1.0 0.099989046
H  H427  1  0.09950000  0.88640000  0.57880000  1.0 0.099989046
H  H428  1  0.90050000  0.11360000  0.42120000  1.0 0.099989046
H  H429  1  0.59950000  0.61360000  0.42120000  1.0 0.099989046
H  H430  1  0.40050000  0.38640000  0.57880000  1.0 0.099989046
H  H431  1  0.90050000  0.38640000  0.92120000  1.0 0.099989046
H  H432  1  0.09950000  0.61360000  0.07880000  1.0 0.099989046
H  H433  1  0.37160000  0.20530000  0.08770000  1.0 0.099989046
H  H434  1  0.62840000  0.79470000  0.91230000  1.0 0.099989046
H  H435  1  0.12840000  0.79470000  0.58770000  1.0 0.099989046
H  H436  1  0.87160000  0.20530000  0.41230000  1.0 0.099989046
H  H437  1  0.62840000  0.70530000  0.41230000  1.0 0.099989046
H  H438  1  0.37160000  0.29470000  0.58770000  1.0 0.099989046
H  H439  1  0.87160000  0.29470000  0.91230000  1.0 0.099989046
H  H440  1  0.12840000  0.70530000  0.08770000  1.0 0.099989046
H  H441  1  0.33990000  0.19930000  0.11650000  1.0 0.1087403025
H  H442  1  0.66010000  0.80070000  0.88350000  1.0 0.1087403025
H  H443  1  0.16010000  0.80070000  0.61650000  1.0 0.1087403025
H  H444  1  0.83990000  0.19930000  0.38350000  1.0 0.1087403025
H  H445  1  0.66010000  0.69930000  0.38350000  1.0 0.1087403025
H  H446  1  0.33990000  0.30070000  0.61650000  1.0 0.1087403025
H  H447  1  0.83990000  0.30070000  0.88350000  1.0 0.1087403025
H  H448  1  0.16010000  0.69930000  0.11650000  1.0 0.1087403025
C  C1  1  0.32190000  0.47600000  0.23150000  1.0 0.5301381374
C  C2  1  0.67810000  0.52400000  0.76850000  1.0 0.5301381374
C  C3  1  0.17810000  0.52400000  0.73150000  1.0 0.5301381374
C  C4  1  0.82190000  0.47600000  0.26850000  1.0 0.5301381374
C  C5  1  0.67810000  0.97600000  0.26850000  1.0 0.5301381374
C  C6  1  0.32190000  0.02400000  0.73150000  1.0 0.5301381374
C  C7  1  0.82190000  0.02400000  0.76850000  1.0 0.5301381374
C  C8  1  0.17810000  0.97600000  0.23150000  1.0 0.5301381374
C  C9  1  0.43490000  0.46670000  0.25880000  1.0 0.0801088778
C  C10  1  0.56510000  0.53330000  0.74120000  1.0 0.0801088778
C  C11  1  0.06510000  0.53330000  0.75880000  1.0 0.0801088778
C  C12  1  0.93490000  0.46670000  0.24120000  1.0 0.0801088778
C  C13  1  0.56510000  0.96670000  0.24120000  1.0 0.0801088778
C  C14  1  0.43490000  0.03330000  0.75880000  1.0 0.0801088778
C  C15  1  0.93490000  0.03330000  0.74120000  1.0 0.0801088778
C  C16  1  0.06510000  0.96670000  0.25880000  1.0 0.0801088778
C  C17  1  0.41420000  0.56790000  0.26910000  1.0 -0.1690107134
C  C18  1  0.58580000  0.43210000  0.73090000  1.0 -0.1690107134
C  C19  1  0.08580000  0.43210000  0.76910000  1.0 -0.1690107134
C  C20  1  0.91420000  0.56790000  0.23090000  1.0 -0.1690107134
C  C21  1  0.58580000  0.06790000  0.23090000  1.0 -0.1690107134
C  C22  1  0.41420000  0.93210000  0.76910000  1.0 -0.1690107134
C  C23  1  0.91420000  0.93210000  0.73090000  1.0 -0.1690107134
C  C24  1  0.08580000  0.06790000  0.26910000  1.0 -0.1690107134
C  C25  1  0.37760000  0.56880000  0.26250000  1.0 -0.0894830772
C  C26  1  0.62240000  0.43120000  0.73750000  1.0 -0.0894830772
C  C27  1  0.12240000  0.43120000  0.76250000  1.0 -0.0894830772
C  C28  1  0.87760000  0.56880000  0.23750000  1.0 -0.0894830772
C  C29  1  0.62240000  0.06880000  0.23750000  1.0 -0.0894830772
C  C30  1  0.37760000  0.93120000  0.76250000  1.0 -0.0894830772
C  C31  1  0.87760000  0.93120000  0.73750000  1.0 -0.0894830772
C  C32  1  0.12240000  0.06880000  0.26250000  1.0 -0.0894830772
C  C33  1  0.36160000  0.46860000  0.24550000  1.0 0.0116398488
C  C34  1  0.63840000  0.53140000  0.75450000  1.0 0.0116398488
C  C35  1  0.13840000  0.53140000  0.74550000  1.0 0.0116398488
C  C36  1  0.86160000  0.46860000  0.25450000  1.0 0.0116398488
C  C37  1  0.63840000  0.96860000  0.25450000  1.0 0.0116398488
C  C38  1  0.36160000  0.03140000  0.74550000  1.0 0.0116398488
C  C39  1  0.86160000  0.03140000  0.75450000  1.0 0.0116398488
C  C40  1  0.13840000  0.96860000  0.24550000  1.0 0.0116398488
C  C41  1  0.38230000  0.36740000  0.23520000  1.0 -0.0991172472
C  C42  1  0.61770000  0.63260000  0.76480000  1.0 -0.0991172472
C  C43  1  0.11770000  0.63260000  0.73520000  1.0 -0.0991172472
C  C44  1  0.88230000  0.36740000  0.26480000  1.0 -0.0991172472
C  C45  1  0.61770000  0.86740000  0.26480000  1.0 -0.0991172472
C  C46  1  0.38230000  0.13260000  0.73520000  1.0 -0.0991172472
C  C47  1  0.88230000  0.13260000  0.76480000  1.0 -0.0991172472
C  C48  1  0.11770000  0.86740000  0.23520000  1.0 -0.0991172472
C  C49  1  0.41900000  0.36650000  0.24180000  1.0 -0.1817965223
C  C50  1  0.58100000  0.63350000  0.75820000  1.0 -0.1817965223
C  C51  1  0.08100000  0.63350000  0.74180000  1.0 -0.1817965223
C  C52  1  0.91900000  0.36650000  0.25820000  1.0 -0.1817965223
C  C53  1  0.58100000  0.86650000  0.25820000  1.0 -0.1817965223
C  C54  1  0.41900000  0.13350000  0.74180000  1.0 -0.1817965223
C  C55  1  0.91900000  0.13350000  0.75820000  1.0 -0.1817965223
C  C56  1  0.08100000  0.86650000  0.24180000  1.0 -0.1817965223
C  C57  1  0.47530000  0.47110000  0.26320000  1.0 -0.0136551339
C  C58  1  0.52470000  0.52890000  0.73680000  1.0 -0.0136551339
C  C59  1  0.02470000  0.52890000  0.76320000  1.0 -0.0136551339
C  C60  1  0.97530000  0.47110000  0.23680000  1.0 -0.0136551339
C  C61  1  0.52470000  0.97110000  0.23680000  1.0 -0.0136551339
C  C62  1  0.47530000  0.02890000  0.76320000  1.0 -0.0136551339
C  C63  1  0.97530000  0.02890000  0.73680000  1.0 -0.0136551339
C  C64  1  0.02470000  0.97110000  0.26320000  1.0 -0.0136551339
C  C65  1  0.49230000  0.54410000  0.28860000  1.0 0.0394123903
C  C66  1  0.50770000  0.45590000  0.71140000  1.0 0.0394123903
C  C67  1  0.00770000  0.45590000  0.78860000  1.0 0.0394123903
C  C68  1  0.99230000  0.54410000  0.21140000  1.0 0.0394123903
C  C69  1  0.50770000  0.04410000  0.21140000  1.0 0.0394123903
C  C70  1  0.49230000  0.95590000  0.78860000  1.0 0.0394123903
C  C71  1  0.99230000  0.95590000  0.71140000  1.0 0.0394123903
C  C72  1  0.00770000  0.04410000  0.28860000  1.0 0.0394123903
C  C73  1  0.52890000  0.53550000  0.29450000  1.0 0.0801088778
C  C74  1  0.47110000  0.46450000  0.70550000  1.0 0.0801088778
C  C75  1  0.97110000  0.46450000  0.79450000  1.0 0.0801088778
C  C76  1  0.02890000  0.53550000  0.20550000  1.0 0.0801088778
C  C77  1  0.47110000  0.03550000  0.20550000  1.0 0.0801088778
C  C78  1  0.52890000  0.96450000  0.79450000  1.0 0.0801088778
C  C79  1  0.02890000  0.96450000  0.70550000  1.0 0.0801088778
C  C80  1  0.97110000  0.03550000  0.29450000  1.0 0.0801088778
C  C81  1  0.55170000  0.46050000  0.27380000  1.0 0.0116398488
C  C82  1  0.44830000  0.53950000  0.72620000  1.0 0.0116398488
C  C83  1  0.94830000  0.53950000  0.77380000  1.0 0.0116398488
C  C84  1  0.05170000  0.46050000  0.22620000  1.0 0.0116398488
C  C85  1  0.44830000  0.96050000  0.22620000  1.0 0.0116398488
C  C86  1  0.55170000  0.03950000  0.77380000  1.0 0.0116398488
C  C87  1  0.05170000  0.03950000  0.72620000  1.0 0.0116398488
C  C88  1  0.94830000  0.96050000  0.27380000  1.0 0.0116398488
C  C89  1  0.53480000  0.39080000  0.24880000  1.0 -0.2258057458
C  C90  1  0.46520000  0.60920000  0.75120000  1.0 -0.2258057458
C  C91  1  0.96520000  0.60920000  0.74880000  1.0 -0.2258057458
C  C92  1  0.03480000  0.39080000  0.25120000  1.0 -0.2258057458
C  C93  1  0.46520000  0.89080000  0.25120000  1.0 -0.2258057458
C  C94  1  0.53480000  0.10920000  0.74880000  1.0 -0.2258057458
C  C95  1  0.03480000  0.10920000  0.75120000  1.0 -0.2258057458
C  C96  1  0.96520000  0.89080000  0.24880000  1.0 -0.2258057458
C  C97  1  0.49660000  0.39530000  0.24430000  1.0 -0.1989977392
C  C98  1  0.50340000  0.60470000  0.75570000  1.0 -0.1989977392
C  C99  1  0.00340000  0.60470000  0.74430000  1.0 -0.1989977392
C  C100  1  0.99660000  0.39530000  0.25570000  1.0 -0.1989977392
C  C101  1  0.50340000  0.89530000  0.25570000  1.0 -0.1989977392
C  C102  1  0.49660000  0.10470000  0.74430000  1.0 -0.1989977392
C  C103  1  0.99660000  0.10470000  0.75570000  1.0 -0.1989977392
C  C104  1  0.00340000  0.89530000  0.24430000  1.0 -0.1989977392
C  C105  1  0.59140000  0.45630000  0.27850000  1.0 0.090759743
C  C106  1  0.40860000  0.54370000  0.72150000  1.0 0.090759743
C  C107  1  0.90860000  0.54370000  0.77850000  1.0 0.090759743
C  C108  1  0.09140000  0.45630000  0.22150000  1.0 0.090759743
C  C109  1  0.40860000  0.95630000  0.22150000  1.0 0.090759743
C  C110  1  0.59140000  0.04370000  0.77850000  1.0 0.090759743
C  C111  1  0.09140000  0.04370000  0.72150000  1.0 0.090759743
C  C112  1  0.90860000  0.95630000  0.27850000  1.0 0.090759743
C  C113  1  0.61060000  0.56840000  0.28420000  1.0 -0.1610778816
C  C114  1  0.38940000  0.43160000  0.71580000  1.0 -0.1610778816
C  C115  1  0.88940000  0.43160000  0.78420000  1.0 -0.1610778816
C  C116  1  0.11060000  0.56840000  0.21580000  1.0 -0.1610778816
C  C117  1  0.38940000  0.06840000  0.21580000  1.0 -0.1610778816
C  C118  1  0.61060000  0.93160000  0.78420000  1.0 -0.1610778816
C  C119  1  0.11060000  0.93160000  0.71580000  1.0 -0.1610778816
C  C120  1  0.88940000  0.06840000  0.28420000  1.0 -0.1610778816
C  C121  1  0.64800000  0.56290000  0.28750000  1.0 -0.0991172472
C  C122  1  0.35200000  0.43710000  0.71250000  1.0 -0.0991172472
C  C123  1  0.85200000  0.43710000  0.78750000  1.0 -0.0991172472
C  C124  1  0.14800000  0.56290000  0.21250000  1.0 -0.0991172472
C  C125  1  0.35200000  0.06290000  0.21250000  1.0 -0.0991172472
C  C126  1  0.64800000  0.93710000  0.78750000  1.0 -0.0991172472
C  C127  1  0.14800000  0.93710000  0.71250000  1.0 -0.0991172472
C  C128  1  0.85200000  0.06290000  0.28750000  1.0 -0.0991172472
C  C129  1  0.66610000  0.45320000  0.28480000  1.0 0.0116398488
C  C130  1  0.33390000  0.54680000  0.71520000  1.0 0.0116398488
C  C131  1  0.83390000  0.54680000  0.78480000  1.0 0.0116398488
C  C132  1  0.16610000  0.45320000  0.21520000  1.0 0.0116398488
C  C133  1  0.33390000  0.95320000  0.21520000  1.0 0.0116398488
C  C134  1  0.66610000  0.04680000  0.78480000  1.0 0.0116398488
C  C135  1  0.16610000  0.04680000  0.71520000  1.0 0.0116398488
C  C136  1  0.83390000  0.95320000  0.28480000  1.0 0.0116398488
C  C137  1  0.64840000  0.34390000  0.28000000  1.0 -0.0894830772
C  C138  1  0.35160000  0.65610000  0.72000000  1.0 -0.0894830772
C  C139  1  0.85160000  0.65610000  0.78000000  1.0 -0.0894830772
C  C140  1  0.14840000  0.34390000  0.22000000  1.0 -0.0894830772
C  C141  1  0.35160000  0.84390000  0.22000000  1.0 -0.0894830772
C  C142  1  0.64840000  0.15610000  0.78000000  1.0 -0.0894830772
C  C143  1  0.14840000  0.15610000  0.72000000  1.0 -0.0894830772
C  C144  1  0.85160000  0.84390000  0.28000000  1.0 -0.0894830772
C  C145  1  0.60990000  0.34490000  0.27490000  1.0 -0.1817965223
C  C146  1  0.39010000  0.65510000  0.72510000  1.0 -0.1817965223
C  C147  1  0.89010000  0.65510000  0.77490000  1.0 -0.1817965223
C  C148  1  0.10990000  0.34490000  0.22510000  1.0 -0.1817965223
C  C149  1  0.39010000  0.84490000  0.22510000  1.0 -0.1817965223
C  C150  1  0.60990000  0.15510000  0.77490000  1.0 -0.1817965223
C  C151  1  0.10990000  0.15510000  0.72510000  1.0 -0.1817965223
C  C152  1  0.89010000  0.84490000  0.27490000  1.0 -0.1817965223
C  C153  1  0.70900000  0.44600000  0.29340000  1.0 0.5167767132
C  C154  1  0.29100000  0.55400000  0.70660000  1.0 0.5167767132
C  C155  1  0.79100000  0.55400000  0.79340000  1.0 0.5167767132
C  C156  1  0.20900000  0.44600000  0.20660000  1.0 0.5167767132
C  C157  1  0.29100000  0.94600000  0.20660000  1.0 0.5167767132
C  C158  1  0.70900000  0.05400000  0.79340000  1.0 0.5167767132
C  C159  1  0.20900000  0.05400000  0.70660000  1.0 0.5167767132
C  C160  1  0.79100000  0.94600000  0.29340000  1.0 0.5167767132
C  C161  1  0.50440000  0.66666667  0.33240000  1.0 0.2852382982
C  C162  1  0.49560000  0.33333333  0.66760000  1.0 0.2852382982
C  C163  1  0.99560000  0.33333333  0.83240000  1.0 0.2852382982
C  C164  1  0.00440000  0.66666667  0.16760000  1.0 0.2852382982
C  C165  1  0.49560000  0.16670000  0.16760000  1.0 0.2852382982
C  C166  1  0.50440000  0.83330000  0.83240000  1.0 0.2852382982
C  C167  1  0.00440000  0.83330000  0.66760000  1.0 0.2852382982
C  C168  1  0.99560000  0.16670000  0.33240000  1.0 0.2852382982
C  C169  1  0.50270000  0.75240000  0.36190000  1.0 0.0116398488
C  C170  1  0.49730000  0.24760000  0.63810000  1.0 0.0116398488
C  C171  1  0.99730000  0.24760000  0.86190000  1.0 0.0116398488
C  C172  1  0.00270000  0.75240000  0.13810000  1.0 0.0116398488
C  C173  1  0.49730000  0.25240000  0.13810000  1.0 0.0116398488
C  C174  1  0.50270000  0.74760000  0.86190000  1.0 0.0116398488
C  C175  1  0.00270000  0.74760000  0.63810000  1.0 0.0116398488
C  C176  1  0.99730000  0.25240000  0.36190000  1.0 0.0116398488
C  C177  1  0.47580000  0.83990000  0.36340000  1.0 -0.1610778816
C  C178  1  0.52420000  0.16010000  0.63660000  1.0 -0.1610778816
C  C179  1  0.02420000  0.16010000  0.86340000  1.0 -0.1610778816
C  C180  1  0.97580000  0.83990000  0.13660000  1.0 -0.1610778816
C  C181  1  0.52420000  0.33990000  0.13660000  1.0 -0.1610778816
C  C182  1  0.47580000  0.66010000  0.86340000  1.0 -0.1610778816
C  C183  1  0.97580000  0.66010000  0.63660000  1.0 -0.1610778816
C  C184  1  0.02420000  0.33990000  0.36340000  1.0 -0.1610778816
C  C185  1  0.47340000  0.92610000  0.38990000  1.0 -0.1543400244
C  C186  1  0.52660000  0.07390000  0.61010000  1.0 -0.1543400244
C  C187  1  0.02660000  0.07390000  0.88990000  1.0 -0.1543400244
C  C188  1  0.97340000  0.92610000  0.11010000  1.0 -0.1543400244
C  C189  1  0.52660000  0.42610000  0.11010000  1.0 -0.1543400244
C  C190  1  0.47340000  0.57390000  0.88990000  1.0 -0.1543400244
C  C191  1  0.97340000  0.57390000  0.61010000  1.0 -0.1543400244
C  C192  1  0.02660000  0.42610000  0.38990000  1.0 -0.1543400244
C  C193  1  0.50000000  0.92790000  0.41560000  1.0 0.0116398488
C  C194  1  0.50000000  0.07210000  0.58440000  1.0 0.0116398488
C  C195  1  0.00000000  0.07210000  0.91560000  1.0 0.0116398488
C  C196  1  0.00000000  0.92790000  0.08440000  1.0 0.0116398488
C  C197  1  0.50000000  0.42790000  0.08440000  1.0 0.0116398488
C  C198  1  0.50000000  0.57210000  0.91560000  1.0 0.0116398488
C  C199  1  0.00000000  0.57210000  0.58440000  1.0 0.0116398488
C  C200  1  0.00000000  0.42790000  0.41560000  1.0 0.0116398488
C  C201  1  0.52670000  0.83860000  0.41460000  1.0 -0.1222972734
C  C202  1  0.47330000  0.16140000  0.58540000  1.0 -0.1222972734
C  C203  1  0.97330000  0.16140000  0.91460000  1.0 -0.1222972734
C  C204  1  0.02670000  0.83860000  0.08540000  1.0 -0.1222972734
C  C205  1  0.47330000  0.33860000  0.08540000  1.0 -0.1222972734
C  C206  1  0.52670000  0.66140000  0.91460000  1.0 -0.1222972734
C  C207  1  0.02670000  0.66140000  0.58540000  1.0 -0.1222972734
C  C208  1  0.97330000  0.33860000  0.41460000  1.0 -0.1222972734
C  C209  1  0.52770000  0.75140000  0.38770000  1.0 -0.0991172472
C  C210  1  0.47230000  0.24860000  0.61230000  1.0 -0.0991172472
C  C211  1  0.97230000  0.24860000  0.88770000  1.0 -0.0991172472
C  C212  1  0.02770000  0.75140000  0.11230000  1.0 -0.0991172472
C  C213  1  0.47230000  0.25140000  0.11230000  1.0 -0.0991172472
C  C214  1  0.52770000  0.74860000  0.88770000  1.0 -0.0991172472
C  C215  1  0.02770000  0.74860000  0.61230000  1.0 -0.0991172472
C  C216  1  0.97230000  0.25140000  0.38770000  1.0 -0.0991172472
C  C217  1  0.50300000  0.02580000  0.44280000  1.0 0.3007846499
C  C218  1  0.49700000  0.97420000  0.55720000  1.0 0.3007846499
C  C219  1  0.99700000  0.97420000  0.94280000  1.0 0.3007846499
C  C220  1  0.00300000  0.02580000  0.05720000  1.0 0.3007846499
C  C221  1  0.49700000  0.52580000  0.05720000  1.0 0.3007846499
C  C222  1  0.50300000  0.47420000  0.94280000  1.0 0.3007846499
C  C223  1  0.00300000  0.47420000  0.55720000  1.0 0.3007846499
C  C224  1  0.99700000  0.52580000  0.44280000  1.0 0.3007846499
C  C225  1  0.32200000  0.33100000  0.50230000  1.0 0.5561274315
C  C226  1  0.67800000  0.66900000  0.49770000  1.0 0.5561274315
C  C227  1  0.17800000  0.66900000  0.00230000  1.0 0.5561274315
C  C228  1  0.82200000  0.33100000  0.99770000  1.0 0.5561274315
C  C229  1  0.67800000  0.83100000  0.99770000  1.0 0.5561274315
C  C230  1  0.32200000  0.16900000  0.00230000  1.0 0.5561274315
C  C231  1  0.82200000  0.16900000  0.49770000  1.0 0.5561274315
C  C232  1  0.17800000  0.83100000  0.50230000  1.0 0.5561274315
C  C233  1  0.36030000  0.32040000  0.50490000  1.0 -0.0476982328
C  C234  1  0.63970000  0.67960000  0.49510000  1.0 -0.0476982328
C  C235  1  0.13970000  0.67960000  0.00490000  1.0 -0.0476982328
C  C236  1  0.86030000  0.32040000  0.99510000  1.0 -0.0476982328
C  C237  1  0.63970000  0.82040000  0.99510000  1.0 -0.0476982328
C  C238  1  0.36030000  0.17960000  0.00490000  1.0 -0.0476982328
C  C239  1  0.86030000  0.17960000  0.49510000  1.0 -0.0476982328
C  C240  1  0.13970000  0.82040000  0.50490000  1.0 -0.0476982328
C  C241  1  0.38290000  0.41710000  0.50460000  1.0 -0.0991172472
C  C242  1  0.61710000  0.58290000  0.49540000  1.0 -0.0991172472
C  C243  1  0.11710000  0.58290000  0.00460000  1.0 -0.0991172472
C  C244  1  0.88290000  0.41710000  0.99540000  1.0 -0.0991172472
C  C245  1  0.61710000  0.91710000  0.99540000  1.0 -0.0991172472
C  C246  1  0.38290000  0.08290000  0.00460000  1.0 -0.0991172472
C  C247  1  0.88290000  0.08290000  0.49540000  1.0 -0.0991172472
C  C248  1  0.11710000  0.91710000  0.50460000  1.0 -0.0991172472
C  C249  1  0.41890000  0.40470000  0.50280000  1.0 -0.1610778816
C  C250  1  0.58110000  0.59530000  0.49720000  1.0 -0.1610778816
C  C251  1  0.08110000  0.59530000  0.00280000  1.0 -0.1610778816
C  C252  1  0.91890000  0.40470000  0.99720000  1.0 -0.1610778816
C  C253  1  0.58110000  0.90470000  0.99720000  1.0 -0.1610778816
C  C254  1  0.41890000  0.09530000  0.00280000  1.0 -0.1610778816
C  C255  1  0.91890000  0.09530000  0.49720000  1.0 -0.1610778816
C  C256  1  0.08110000  0.90470000  0.50280000  1.0 -0.1610778816
C  C257  1  0.43410000  0.28680000  0.50280000  1.0 0.0801088778
C  C258  1  0.56590000  0.71320000  0.49720000  1.0 0.0801088778
C  C259  1  0.06590000  0.71320000  0.00280000  1.0 0.0801088778
C  C260  1  0.93410000  0.28680000  0.99720000  1.0 0.0801088778
C  C261  1  0.56590000  0.78680000  0.99720000  1.0 0.0801088778
C  C262  1  0.43410000  0.21320000  0.00280000  1.0 0.0801088778
C  C263  1  0.93410000  0.21320000  0.49720000  1.0 0.0801088778
C  C264  1  0.06590000  0.78680000  0.50280000  1.0 0.0801088778
C  C265  1  0.41090000  0.18660000  0.50400000  1.0 -0.1610778816
C  C266  1  0.58910000  0.81340000  0.49600000  1.0 -0.1610778816
C  C267  1  0.08910000  0.81340000  0.00400000  1.0 -0.1610778816
C  C268  1  0.91090000  0.18660000  0.99600000  1.0 -0.1610778816
C  C269  1  0.58910000  0.68660000  0.99600000  1.0 -0.1610778816
C  C270  1  0.41090000  0.31340000  0.00400000  1.0 -0.1610778816
C  C271  1  0.91090000  0.31340000  0.49600000  1.0 -0.1610778816
C  C272  1  0.08910000  0.68660000  0.50400000  1.0 -0.1610778816
C  C273  1  0.37520000  0.20250000  0.50510000  1.0 -0.0894830772
C  C274  1  0.62480000  0.79750000  0.49490000  1.0 -0.0894830772
C  C275  1  0.12480000  0.79750000  0.00510000  1.0 -0.0894830772
C  C276  1  0.87520000  0.20250000  0.99490000  1.0 -0.0894830772
C  C277  1  0.62480000  0.70250000  0.99490000  1.0 -0.0894830772
C  C278  1  0.37520000  0.29750000  0.00510000  1.0 -0.0804315002
C  C279  1  0.87520000  0.29750000  0.49490000  1.0 -0.0804315002
C  C280  1  0.12480000  0.70250000  0.50510000  1.0 -0.0894830772
C  C281  1  0.47390000  0.26500000  0.50100000  1.0 -0.0015192708
C  C282  1  0.52610000  0.73500000  0.49900000  1.0 -0.0015192708
C  C283  1  0.02610000  0.73500000  0.00100000  1.0 -0.0015192708
C  C284  1  0.97390000  0.26500000  0.99900000  1.0 -0.0015192708
C  C285  1  0.52610000  0.76500000  0.99900000  1.0 -0.0015192708
C  C286  1  0.47390000  0.23500000  0.00100000  1.0 -0.0015192708
C  C287  1  0.97390000  0.23500000  0.49900000  1.0 -0.0015192708
C  C288  1  0.02610000  0.76500000  0.50100000  1.0 -0.0015192708
C  C289  1  0.49790000  0.33410000  0.52170000  1.0 -0.1610778816
C  C290  1  0.50210000  0.66590000  0.47830000  1.0 -0.1610778816
C  C291  1  0.00210000  0.66590000  0.02170000  1.0 -0.1610778816
C  C292  1  0.99790000  0.33410000  0.97830000  1.0 -0.1610778816
C  C293  1  0.50210000  0.83410000  0.97830000  1.0 -0.1610778816
C  C294  1  0.49790000  0.16590000  0.02170000  1.0 -0.1610778816
C  C295  1  0.99790000  0.16590000  0.47830000  1.0 -0.1610778816
C  C296  1  0.00210000  0.83410000  0.52170000  1.0 -0.1610778816
C  C297  1  0.53390000  0.30930000  0.52190000  1.0 -0.1690107134
C  C298  1  0.46610000  0.69070000  0.47810000  1.0 -0.1690107134
C  C299  1  0.96610000  0.69070000  0.02190000  1.0 -0.1690107134
C  C300  1  0.03390000  0.30930000  0.97810000  1.0 -0.1690107134
C  C301  1  0.46610000  0.80930000  0.97810000  1.0 -0.1690107134
C  C302  1  0.53390000  0.19070000  0.02190000  1.0 -0.1690107134
C  C303  1  0.03390000  0.19070000  0.47810000  1.0 -0.1690107134
C  C304  1  0.96610000  0.80930000  0.52190000  1.0 -0.1690107134
C  C305  1  0.54980000  0.21890000  0.50160000  1.0 0.0116398488
C  C306  1  0.45020000  0.78110000  0.49840000  1.0 0.0116398488
C  C307  1  0.95020000  0.78110000  0.00160000  1.0 0.0116398488
C  C308  1  0.04980000  0.21890000  0.99840000  1.0 0.0116398488
C  C309  1  0.45020000  0.71890000  0.99840000  1.0 0.0116398488
C  C310  1  0.54980000  0.28110000  0.00160000  1.0 0.0116398488
C  C311  1  0.04980000  0.28110000  0.49840000  1.0 0.0116398488
C  C312  1  0.95020000  0.71890000  0.50160000  1.0 0.0116398488
C  C313  1  0.52650000  0.15050000  0.48030000  1.0 0.0801088778
C  C314  1  0.47350000  0.84950000  0.51970000  1.0 0.0801088778
C  C315  1  0.97350000  0.84950000  0.98030000  1.0 0.0801088778
C  C316  1  0.02650000  0.15050000  0.01970000  1.0 0.0801088778
C  C317  1  0.47350000  0.65050000  0.01970000  1.0 0.0801088778
C  C318  1  0.52650000  0.34950000  0.98030000  1.0 0.0801088778
C  C319  1  0.02650000  0.34950000  0.51970000  1.0 0.0801088778
C  C320  1  0.97350000  0.65050000  0.48030000  1.0 0.0801088778
C  C321  1  0.48980000  0.17480000  0.48010000  1.0 0.063017272
C  C322  1  0.51020000  0.82520000  0.51990000  1.0 0.063017272
C  C323  1  0.01020000  0.82520000  0.98010000  1.0 0.063017272
C  C324  1  0.98980000  0.17480000  0.01990000  1.0 0.063017272
C  C325  1  0.51020000  0.67480000  0.01990000  1.0 0.063017272
C  C326  1  0.48980000  0.32520000  0.98010000  1.0 0.063017272
C  C327  1  0.98980000  0.32520000  0.51990000  1.0 0.063017272
C  C328  1  0.01020000  0.67480000  0.48010000  1.0 0.063017272
C  C329  1  0.58970000  0.19320000  0.50130000  1.0 0.090759743
C  C330  1  0.41030000  0.80680000  0.49870000  1.0 0.090759743
C  C331  1  0.91030000  0.80680000  0.00130000  1.0 0.090759743
C  C332  1  0.08970000  0.19320000  0.99870000  1.0 0.090759743
C  C333  1  0.41030000  0.69320000  0.99870000  1.0 0.090759743
C  C334  1  0.58970000  0.30680000  0.00130000  1.0 0.090759743
C  C335  1  0.08970000  0.30680000  0.49870000  1.0 0.090759743
C  C336  1  0.91030000  0.69320000  0.50130000  1.0 0.090759743
C  C337  1  0.60880000  0.20070000  0.53270000  1.0 -0.1610778816
C  C338  1  0.39120000  0.79930000  0.46730000  1.0 -0.1610778816
C  C339  1  0.89120000  0.79930000  0.03270000  1.0 -0.1610778816
C  C340  1  0.10880000  0.20070000  0.96730000  1.0 -0.1610778816
C  C341  1  0.39120000  0.70070000  0.96730000  1.0 -0.1610778816
C  C342  1  0.60880000  0.29930000  0.03270000  1.0 -0.1610778816
C  C343  1  0.10880000  0.29930000  0.46730000  1.0 -0.1610778816
C  C344  1  0.89120000  0.70070000  0.53270000  1.0 -0.1610778816
C  C345  1  0.64720000  0.17670000  0.53060000  1.0 -0.0705175686
C  C346  1  0.35280000  0.82330000  0.46940000  1.0 -0.0705175686
C  C347  1  0.85280000  0.82330000  0.03060000  1.0 -0.0705175686
C  C348  1  0.14720000  0.17670000  0.96940000  1.0 -0.0705175686
C  C349  1  0.35280000  0.67670000  0.96940000  1.0 -0.0705175686
C  C350  1  0.64720000  0.32330000  0.03060000  1.0 -0.0705175686
C  C351  1  0.14720000  0.32330000  0.46940000  1.0 -0.0705175686
C  C352  1  0.85280000  0.67670000  0.53060000  1.0 -0.0705175686
C  C353  1  0.66350000  0.13990000  0.50000000  1.0 -0.0476982328
C  C354  1  0.33650000  0.86010000  0.50000000  1.0 -0.0476982328
C  C355  1  0.83650000  0.86010000  0.00000000  1.0 -0.0476982328
C  C356  1  0.16350000  0.13990000  0.00000000  1.0 -0.0476982328
C  C357  1  0.33650000  0.63990000  0.00000000  1.0 -0.0476982328
C  C358  1  0.66350000  0.36010000  0.00000000  1.0 -0.0476982328
C  C359  1  0.16350000  0.36010000  0.50000000  1.0 -0.0476982328
C  C360  1  0.83650000  0.63990000  0.50000000  1.0 -0.0476982328
C  C361  1  0.64270000  0.12770000  0.47080000  1.0 -0.0804315002
C  C362  1  0.35730000  0.87230000  0.52920000  1.0 -0.0804315002
C  C363  1  0.85730000  0.87230000  0.97080000  1.0 -0.0804315002
C  C364  1  0.14270000  0.12770000  0.02920000  1.0 -0.0804315002
C  C365  1  0.35730000  0.62770000  0.02920000  1.0 -0.0804315002
C  C366  1  0.64270000  0.37230000  0.97080000  1.0 -0.0804315002
C  C367  1  0.14270000  0.37230000  0.52920000  1.0 -0.0804315002
C  C368  1  0.85730000  0.62770000  0.47080000  1.0 -0.0804315002
C  C369  1  0.60660000  0.15760000  0.47070000  1.0 -0.1543400244
C  C370  1  0.39340000  0.84240000  0.52930000  1.0 -0.1543400244
C  C371  1  0.89340000  0.84240000  0.97070000  1.0 -0.1543400244
C  C372  1  0.10660000  0.15760000  0.02930000  1.0 -0.1543400244
C  C373  1  0.39340000  0.65760000  0.02930000  1.0 -0.1543400244
C  C374  1  0.60660000  0.34240000  0.97070000  1.0 -0.1543400244
C  C375  1  0.10660000  0.34240000  0.52930000  1.0 -0.1543400244
C  C376  1  0.89340000  0.65760000  0.47070000  1.0 -0.1543400244
C  C377  1  0.70070000  0.10410000  0.50060000  1.0 0.5496880085
C  C378  1  0.29930000  0.89590000  0.49940000  1.0 0.5496880085
C  C379  1  0.79930000  0.89590000  0.00060000  1.0 0.5496880085
C  C380  1  0.20070000  0.10410000  0.99940000  1.0 0.5496880085
C  C381  1  0.29930000  0.60410000  0.99940000  1.0 0.5496880085
C  C382  1  0.70070000  0.39590000  0.00060000  1.0 0.5496880085
C  C383  1  0.20070000  0.39590000  0.49940000  1.0 0.5496880085
C  C384  1  0.79930000  0.60410000  0.50060000  1.0 0.5496880085
C  C385  1  0.30490000  0.60200000  0.14140000  1.0 0.5561274315
C  C386  1  0.69510000  0.39800000  0.85860000  1.0 0.5496880085
C  C387  1  0.19510000  0.39800000  0.64140000  1.0 0.5496880085
C  C388  1  0.80490000  0.60200000  0.35860000  1.0 0.5496880085
C  C389  1  0.69510000  0.10200000  0.35860000  1.0 0.5496880085
C  C390  1  0.30490000  0.89800000  0.64140000  1.0 0.5496880085
C  C391  1  0.80490000  0.89800000  0.85860000  1.0 0.5496880085
C  C392  1  0.19510000  0.10200000  0.14140000  1.0 0.5561274315
C  C393  1  0.34220000  0.55030000  0.14180000  1.0 0.0394123903
C  C394  1  0.65780000  0.44970000  0.85820000  1.0 0.0394123903
C  C395  1  0.15780000  0.44970000  0.64180000  1.0 0.0394123903
C  C396  1  0.84220000  0.55030000  0.35820000  1.0 0.0394123903
C  C397  1  0.65780000  0.05030000  0.35820000  1.0 0.0394123903
C  C398  1  0.34220000  0.94970000  0.64180000  1.0 0.0394123903
C  C399  1  0.84220000  0.94970000  0.85820000  1.0 0.0394123903
C  C400  1  0.15780000  0.05030000  0.14180000  1.0 0.0394123903
C  C401  1  0.37060000  0.62790000  0.15050000  1.0 -0.2536455666
C  C402  1  0.62940000  0.37210000  0.84950000  1.0 -0.2536455666
C  C403  1  0.12940000  0.37210000  0.65050000  1.0 -0.2536455666
C  C404  1  0.87060000  0.62790000  0.34950000  1.0 -0.2536455666
C  C405  1  0.62940000  0.12790000  0.34950000  1.0 -0.2536455666
C  C406  1  0.37060000  0.87210000  0.65050000  1.0 -0.2536455666
C  C407  1  0.87060000  0.87210000  0.84950000  1.0 -0.2536455666
C  C408  1  0.12940000  0.12790000  0.15050000  1.0 -0.2536455666
C  C409  1  0.40490000  0.57850000  0.15050000  1.0 0.2769514496
C  C410  1  0.59510000  0.42150000  0.84950000  1.0 0.2769514496
C  C411  1  0.09510000  0.42150000  0.65050000  1.0 0.2769514496
C  C412  1  0.90490000  0.57850000  0.34950000  1.0 0.2769514496
C  C413  1  0.59510000  0.07850000  0.34950000  1.0 0.2769514496
C  C414  1  0.40490000  0.92150000  0.65050000  1.0 0.2769514496
C  C415  1  0.90490000  0.92150000  0.84950000  1.0 0.2769514496
C  C416  1  0.09510000  0.07850000  0.15050000  1.0 0.2769514496
C  C417  1  0.41010000  0.45220000  0.14350000  1.0 -0.3296745395
C  C418  1  0.58990000  0.54780000  0.85650000  1.0 -0.3296745395
C  C419  1  0.08990000  0.54780000  0.64350000  1.0 -0.3296745395
C  C420  1  0.91010000  0.45220000  0.35650000  1.0 -0.3296745395
C  C421  1  0.58990000  0.95220000  0.35650000  1.0 -0.3296745395
C  C422  1  0.41010000  0.04780000  0.64350000  1.0 -0.3296745395
C  C423  1  0.91010000  0.04780000  0.85650000  1.0 -0.3296745395
C  C424  1  0.08990000  0.95220000  0.14350000  1.0 -0.3296745395
C  C425  1  0.38140000  0.37680000  0.13620000  1.0 0.2691656773
C  C426  1  0.61860000  0.62320000  0.86380000  1.0 0.2691656773
C  C427  1  0.11860000  0.62320000  0.63620000  1.0 0.2691656773
C  C428  1  0.88140000  0.37680000  0.36380000  1.0 0.2691656773
C  C429  1  0.61860000  0.87680000  0.36380000  1.0 0.2691656773
C  C430  1  0.38140000  0.12320000  0.63620000  1.0 0.2691656773
C  C431  1  0.88140000  0.12320000  0.86380000  1.0 0.2691656773
C  C432  1  0.11860000  0.87680000  0.13620000  1.0 0.2691656773
C  C433  1  0.34700000  0.42360000  0.13490000  1.0 -0.2601906484
C  C434  1  0.65300000  0.57640000  0.86510000  1.0 -0.2601906484
C  C435  1  0.15300000  0.57640000  0.63490000  1.0 -0.2601906484
C  C436  1  0.84700000  0.42360000  0.36510000  1.0 -0.2601906484
C  C437  1  0.65300000  0.92360000  0.36510000  1.0 -0.2601906484
C  C438  1  0.34700000  0.07640000  0.63490000  1.0 -0.2601906484
C  C439  1  0.84700000  0.07640000  0.86510000  1.0 -0.2601906484
C  C440  1  0.15300000  0.92360000  0.13490000  1.0 -0.2601906484
C  C441  1  0.46750000  0.61170000  0.15900000  1.0 -0.0804315002
C  C442  1  0.53250000  0.38830000  0.84100000  1.0 -0.0804315002
C  C443  1  0.03250000  0.38830000  0.65900000  1.0 -0.0804315002
C  C444  1  0.96750000  0.61170000  0.34100000  1.0 -0.0804315002
C  C445  1  0.53250000  0.11170000  0.34100000  1.0 -0.0804315002
C  C446  1  0.46750000  0.88830000  0.65900000  1.0 -0.0804315002
C  C447  1  0.96750000  0.88830000  0.84100000  1.0 -0.0804315002
C  C448  1  0.03250000  0.11170000  0.15900000  1.0 -0.0804315002
C  C449  1  0.49260000  0.70700000  0.17170000  1.0 -0.0991172472
C  C450  1  0.50740000  0.29300000  0.82830000  1.0 -0.0991172472
C  C451  1  0.00740000  0.29300000  0.67170000  1.0 -0.0991172472
C  C452  1  0.99260000  0.70700000  0.32830000  1.0 -0.0991172472
C  C453  1  0.50740000  0.20700000  0.32830000  1.0 -0.0991172472
C  C454  1  0.49260000  0.79300000  0.67170000  1.0 -0.0991172472
C  C455  1  0.99260000  0.79300000  0.82830000  1.0 -0.0991172472
C  C456  1  0.00740000  0.20700000  0.17170000  1.0 -0.0991172472
C  C457  1  0.54990000  0.67600000  0.18970000  1.0 -0.0476982328
C  C458  1  0.45010000  0.32400000  0.81030000  1.0 -0.0476982328
C  C459  1  0.95010000  0.32400000  0.68970000  1.0 -0.0476982328
C  C460  1  0.04990000  0.67600000  0.31030000  1.0 -0.0476982328
C  C461  1  0.45010000  0.17600000  0.31030000  1.0 -0.0476982328
C  C462  1  0.54990000  0.82400000  0.68970000  1.0 -0.0476982328
C  C463  1  0.04990000  0.82400000  0.81030000  1.0 -0.0476982328
C  C464  1  0.95010000  0.17600000  0.18970000  1.0 -0.0476982328
C  C465  1  0.58470000  0.65000000  0.18960000  1.0 -0.1403149938
C  C466  1  0.41530000  0.35000000  0.81040000  1.0 -0.1403149938
C  C467  1  0.91530000  0.35000000  0.68960000  1.0 -0.1403149938
C  C468  1  0.08470000  0.65000000  0.31040000  1.0 -0.1403149938
C  C469  1  0.41530000  0.15000000  0.31040000  1.0 -0.1403149938
C  C470  1  0.58470000  0.85000000  0.68960000  1.0 -0.1403149938
C  C471  1  0.08470000  0.85000000  0.81040000  1.0 -0.1403149938
C  C472  1  0.91530000  0.15000000  0.18960000  1.0 -0.1403149938
C  C473  1  0.62220000  0.50270000  0.18160000  1.0 -0.0182045583
C  C474  1  0.37780000  0.49730000  0.81840000  1.0 -0.0182045583
C  C475  1  0.87780000  0.49730000  0.68160000  1.0 -0.0182045583
C  C476  1  0.12220000  0.50270000  0.31840000  1.0 -0.0182045583
C  C477  1  0.37780000  0.00270000  0.31840000  1.0 -0.0182045583
C  C478  1  0.62220000  0.99730000  0.68160000  1.0 -0.0182045583
C  C479  1  0.12220000  0.99730000  0.81840000  1.0 -0.0182045583
C  C480  1  0.87780000  0.00270000  0.18160000  1.0 -0.0182045583
C  C481  1  0.63770000  0.40610000  0.16780000  1.0 -0.1259501105
C  C482  1  0.36230000  0.59390000  0.83220000  1.0 -0.1259501105
C  C483  1  0.86230000  0.59390000  0.66780000  1.0 -0.1259501105
C  C484  1  0.13770000  0.40610000  0.33220000  1.0 -0.1259501105
C  C485  1  0.36230000  0.90610000  0.33220000  1.0 -0.1259501105
C  C486  1  0.63770000  0.09390000  0.66780000  1.0 -0.1259501105
C  C487  1  0.13770000  0.09390000  0.83220000  1.0 -0.1259501105
C  C488  1  0.86230000  0.90610000  0.16780000  1.0 -0.1259501105
C  C489  1  0.62610000  0.20970000  0.13920000  1.0 0.2691656773
C  C490  1  0.37390000  0.79030000  0.86080000  1.0 0.2691656773
C  C491  1  0.87390000  0.79030000  0.63920000  1.0 0.2691656773
C  C492  1  0.12610000  0.20970000  0.36080000  1.0 0.2691656773
C  C493  1  0.37390000  0.70970000  0.36080000  1.0 0.2691656773
C  C494  1  0.62610000  0.29030000  0.63920000  1.0 0.2691656773
C  C495  1  0.12610000  0.29030000  0.86080000  1.0 0.2691656773
C  C496  1  0.87390000  0.70970000  0.13920000  1.0 0.2691656773
C  C497  1  0.65560000  0.18990000  0.12340000  1.0 -0.2431619171
C  C498  1  0.34440000  0.81010000  0.87660000  1.0 -0.2431619171
C  C499  1  0.84440000  0.81010000  0.62340000  1.0 -0.2431619171
C  C500  1  0.15560000  0.18990000  0.37660000  1.0 -0.2431619171
C  C501  1  0.34440000  0.68990000  0.37660000  1.0 -0.2431619171
C  C502  1  0.65560000  0.31010000  0.62340000  1.0 -0.2431619171
C  C503  1  0.15560000  0.31010000  0.87660000  1.0 -0.2431619171
C  C504  1  0.84440000  0.68990000  0.12340000  1.0 -0.2431619171
C  C505  1  0.66290000  0.09010000  0.10130000  1.0 0.0801088778
C  C506  1  0.33710000  0.90990000  0.89870000  1.0 0.0801088778
C  C507  1  0.83710000  0.90990000  0.60130000  1.0 0.0801088778
C  C508  1  0.16290000  0.09010000  0.39870000  1.0 0.0801088778
C  C509  1  0.33710000  0.59010000  0.39870000  1.0 0.0801088778
C  C510  1  0.66290000  0.40990000  0.60130000  1.0 0.0801088778
C  C511  1  0.16290000  0.40990000  0.89870000  1.0 0.0801088778
C  C512  1  0.83710000  0.59010000  0.10130000  1.0 0.0801088778
C  C513  1  0.63450000  0.00470000  0.09110000  1.0 -0.2601906484
C  C514  1  0.36550000  0.99530000  0.90890000  1.0 -0.2601906484
C  C515  1  0.86550000  0.99530000  0.59110000  1.0 -0.2601906484
C  C516  1  0.13450000  0.00470000  0.40890000  1.0 -0.2601906484
C  C517  1  0.36550000  0.50470000  0.40890000  1.0 -0.2601906484
C  C518  1  0.63450000  0.49530000  0.59110000  1.0 -0.2601906484
C  C519  1  0.13450000  0.49530000  0.90890000  1.0 -0.2601906484
C  C520  1  0.86550000  0.50470000  0.09110000  1.0 -0.2601906484
C  C521  1  0.60230000  0.02510000  0.10580000  1.0 0.2581309999
C  C522  1  0.39770000  0.97490000  0.89420000  1.0 0.2581309999
C  C523  1  0.89770000  0.97490000  0.60580000  1.0 0.2581309999
C  C524  1  0.10230000  0.02510000  0.39420000  1.0 0.2581309999
C  C525  1  0.39770000  0.52510000  0.39420000  1.0 0.2581309999
C  C526  1  0.60230000  0.47490000  0.60580000  1.0 0.2581309999
C  C527  1  0.10230000  0.47490000  0.89420000  1.0 0.2581309999
C  C528  1  0.89770000  0.52510000  0.10580000  1.0 0.2581309999
C  C529  1  0.59670000  0.12220000  0.13010000  1.0 -0.3907787589
C  C530  1  0.40330000  0.87780000  0.86990000  1.0 -0.3907787589
C  C531  1  0.90330000  0.87780000  0.63010000  1.0 -0.3907787589
C  C532  1  0.09670000  0.12220000  0.36990000  1.0 -0.3907787589
C  C533  1  0.40330000  0.62220000  0.36990000  1.0 -0.3907787589
C  C534  1  0.59670000  0.37780000  0.63010000  1.0 -0.3907787589
C  C535  1  0.09670000  0.37780000  0.86990000  1.0 -0.3907787589
C  C536  1  0.90330000  0.62220000  0.13010000  1.0 -0.3907787589
C  C537  1  0.69840000  0.06500000  0.08410000  1.0 0.5496880085
C  C538  1  0.30160000  0.93500000  0.91590000  1.0 0.5496880085
C  C539  1  0.80160000  0.93500000  0.58410000  1.0 0.5496880085
C  C540  1  0.19840000  0.06500000  0.41590000  1.0 0.5496880085
C  C541  1  0.30160000  0.56500000  0.41590000  1.0 0.5496880085
C  C542  1  0.69840000  0.43500000  0.58410000  1.0 0.5496880085
C  C543  1  0.19840000  0.43500000  0.91590000  1.0 0.5496880085
C  C544  1  0.80160000  0.56500000  0.08410000  1.0 0.5496880085
C  C545  1  0.54040000  0.97980000  0.10680000  1.0 -0.0627111256
C  C546  1  0.45960000  0.02020000  0.89320000  1.0 -0.0627111256
C  C547  1  0.95960000  0.02020000  0.60680000  1.0 -0.0627111256
C  C548  1  0.04040000  0.97980000  0.39320000  1.0 -0.0627111256
C  C549  1  0.45960000  0.47980000  0.39320000  1.0 -0.0627111256
C  C550  1  0.54040000  0.52020000  0.60680000  1.0 -0.0627111256
C  C551  1  0.04040000  0.52020000  0.89320000  1.0 -0.0627111256
C  C552  1  0.95960000  0.47980000  0.10680000  1.0 -0.0627111256
C  C553  1  0.51340000  0.89950000  0.08940000  1.0 -0.0804315002
C  C554  1  0.48660000  0.10050000  0.91060000  1.0 -0.0804315002
C  C555  1  0.98660000  0.10050000  0.58940000  1.0 -0.0804315002
C  C556  1  0.01340000  0.89950000  0.41060000  1.0 -0.0804315002
C  C557  1  0.48660000  0.39950000  0.41060000  1.0 -0.0804315002
C  C558  1  0.51340000  0.60050000  0.58940000  1.0 -0.0804315002
C  C559  1  0.01340000  0.60050000  0.91060000  1.0 -0.0804315002
C  C560  1  0.98660000  0.39950000  0.08940000  1.0 -0.0804315002
C  C561  1  0.45110000  0.87540000  0.08780000  1.0 -0.037919463
C  C562  1  0.54890000  0.12460000  0.91220000  1.0 -0.037919463
C  C563  1  0.04890000  0.12460000  0.58780000  1.0 -0.037919463
C  C564  1  0.95110000  0.87540000  0.41220000  1.0 -0.037919463
C  C565  1  0.54890000  0.37540000  0.41220000  1.0 -0.037919463
C  C566  1  0.45110000  0.62460000  0.58780000  1.0 -0.037919463
C  C567  1  0.95110000  0.62460000  0.91220000  1.0 -0.037919463
C  C568  1  0.04890000  0.37540000  0.08780000  1.0 -0.037919463
C  C569  1  0.41760000  0.89780000  0.11170000  1.0 -0.0705175686
C  C570  1  0.58240000  0.10220000  0.88830000  1.0 -0.0705175686
C  C571  1  0.08240000  0.10220000  0.61170000  1.0 -0.0705175686
C  C572  1  0.91760000  0.89780000  0.38830000  1.0 -0.0705175686
C  C573  1  0.58240000  0.39780000  0.38830000  1.0 -0.0705175686
C  C574  1  0.41760000  0.60220000  0.61170000  1.0 -0.0705175686
C  C575  1  0.91760000  0.60220000  0.88830000  1.0 -0.0705175686
C  C576  1  0.08240000  0.39780000  0.11170000  1.0 -0.0705175686
C  C577  1  0.38550000  0.08200000  0.09830000  1.0 -0.0705175686
C  C578  1  0.61450000  0.91800000  0.90170000  1.0 -0.0705175686
C  C579  1  0.11450000  0.91800000  0.59830000  1.0 -0.0705175686
C  C580  1  0.88550000  0.08200000  0.40170000  1.0 -0.0705175686
C  C581  1  0.61450000  0.58200000  0.40170000  1.0 -0.0705175686
C  C582  1  0.38550000  0.41800000  0.59830000  1.0 -0.0705175686
C  C583  1  0.88550000  0.41800000  0.90170000  1.0 -0.0705175686
C  C584  1  0.11450000  0.58200000  0.09830000  1.0 -0.0705175686
C  C585  1  0.36550000  0.18120000  0.11210000  1.0 -0.0476982328
C  C586  1  0.63450000  0.81880000  0.88790000  1.0 -0.0476982328
C  C587  1  0.13450000  0.81880000  0.61210000  1.0 -0.0476982328
C  C588  1  0.86550000  0.18120000  0.38790000  1.0 -0.0476982328
C  C589  1  0.63450000  0.68120000  0.38790000  1.0 -0.0476982328
C  C590  1  0.36550000  0.31880000  0.61210000  1.0 -0.0476982328
C  C591  1  0.86550000  0.31880000  0.88790000  1.0 -0.0476982328
C  C592  1  0.13450000  0.68120000  0.11210000  1.0 -0.0476982328
N  N1  1  0.47790000  0.62750000  0.31257000  1.0 -0.284877119
N  N2  1  0.52210000  0.37250000  0.68743000  1.0 -0.284877119
N  N3  1  0.02210000  0.37250000  0.81257000  1.0 -0.2851342534
N  N4  1  0.97790000  0.62750000  0.18743000  1.0 -0.284877119
N  N5  1  0.52210000  0.12750000  0.18743000  1.0 -0.284877119
N  N6  1  0.47790000  0.87250000  0.81257000  1.0 -0.2851342534
N  N7  1  0.97790000  0.87250000  0.68743000  1.0 -0.284877119
N  N8  1  0.02210000  0.12750000  0.31257000  1.0 -0.284877119
N  N9  1  0.53710000  0.61260000  0.32260000  1.0 -0.4117641822
N  N10  1  0.46290000  0.38740000  0.67740000  1.0 -0.4117641822
N  N11  1  0.96290000  0.38740000  0.82260000  1.0 -0.4117641822
N  N12  1  0.03710000  0.61260000  0.17740000  1.0 -0.4117641822
N  N13  1  0.46290000  0.11260000  0.17740000  1.0 -0.4117641822
N  N14  1  0.53710000  0.88740000  0.82260000  1.0 -0.4117641822
N  N15  1  0.03710000  0.88740000  0.67740000  1.0 -0.4117641822
N  N16  1  0.96290000  0.11260000  0.32260000  1.0 -0.4117641822
N  N17  1  0.47560000  0.09460000  0.45480000  1.0 -0.296541748
N  N18  1  0.52440000  0.90540000  0.54520000  1.0 -0.296541748
N  N19  1  0.02440000  0.90540000  0.95480000  1.0 -0.296541748
N  N20  1  0.97560000  0.09460000  0.04520000  1.0 -0.296541748
N  N21  1  0.52440000  0.59460000  0.04520000  1.0 -0.296541748
N  N22  1  0.47560000  0.40540000  0.95480000  1.0 -0.296541748
N  N23  1  0.97560000  0.40540000  0.54520000  1.0 -0.296541748
N  N24  1  0.02440000  0.59460000  0.45480000  1.0 -0.296541748
N  N25  1  0.53360000  0.05510000  0.45720000  1.0 -0.3796243401
N  N26  1  0.46640000  0.94490000  0.54280000  1.0 -0.3796243401
N  N27  1  0.96640000  0.94490000  0.95720000  1.0 -0.3796243401
N  N28  1  0.03360000  0.05510000  0.04280000  1.0 -0.3796243401
N  N29  1  0.46640000  0.55510000  0.04280000  1.0 -0.3796243401
N  N30  1  0.53360000  0.44490000  0.95720000  1.0 -0.3796243401
N  N31  1  0.03360000  0.44490000  0.54280000  1.0 -0.3796243401
N  N32  1  0.96640000  0.55510000  0.45720000  1.0 -0.3796243401
O  O1  1  0.31100000  0.38550000  0.21570000  1.0 -0.4872023812
O  O2  1  0.68900000  0.61450000  0.78430000  1.0 -0.4872023812
O  O3  1  0.18900000  0.61450000  0.71570000  1.0 -0.4872023812
O  O4  1  0.81100000  0.38550000  0.28430000  1.0 -0.4872023812
O  O5  1  0.68900000  0.88550000  0.28430000  1.0 -0.4872023812
O  O6  1  0.31100000  0.11450000  0.71570000  1.0 -0.4872023812
O  O7  1  0.81100000  0.11450000  0.78430000  1.0 -0.4872023812
O  O8  1  0.18900000  0.88550000  0.21570000  1.0 -0.4872023812
O  O9  1  0.30560000  0.56600000  0.23670000  1.0 -0.4117641822
O  O10  1  0.69440000  0.43400000  0.76330000  1.0 -0.4173201819
O  O11  1  0.19440000  0.43400000  0.73670000  1.0 -0.4117641822
O  O12  1  0.80560000  0.56600000  0.26330000  1.0 -0.4173201819
O  O13  1  0.69440000  0.06600000  0.26330000  1.0 -0.4173201819
O  O14  1  0.30560000  0.93400000  0.73670000  1.0 -0.4117641822
O  O15  1  0.80560000  0.93400000  0.76330000  1.0 -0.4173201819
O  O16  1  0.19440000  0.06600000  0.23670000  1.0 -0.4117641822
O  O17  1  0.72260000  0.35810000  0.28110000  1.0 -0.3907787589
O  O18  1  0.27740000  0.64190000  0.71890000  1.0 -0.3907787589
O  O19  1  0.77740000  0.64190000  0.78110000  1.0 -0.3907787589
O  O20  1  0.22260000  0.35810000  0.21890000  1.0 -0.3907787589
O  O21  1  0.27740000  0.85810000  0.21890000  1.0 -0.3907787589
O  O22  1  0.72260000  0.14190000  0.78110000  1.0 -0.3907787589
O  O23  1  0.22260000  0.14190000  0.71890000  1.0 -0.3907787589
O  O24  1  0.77740000  0.85810000  0.28110000  1.0 -0.3907787589
O  O25  1  0.72100000  0.53900000  0.30050000  1.0 -0.3796243401
O  O26  1  0.27900000  0.46100000  0.69950000  1.0 -0.3796243401
O  O27  1  0.77900000  0.46100000  0.80050000  1.0 -0.3796243401
O  O28  1  0.22100000  0.53900000  0.19950000  1.0 -0.3796243401
O  O29  1  0.27900000  0.03900000  0.19950000  1.0 -0.3796243401
O  O30  1  0.72100000  0.96100000  0.80050000  1.0 -0.3796243401
O  O31  1  0.22100000  0.96100000  0.69950000  1.0 -0.3796243401
O  O32  1  0.77900000  0.03900000  0.30050000  1.0 -0.3796243401
O  O33  1  0.30360000  0.23840000  0.49120000  1.0 -0.4810089743
O  O34  1  0.69640000  0.76160000  0.50880000  1.0 -0.4746518409
O  O35  1  0.19640000  0.76160000  0.99120000  1.0 -0.4810089743
O  O36  1  0.80360000  0.23840000  0.00880000  1.0 -0.4746518409
O  O37  1  0.69640000  0.73840000  0.00880000  1.0 -0.4746518409
O  O38  1  0.30360000  0.26160000  0.99120000  1.0 -0.4810089743
O  O39  1  0.80360000  0.26160000  0.50880000  1.0 -0.4746518409
O  O40  1  0.19640000  0.73840000  0.49120000  1.0 -0.4746518409
O  O41  1  0.30660000  0.43340000  0.50750000  1.0 -0.5204029059
O  O42  1  0.69340000  0.56660000  0.49250000  1.0 -0.5204029059
O  O43  1  0.19340000  0.56660000  0.00750000  1.0 -0.5204029059
O  O44  1  0.80660000  0.43340000  0.99250000  1.0 -0.5204029059
O  O45  1  0.69340000  0.93340000  0.99250000  1.0 -0.5204029059
O  O46  1  0.30660000  0.06660000  0.00750000  1.0 -0.5204029059
O  O47  1  0.80660000  0.06660000  0.49250000  1.0 -0.5204029059
O  O48  1  0.19340000  0.93340000  0.50750000  1.0 -0.5204029059
O  O49  1  0.71740000  0.07070000  0.47370000  1.0 -0.4429940259
O  O50  1  0.28260000  0.92930000  0.52630000  1.0 -0.4429940259
O  O51  1  0.78260000  0.92930000  0.97370000  1.0 -0.4429940259
O  O52  1  0.21740000  0.07070000  0.02630000  1.0 -0.4429940259
O  O53  1  0.28260000  0.57070000  0.02630000  1.0 -0.4429940259
O  O54  1  0.71740000  0.42930000  0.97370000  1.0 -0.4429940259
O  O55  1  0.21740000  0.42930000  0.52630000  1.0 -0.4429940259
O  O56  1  0.78260000  0.57070000  0.47370000  1.0 -0.4429940259
O  O57  1  0.71820000  0.09940000  0.52950000  1.0 -0.4810089743
O  O58  1  0.28180000  0.90060000  0.47050000  1.0 -0.4810089743
O  O59  1  0.78180000  0.90060000  0.02950000  1.0 -0.4810089743
O  O60  1  0.21820000  0.09940000  0.97050000  1.0 -0.4810089743
O  O61  1  0.28180000  0.59940000  0.97050000  1.0 -0.4810089743
O  O62  1  0.71820000  0.40060000  0.02950000  1.0 -0.4810089743
O  O63  1  0.21820000  0.40060000  0.47050000  1.0 -0.4810089743
O  O64  1  0.78180000  0.59940000  0.52950000  1.0 -0.4810089743
O  O65  1  0.27970000  0.52650000  0.14630000  1.0 -0.5111491693
O  O66  1  0.72030000  0.47350000  0.85370000  1.0 -0.5111491693
O  O67  1  0.22030000  0.47350000  0.64630000  1.0 -0.5111491693
O  O68  1  0.77970000  0.52650000  0.35370000  1.0 -0.5111491693
O  O69  1  0.72030000  0.02650000  0.35370000  1.0 -0.5111491693
O  O70  1  0.27970000  0.97350000  0.64630000  1.0 -0.5111491693
O  O71  1  0.77970000  0.97350000  0.85370000  1.0 -0.5111491693
O  O72  1  0.22030000  0.02650000  0.14630000  1.0 -0.5111491693
O  O73  1  0.29950000  0.71170000  0.13790000  1.0 -0.4344447566
O  O74  1  0.70050000  0.28830000  0.86210000  1.0 -0.4344447566
O  O75  1  0.20050000  0.28830000  0.63790000  1.0 -0.4344447566
O  O76  1  0.79950000  0.71170000  0.36210000  1.0 -0.4344447566
O  O77  1  0.70050000  0.21170000  0.36210000  1.0 -0.4344447566
O  O78  1  0.29950000  0.78830000  0.63790000  1.0 -0.4344447566
O  O79  1  0.79950000  0.78830000  0.86210000  1.0 -0.4344447566
O  O80  1  0.20050000  0.21170000  0.13790000  1.0 -0.4344447566
O  O81  1  0.43167000  0.65720000  0.16110000  1.0 -0.1817965223
O  O82  1  0.56833000  0.34280000  0.83890000  1.0 -0.1817965223
O  O83  1  0.06833000  0.34280000  0.66110000  1.0 -0.1817965223
O  O84  1  0.93167000  0.65720000  0.33890000  1.0 -0.1817965223
O  O85  1  0.56833000  0.15720000  0.33890000  1.0 -0.1817965223
O  O86  1  0.43167000  0.84280000  0.66110000  1.0 -0.1817965223
O  O87  1  0.93167000  0.84280000  0.83890000  1.0 -0.1817965223
O  O88  1  0.06833000  0.15720000  0.16110000  1.0 -0.1817965223
O  O89  1  0.52750000  0.67670000  0.16530000  1.0 -0.0804315002
O  O90  1  0.47250000  0.32330000  0.83470000  1.0 -0.0804315002
O  O91  1  0.97250000  0.32330000  0.66530000  1.0 -0.0804315002
O  O92  1  0.02750000  0.67670000  0.33470000  1.0 -0.0804315002
O  O93  1  0.47250000  0.17670000  0.33470000  1.0 -0.0804315002
O  O94  1  0.52750000  0.82330000  0.66530000  1.0 -0.0804315002
O  O95  1  0.02750000  0.82330000  0.83470000  1.0 -0.0804315002
O  O96  1  0.97250000  0.17670000  0.16530000  1.0 -0.0804315002
O  O97  1  0.59530000  0.55060000  0.16930000  1.0 -0.0804315002
O  O98  1  0.40470000  0.44940000  0.83070000  1.0 -0.0804315002
O  O99  1  0.90470000  0.44940000  0.66930000  1.0 -0.0804315002
O  O100  1  0.09530000  0.55060000  0.33070000  1.0 -0.0804315002
O  O101  1  0.40470000  0.05060000  0.33070000  1.0 -0.0804315002
O  O102  1  0.59530000  0.94940000  0.66930000  1.0 -0.0804315002
O  O103  1  0.09530000  0.94940000  0.83070000  1.0 -0.0804315002
O  O104  1  0.90470000  0.05060000  0.16930000  1.0 -0.0804315002
O  O105  1  0.61390000  0.30470000  0.16090000  1.0 -0.2431619171
O  O106  1  0.38610000  0.69530000  0.83910000  1.0 -0.2431619171
O  O107  1  0.88610000  0.69530000  0.66090000  1.0 -0.2431619171
O  O108  1  0.11390000  0.30470000  0.33910000  1.0 -0.2431619171
O  O109  1  0.38610000  0.80470000  0.33910000  1.0 -0.2431619171
O  O110  1  0.61390000  0.19530000  0.66090000  1.0 -0.2431619171
O  O111  1  0.11390000  0.19530000  0.83910000  1.0 -0.2431619171
O  O112  1  0.88610000  0.80470000  0.16090000  1.0 -0.2431619171
O  O113  1  0.72130000  0.15400000  0.08730000  1.0 -0.5111491693
O  O114  1  0.27870000  0.84600000  0.91270000  1.0 -0.5111491693
O  O115  1  0.77870000  0.84600000  0.58730000  1.0 -0.5111491693
O  O116  1  0.22130000  0.15400000  0.41270000  1.0 -0.5111491693
O  O117  1  0.27870000  0.65400000  0.41270000  1.0 -0.5111491693
O  O118  1  0.72130000  0.34600000  0.58730000  1.0 -0.5111491693
O  O119  1  0.22130000  0.34600000  0.91270000  1.0 -0.5111491693
O  O120  1  0.77870000  0.65400000  0.08730000  1.0 -0.5111491693
O  O121  1  0.70250000  0.96400000  0.06780000  1.0 -0.5306516116
O  O122  1  0.29750000  0.03600000  0.93220000  1.0 -0.5306516116
O  O123  1  0.79750000  0.03600000  0.56780000  1.0 -0.5306516116
O  O124  1  0.20250000  0.96400000  0.43220000  1.0 -0.5306516116
O  O125  1  0.29750000  0.46400000  0.43220000  1.0 -0.5306516116
O  O126  1  0.70250000  0.53600000  0.56780000  1.0 -0.5306516116
O  O127  1  0.20250000  0.53600000  0.93220000  1.0 -0.5306516116
O  O128  1  0.79750000  0.46400000  0.06780000  1.0 -0.5306516116
O  O129  1  0.57450000  0.94640000  0.09440000  1.0 -0.1989977392
O  O130  1  0.42550000  0.05360000  0.90560000  1.0 -0.1989977392
O  O131  1  0.92550000  0.05360000  0.59440000  1.0 -0.1989977392
O  O132  1  0.07450000  0.94640000  0.40560000  1.0 -0.1989977392
O  O133  1  0.42550000  0.44640000  0.40560000  1.0 -0.1989977392
O  O134  1  0.57450000  0.55360000  0.59440000  1.0 -0.1989977392
O  O135  1  0.07450000  0.55360000  0.90560000  1.0 -0.1989977392
O  O136  1  0.92550000  0.44640000  0.09440000  1.0 -0.1989977392
O  O137  1  0.48030000  0.93150000  0.10440000  1.0 -0.1690107134
O  O138  1  0.51970000  0.06850000  0.89560000  1.0 -0.1817965223
O  O139  1  0.01970000  0.06850000  0.60440000  1.0 -0.1690107134
O  O140  1  0.98030000  0.93150000  0.39560000  1.0 -0.1817965223
O  O141  1  0.51970000  0.43150000  0.39560000  1.0 -0.1690107134
O  O142  1  0.48030000  0.56850000  0.60440000  1.0 -0.1817965223
O  O143  1  0.98030000  0.56850000  0.89560000  1.0 -0.1817965223
O  O144  1  0.01970000  0.43150000  0.10440000  1.0 -0.1690107134
O  O145  1  0.40750000  0.02300000  0.12260000  1.0 -0.1690107134
O  O146  1  0.59250000  0.97700000  0.87740000  1.0 -0.1690107134
O  O147  1  0.09250000  0.97700000  0.62260000  1.0 -0.1690107134
O  O148  1  0.90750000  0.02300000  0.37740000  1.0 -0.1690107134
O  O149  1  0.59250000  0.52300000  0.37740000  1.0 -0.1690107134
O  O150  1  0.40750000  0.47700000  0.62260000  1.0 -0.1690107134
O  O151  1  0.90750000  0.47700000  0.87740000  1.0 -0.1690107134
O  O152  1  0.09250000  0.52300000  0.12260000  1.0 -0.1690107134
O  O153  1  0.38790000  0.24340000  0.13660000  1.0 -0.2171817472
O  O154  1  0.61210000  0.75660000  0.86340000  1.0 -0.2171817472
O  O155  1  0.11210000  0.75660000  0.63660000  1.0 -0.2171817472
O  O156  1  0.88790000  0.24340000  0.36340000  1.0 -0.2171817472
O  O157  1  0.61210000  0.74340000  0.36340000  1.0 -0.2171817472
O  O158  1  0.38790000  0.25660000  0.63660000  1.0 -0.2171817472
O  O159  1  0.88790000  0.25660000  0.86340000  1.0 -0.2171817472
O  O160  1  0.11210000  0.74340000  0.13660000  1.0 -0.2171817472
