# DDEC6 charges by PACMAN v1.1 (https://github.com/mtap-research/PACMAN-charge/)
data_IRUVUO_ion_pacman
_symmetry_space_group_name_H-M   'P 1'
_cell_length_a   10.73300000
_cell_length_b   37.27000000
_cell_length_c   38.17100000
_cell_angle_alpha   90.00000000
_cell_angle_beta   90.00000000
_cell_angle_gamma   90.00000000
_symmetry_Int_Tables_number   1
_chemical_formula_structural   Zn3H94C89(N3O14)2
_chemical_formula_sum   'Zn24 H752 C712 N48 O224'
_cell_volume   15269.12181361
_cell_formula_units_Z   8
loop_
 _symmetry_equiv_pos_site_id
 _symmetry_equiv_pos_as_xyz
  1  'x, y, z'
loop_
 _atom_site_type_symbol
 _atom_site_label
 _atom_site_symmetry_multiplicity
 _atom_site_fract_x
 _atom_site_fract_y
 _atom_site_fract_z
 _atom_site_occupancy
 _atom_site_charge
Zn  Zn1  1  0.58696000  0.73017000  0.18688000  1.0 0.7789570694
Zn  Zn2  1  0.41304000  0.76983000  0.68688000  1.0 0.7789570694
Zn  Zn3  1  0.08696000  0.26983000  0.31312000  1.0 0.7789570694
Zn  Zn4  1  0.91304000  0.23017000  0.81312000  1.0 0.7789570694
Zn  Zn5  1  0.41304000  0.26983000  0.81312000  1.0 0.7789570694
Zn  Zn6  1  0.58696000  0.23017000  0.31312000  1.0 0.7789570694
Zn  Zn7  1  0.91304000  0.73017000  0.68688000  1.0 0.7789570694
Zn  Zn8  1  0.08696000  0.76983000  0.18688000  1.0 0.7789570694
Zn  Zn9  1  0.96900000  0.23406000  0.52370000  1.0 0.6263306593
Zn  Zn10  1  0.03100000  0.26594000  0.02370000  1.0 0.6263306593
Zn  Zn11  1  0.46900000  0.76594000  0.97630000  1.0 0.6263306593
Zn  Zn12  1  0.53100000  0.73406000  0.47630000  1.0 0.6263306593
Zn  Zn13  1  0.03100000  0.76594000  0.47630000  1.0 0.6263306593
Zn  Zn14  1  0.96900000  0.73406000  0.97630000  1.0 0.6263306593
Zn  Zn15  1  0.53100000  0.23406000  0.02370000  1.0 0.6263306593
Zn  Zn16  1  0.46900000  0.26594000  0.52370000  1.0 0.6263306593
Zn  Zn17  1  0.81820000  0.24750000  0.54290000  1.0 0.4249315714
Zn  Zn18  1  0.18180000  0.25250000  0.04290000  1.0 0.4249315714
Zn  Zn19  1  0.31820000  0.75250000  0.95710000  1.0 0.4285281157
Zn  Zn20  1  0.68180000  0.74750000  0.45710000  1.0 0.4249315714
Zn  Zn21  1  0.18180000  0.75250000  0.45710000  1.0 0.4249315714
Zn  Zn22  1  0.81820000  0.74750000  0.95710000  1.0 0.4285281157
Zn  Zn23  1  0.68180000  0.24750000  0.04290000  1.0 0.4249315714
Zn  Zn24  1  0.31820000  0.25250000  0.54290000  1.0 0.4249315714
H  H1  1  0.80780000  0.72080000  0.17420000  1.0 0.3690119391
H  H2  1  0.19220000  0.77920000  0.67420000  1.0 0.3690119391
H  H3  1  0.30780000  0.27920000  0.32580000  1.0 0.3690119391
H  H4  1  0.69220000  0.22080000  0.82580000  1.0 0.3690119391
H  H5  1  0.19220000  0.27920000  0.82580000  1.0 0.3690119391
H  H6  1  0.80780000  0.22080000  0.32580000  1.0 0.3690119391
H  H7  1  0.69220000  0.72080000  0.67420000  1.0 0.3690119391
H  H8  1  0.30780000  0.77920000  0.17420000  1.0 0.3690119391
H  H9  1  0.74380000  0.72140000  0.14090000  1.0 0.3399755215
H  H10  1  0.25620000  0.77860000  0.64090000  1.0 0.3399755215
H  H11  1  0.24380000  0.27860000  0.35910000  1.0 0.3399755215
H  H12  1  0.75620000  0.22140000  0.85910000  1.0 0.3399755215
H  H13  1  0.25620000  0.27860000  0.85910000  1.0 0.3399755215
H  H14  1  0.74380000  0.22140000  0.35910000  1.0 0.3399755215
H  H15  1  0.75620000  0.72140000  0.64090000  1.0 0.3399755215
H  H16  1  0.24380000  0.77860000  0.14090000  1.0 0.3399755215
H  H17  1  0.35020000  0.54470000  0.31420000  1.0 0.2319157784
H  H18  1  0.64980000  0.95530000  0.81420000  1.0 0.2319157784
H  H19  1  0.85020000  0.45530000  0.18580000  1.0 0.2319157784
H  H20  1  0.14980000  0.04470000  0.68580000  1.0 0.2319157784
H  H21  1  0.64980000  0.45530000  0.68580000  1.0 0.2319157784
H  H22  1  0.35020000  0.04470000  0.18580000  1.0 0.2319157784
H  H23  1  0.14980000  0.54470000  0.81420000  1.0 0.2319157784
H  H24  1  0.85020000  0.95530000  0.31420000  1.0 0.2319157784
H  H25  1  0.90980000  0.54700000  0.44810000  1.0 0.2990798508
H  H26  1  0.09020000  0.95300000  0.94810000  1.0 0.2990798508
H  H27  1  0.40980000  0.45300000  0.05190000  1.0 0.2990798508
H  H28  1  0.59020000  0.04700000  0.55190000  1.0 0.2990798508
H  H29  1  0.09020000  0.45300000  0.55190000  1.0 0.2990798508
H  H30  1  0.90980000  0.04700000  0.05190000  1.0 0.2990798508
H  H31  1  0.59020000  0.54700000  0.94810000  1.0 0.2990798508
H  H32  1  0.40980000  0.95300000  0.44810000  1.0 0.2990798508
H  H33  1  0.36360000  0.57480000  0.28080000  1.0 0.0999456127
H  H34  1  0.63640000  0.92520000  0.78080000  1.0 0.0999456127
H  H35  1  0.86360000  0.42520000  0.21920000  1.0 0.0999456127
H  H36  1  0.13640000  0.07480000  0.71920000  1.0 0.0999456127
H  H37  1  0.63640000  0.42520000  0.71920000  1.0 0.0999456127
H  H38  1  0.36360000  0.07480000  0.21920000  1.0 0.0999456127
H  H39  1  0.13640000  0.57480000  0.78080000  1.0 0.0999456127
H  H40  1  0.86360000  0.92520000  0.28080000  1.0 0.0999456127
H  H41  1  0.36200000  0.63660000  0.26960000  1.0 0.0999456127
H  H42  1  0.63800000  0.86340000  0.76960000  1.0 0.0999456127
H  H43  1  0.86200000  0.36340000  0.23040000  1.0 0.0999456127
H  H44  1  0.13800000  0.13660000  0.73040000  1.0 0.0999456127
H  H45  1  0.63800000  0.36340000  0.73040000  1.0 0.0999456127
H  H46  1  0.36200000  0.13660000  0.23040000  1.0 0.0999456127
H  H47  1  0.13800000  0.63660000  0.76960000  1.0 0.0999456127
H  H48  1  0.86200000  0.86340000  0.26960000  1.0 0.0999456127
H  H49  1  0.70110000  0.62860000  0.22360000  1.0 0.0805009463
H  H50  1  0.29890000  0.87140000  0.72360000  1.0 0.0805009463
H  H51  1  0.20110000  0.37140000  0.27640000  1.0 0.0805009463
H  H52  1  0.79890000  0.12860000  0.77640000  1.0 0.0805009463
H  H53  1  0.29890000  0.37140000  0.77640000  1.0 0.0805009463
H  H54  1  0.70110000  0.12860000  0.27640000  1.0 0.0805009463
H  H55  1  0.79890000  0.62860000  0.72360000  1.0 0.0805009463
H  H56  1  0.20110000  0.87140000  0.22360000  1.0 0.0805009463
H  H57  1  0.70270000  0.56690000  0.23470000  1.0 0.0917562852
H  H58  1  0.29730000  0.93310000  0.73470000  1.0 0.0917562852
H  H59  1  0.20270000  0.43310000  0.26530000  1.0 0.0917562852
H  H60  1  0.79730000  0.06690000  0.76530000  1.0 0.0917562852
H  H61  1  0.29730000  0.43310000  0.76530000  1.0 0.0917562852
H  H62  1  0.70270000  0.06690000  0.26530000  1.0 0.0917562852
H  H63  1  0.79730000  0.56690000  0.73470000  1.0 0.0917562852
H  H64  1  0.20270000  0.93310000  0.23470000  1.0 0.0917562852
H  H65  1  0.66180000  0.45130000  0.23410000  1.0 0.1106680979
H  H66  1  0.33820000  0.04870000  0.73410000  1.0 0.1106680979
H  H67  1  0.16180000  0.54870000  0.26590000  1.0 0.1106680979
H  H68  1  0.83820000  0.95130000  0.76590000  1.0 0.1106680979
H  H69  1  0.33820000  0.54870000  0.76590000  1.0 0.1106680979
H  H70  1  0.66180000  0.95130000  0.26590000  1.0 0.1106680979
H  H71  1  0.83820000  0.45130000  0.73410000  1.0 0.1106680979
H  H72  1  0.16180000  0.04870000  0.23410000  1.0 0.1106680979
H  H73  1  0.65740000  0.51410000  0.22720000  1.0 0.0999456127
H  H74  1  0.34260000  0.98590000  0.72720000  1.0 0.0999456127
H  H75  1  0.15740000  0.48590000  0.27280000  1.0 0.0999456127
H  H76  1  0.84260000  0.01410000  0.77280000  1.0 0.0999456127
H  H77  1  0.34260000  0.48590000  0.77280000  1.0 0.0999456127
H  H78  1  0.65740000  0.01410000  0.27280000  1.0 0.0999456127
H  H79  1  0.84260000  0.51410000  0.72720000  1.0 0.0999456127
H  H80  1  0.15740000  0.98590000  0.22720000  1.0 0.0999456127
H  H81  1  0.35420000  0.40160000  0.28580000  1.0 0.0999456127
H  H82  1  0.64580000  0.09840000  0.78580000  1.0 0.0999456127
H  H83  1  0.85420000  0.59840000  0.21420000  1.0 0.0999456127
H  H84  1  0.14580000  0.90160000  0.71420000  1.0 0.0999456127
H  H85  1  0.64580000  0.59840000  0.71420000  1.0 0.0999456127
H  H86  1  0.35420000  0.90160000  0.21420000  1.0 0.0999456127
H  H87  1  0.14580000  0.40160000  0.78580000  1.0 0.0999456127
H  H88  1  0.85420000  0.09840000  0.28580000  1.0 0.0999456127
H  H89  1  0.36250000  0.33900000  0.29170000  1.0 0.0999456127
H  H90  1  0.63750000  0.16100000  0.79170000  1.0 0.0999456127
H  H91  1  0.86250000  0.66100000  0.20830000  1.0 0.0999456127
H  H92  1  0.13750000  0.83900000  0.70830000  1.0 0.0999456127
H  H93  1  0.63750000  0.66100000  0.70830000  1.0 0.0999456127
H  H94  1  0.36250000  0.83900000  0.20830000  1.0 0.0999456127
H  H95  1  0.13750000  0.33900000  0.79170000  1.0 0.0999456127
H  H96  1  0.86250000  0.16100000  0.29170000  1.0 0.0999456127
H  H97  1  0.73270000  0.33880000  0.27990000  1.0 0.1106680979
H  H98  1  0.26730000  0.16120000  0.77990000  1.0 0.1106680979
H  H99  1  0.23270000  0.66120000  0.22010000  1.0 0.1106680979
H  H100  1  0.76730000  0.83880000  0.72010000  1.0 0.1106680979
H  H101  1  0.26730000  0.66120000  0.72010000  1.0 0.1106680979
H  H102  1  0.73270000  0.83880000  0.22010000  1.0 0.1106680979
H  H103  1  0.76730000  0.33880000  0.77990000  1.0 0.1106680979
H  H104  1  0.23270000  0.16120000  0.27990000  1.0 0.1106680979
H  H105  1  0.72970000  0.40250000  0.26930000  1.0 0.0999456127
H  H106  1  0.27030000  0.09750000  0.76930000  1.0 0.0999456127
H  H107  1  0.22970000  0.59750000  0.23070000  1.0 0.0999456127
H  H108  1  0.77030000  0.90250000  0.73070000  1.0 0.0999456127
H  H109  1  0.27030000  0.59750000  0.73070000  1.0 0.0999456127
H  H110  1  0.72970000  0.90250000  0.23070000  1.0 0.0999456127
H  H111  1  0.77030000  0.40250000  0.76930000  1.0 0.0999456127
H  H112  1  0.22970000  0.09750000  0.26930000  1.0 0.0999456127
H  H113  1  0.15910000  0.54170000  0.34540000  1.0 0.1193473253
H  H114  1  0.84090000  0.95830000  0.84540000  1.0 0.1193473253
H  H115  1  0.65910000  0.45830000  0.15460000  1.0 0.1193473253
H  H116  1  0.34090000  0.04170000  0.65460000  1.0 0.1193473253
H  H117  1  0.84090000  0.45830000  0.65460000  1.0 0.1193473253
H  H118  1  0.15910000  0.04170000  0.15460000  1.0 0.1193473253
H  H119  1  0.34090000  0.54170000  0.84540000  1.0 0.1193473253
H  H120  1  0.65910000  0.95830000  0.34540000  1.0 0.1193473253
H  H121  1  0.01670000  0.54610000  0.39060000  1.0 0.1106680979
H  H122  1  0.98330000  0.95390000  0.89060000  1.0 0.1106680979
H  H123  1  0.51670000  0.45390000  0.10940000  1.0 0.1106680979
H  H124  1  0.48330000  0.04610000  0.60940000  1.0 0.1106680979
H  H125  1  0.98330000  0.45390000  0.60940000  1.0 0.1106680979
H  H126  1  0.01670000  0.04610000  0.10940000  1.0 0.1106680979
H  H127  1  0.48330000  0.54610000  0.89060000  1.0 0.1106680979
H  H128  1  0.51670000  0.95390000  0.39060000  1.0 0.1106680979
H  H129  1  0.16330000  0.45550000  0.43240000  1.0 0.1106680979
H  H130  1  0.83670000  0.04450000  0.93240000  1.0 0.1106680979
H  H131  1  0.66330000  0.54450000  0.06760000  1.0 0.1106680979
H  H132  1  0.33670000  0.95550000  0.56760000  1.0 0.1106680979
H  H133  1  0.83670000  0.54450000  0.56760000  1.0 0.1106680979
H  H134  1  0.16330000  0.95550000  0.06760000  1.0 0.1106680979
H  H135  1  0.33670000  0.45550000  0.93240000  1.0 0.1106680979
H  H136  1  0.66330000  0.04450000  0.43240000  1.0 0.1106680979
H  H137  1  0.30950000  0.45380000  0.38730000  1.0 0.1106680979
H  H138  1  0.69050000  0.04620000  0.88730000  1.0 0.1106680979
H  H139  1  0.80950000  0.54620000  0.11270000  1.0 0.1106680979
H  H140  1  0.19050000  0.95380000  0.61270000  1.0 0.1106680979
H  H141  1  0.69050000  0.54620000  0.61270000  1.0 0.1106680979
H  H142  1  0.30950000  0.95380000  0.11270000  1.0 0.1106680979
H  H143  1  0.19050000  0.45380000  0.88730000  1.0 0.1106680979
H  H144  1  0.80950000  0.04620000  0.38730000  1.0 0.1106680979
H  H145  1  0.50120000  0.62680000  0.50570000  1.0 0.1106680979
H  H146  1  0.49880000  0.87320000  0.00570000  1.0 0.1106680979
H  H147  1  0.00120000  0.37320000  0.99430000  1.0 0.1106680979
H  H148  1  0.99880000  0.12680000  0.49430000  1.0 0.1106680979
H  H149  1  0.49880000  0.37320000  0.49430000  1.0 0.1106680979
H  H150  1  0.50120000  0.12680000  0.99430000  1.0 0.1106680979
H  H151  1  0.99880000  0.62680000  0.00570000  1.0 0.1106680979
H  H152  1  0.00120000  0.87320000  0.50570000  1.0 0.1106680979
H  H153  1  0.52360000  0.56620000  0.50160000  1.0 0.1106680979
H  H154  1  0.47640000  0.93380000  0.00160000  1.0 0.1106680979
H  H155  1  0.02360000  0.43380000  0.99840000  1.0 0.1106680979
H  H156  1  0.97640000  0.06620000  0.49840000  1.0 0.1106680979
H  H157  1  0.47640000  0.43380000  0.49840000  1.0 0.1106680979
H  H158  1  0.52360000  0.06620000  0.99840000  1.0 0.1106680979
H  H159  1  0.97640000  0.56620000  0.00160000  1.0 0.1106680979
H  H160  1  0.02360000  0.93380000  0.50160000  1.0 0.1106680979
H  H161  1  0.89550000  0.57960000  0.50400000  1.0 0.1193473253
H  H162  1  0.10450000  0.92040000  0.00400000  1.0 0.1193473253
H  H163  1  0.39550000  0.42040000  0.99600000  1.0 0.1193473253
H  H164  1  0.60450000  0.07960000  0.49600000  1.0 0.1193473253
H  H165  1  0.10450000  0.42040000  0.49600000  1.0 0.1193473253
H  H166  1  0.89550000  0.07960000  0.99600000  1.0 0.1193473253
H  H167  1  0.60450000  0.57960000  0.00400000  1.0 0.1193473253
H  H168  1  0.39550000  0.92040000  0.50400000  1.0 0.1193473253
H  H169  1  0.86830000  0.64000000  0.50610000  1.0 0.1106680979
H  H170  1  0.13170000  0.86000000  0.00610000  1.0 0.1106680979
H  H171  1  0.36830000  0.36000000  0.99390000  1.0 0.1106680979
H  H172  1  0.63170000  0.14000000  0.49390000  1.0 0.1106680979
H  H173  1  0.13170000  0.36000000  0.49390000  1.0 0.1106680979
H  H174  1  0.86830000  0.14000000  0.99390000  1.0 0.1106680979
H  H175  1  0.63170000  0.64000000  0.00610000  1.0 0.1106680979
H  H176  1  0.36830000  0.86000000  0.50610000  1.0 0.1106680979
H  H177  1  0.60020000  0.51110000  0.53590000  1.0 0.1193473253
H  H178  1  0.39980000  0.98890000  0.03590000  1.0 0.1193473253
H  H179  1  0.10020000  0.48890000  0.96410000  1.0 0.1193473253
H  H180  1  0.89980000  0.01110000  0.46410000  1.0 0.1193473253
H  H181  1  0.39980000  0.48890000  0.46410000  1.0 0.1193473253
H  H182  1  0.60020000  0.01110000  0.96410000  1.0 0.1193473253
H  H183  1  0.89980000  0.51110000  0.03590000  1.0 0.1193473253
H  H184  1  0.10020000  0.98890000  0.53590000  1.0 0.1193473253
H  H185  1  0.64280000  0.45120000  0.53700000  1.0 0.1106680979
H  H186  1  0.35720000  0.04880000  0.03700000  1.0 0.1106680979
H  H187  1  0.14280000  0.54880000  0.96300000  1.0 0.1106680979
H  H188  1  0.85720000  0.95120000  0.46300000  1.0 0.1106680979
H  H189  1  0.35720000  0.54880000  0.46300000  1.0 0.1106680979
H  H190  1  0.64280000  0.95120000  0.96300000  1.0 0.1106680979
H  H191  1  0.85720000  0.45120000  0.03700000  1.0 0.1106680979
H  H192  1  0.14280000  0.04880000  0.53700000  1.0 0.1106680979
H  H193  1  0.77950000  0.40260000  0.55420000  1.0 0.1193473253
H  H194  1  0.22050000  0.09740000  0.05420000  1.0 0.1193473253
H  H195  1  0.27950000  0.59740000  0.94580000  1.0 0.1193473253
H  H196  1  0.72050000  0.90260000  0.44580000  1.0 0.1193473253
H  H197  1  0.22050000  0.59740000  0.44580000  1.0 0.1193473253
H  H198  1  0.77950000  0.90260000  0.94580000  1.0 0.1193473253
H  H199  1  0.72050000  0.40260000  0.05420000  1.0 0.1193473253
H  H200  1  0.27950000  0.09740000  0.55420000  1.0 0.1193473253
H  H201  1  0.81320000  0.33850000  0.55110000  1.0 0.0999456127
H  H202  1  0.18680000  0.16150000  0.05110000  1.0 0.0999456127
H  H203  1  0.31320000  0.66150000  0.94890000  1.0 0.0999456127
H  H204  1  0.68680000  0.83850000  0.44890000  1.0 0.0999456127
H  H205  1  0.18680000  0.66150000  0.44890000  1.0 0.0999456127
H  H206  1  0.81320000  0.83850000  0.94890000  1.0 0.0999456127
H  H207  1  0.68680000  0.33850000  0.05110000  1.0 0.0999456127
H  H208  1  0.31320000  0.16150000  0.55110000  1.0 0.0999456127
H  H209  1  0.90240000  0.34660000  0.44980000  1.0 0.1193473253
H  H210  1  0.09760000  0.15340000  0.94980000  1.0 0.1193473253
H  H211  1  0.40240000  0.65340000  0.05020000  1.0 0.1193473253
H  H212  1  0.59760000  0.84660000  0.55020000  1.0 0.1193473253
H  H213  1  0.09760000  0.65340000  0.55020000  1.0 0.1193473253
H  H214  1  0.90240000  0.84660000  0.05020000  1.0 0.1193473253
H  H215  1  0.59760000  0.34660000  0.94980000  1.0 0.1193473253
H  H216  1  0.40240000  0.15340000  0.44980000  1.0 0.1193473253
H  H217  1  0.84640000  0.40660000  0.44940000  1.0 0.1106680979
H  H218  1  0.15360000  0.09340000  0.94940000  1.0 0.1106680979
H  H219  1  0.34640000  0.59340000  0.05060000  1.0 0.1106680979
H  H220  1  0.65360000  0.90660000  0.55060000  1.0 0.1106680979
H  H221  1  0.15360000  0.59340000  0.55060000  1.0 0.1106680979
H  H222  1  0.84640000  0.90660000  0.05060000  1.0 0.1106680979
H  H223  1  0.65360000  0.40660000  0.94940000  1.0 0.1106680979
H  H224  1  0.34640000  0.09340000  0.44940000  1.0 0.1106680979
H  H225  1  0.28710000  0.63340000  0.15630000  1.0 0.1297659978
H  H226  1  0.71290000  0.86660000  0.65630000  1.0 0.1297659978
H  H227  1  0.78710000  0.36660000  0.34370000  1.0 0.1297659978
H  H228  1  0.21290000  0.13340000  0.84370000  1.0 0.1297659978
H  H229  1  0.71290000  0.36660000  0.84370000  1.0 0.1297659978
H  H230  1  0.28710000  0.13340000  0.34370000  1.0 0.1297659978
H  H231  1  0.21290000  0.63340000  0.65630000  1.0 0.1297659978
H  H232  1  0.78710000  0.86660000  0.15630000  1.0 0.1297659978
H  H233  1  0.58170000  0.56640000  0.14390000  1.0 0.1490089069
H  H234  1  0.41830000  0.93360000  0.64390000  1.0 0.1490089069
H  H235  1  0.08170000  0.43360000  0.35610000  1.0 0.1490089069
H  H236  1  0.91830000  0.06640000  0.85610000  1.0 0.1490089069
H  H237  1  0.41830000  0.43360000  0.85610000  1.0 0.1490089069
H  H238  1  0.58170000  0.06640000  0.35610000  1.0 0.1490089069
H  H239  1  0.91830000  0.56640000  0.64390000  1.0 0.1490089069
H  H240  1  0.08170000  0.93360000  0.14390000  1.0 0.1490089069
H  H241  1  0.62860000  0.67280000  0.12940000  1.0 0.0999456127
H  H242  1  0.37140000  0.82720000  0.62940000  1.0 0.0999456127
H  H243  1  0.12860000  0.32720000  0.37060000  1.0 0.0999456127
H  H244  1  0.87140000  0.17280000  0.87060000  1.0 0.0999456127
H  H245  1  0.37140000  0.32720000  0.87060000  1.0 0.0999456127
H  H246  1  0.62860000  0.17280000  0.37060000  1.0 0.0999456127
H  H247  1  0.87140000  0.67280000  0.62940000  1.0 0.0999456127
H  H248  1  0.12860000  0.82720000  0.12940000  1.0 0.0999456127
H  H249  1  0.40980000  0.52680000  0.13440000  1.0 0.0999456127
H  H250  1  0.59020000  0.97320000  0.63440000  1.0 0.0999456127
H  H251  1  0.90980000  0.47320000  0.36560000  1.0 0.0999456127
H  H252  1  0.09020000  0.02680000  0.86560000  1.0 0.0999456127
H  H253  1  0.59020000  0.47320000  0.86560000  1.0 0.0999456127
H  H254  1  0.40980000  0.02680000  0.36560000  1.0 0.0999456127
H  H255  1  0.09020000  0.52680000  0.63440000  1.0 0.0999456127
H  H256  1  0.90980000  0.97320000  0.13440000  1.0 0.0999456127
H  H257  1  0.46470000  0.53020000  0.17340000  1.0 0.0917562852
H  H258  1  0.53530000  0.96980000  0.67340000  1.0 0.0917562852
H  H259  1  0.96470000  0.46980000  0.32660000  1.0 0.0917562852
H  H260  1  0.03530000  0.03020000  0.82660000  1.0 0.0917562852
H  H261  1  0.53530000  0.46980000  0.82660000  1.0 0.0917562852
H  H262  1  0.46470000  0.03020000  0.32660000  1.0 0.0917562852
H  H263  1  0.03530000  0.53020000  0.67340000  1.0 0.0917562852
H  H264  1  0.96470000  0.96980000  0.17340000  1.0 0.0917562852
H  H265  1  0.21260000  0.51300000  0.16020000  1.0 0.1106680979
H  H266  1  0.78740000  0.98700000  0.66020000  1.0 0.1106680979
H  H267  1  0.71260000  0.48700000  0.33980000  1.0 0.1106680979
H  H268  1  0.28740000  0.01300000  0.83980000  1.0 0.1106680979
H  H269  1  0.78740000  0.48700000  0.83980000  1.0 0.1106680979
H  H270  1  0.21260000  0.01300000  0.33980000  1.0 0.1106680979
H  H271  1  0.28740000  0.51300000  0.66020000  1.0 0.1106680979
H  H272  1  0.71260000  0.98700000  0.16020000  1.0 0.1106680979
H  H273  1  0.28190000  0.51080000  0.19730000  1.0 0.1106680979
H  H274  1  0.71810000  0.98920000  0.69730000  1.0 0.1106680979
H  H275  1  0.78190000  0.48920000  0.30270000  1.0 0.1106680979
H  H276  1  0.21810000  0.01080000  0.80270000  1.0 0.1106680979
H  H277  1  0.71810000  0.48920000  0.80270000  1.0 0.1106680979
H  H278  1  0.28190000  0.01080000  0.30270000  1.0 0.1106680979
H  H279  1  0.21810000  0.51080000  0.69730000  1.0 0.1106680979
H  H280  1  0.78190000  0.98920000  0.19730000  1.0 0.1106680979
H  H281  1  0.38170000  0.46040000  0.20740000  1.0 0.1106680979
H  H282  1  0.61830000  0.03960000  0.70740000  1.0 0.1106680979
H  H283  1  0.88170000  0.53960000  0.29260000  1.0 0.1106680979
H  H284  1  0.11830000  0.96040000  0.79260000  1.0 0.1106680979
H  H285  1  0.61830000  0.53960000  0.79260000  1.0 0.1106680979
H  H286  1  0.38170000  0.96040000  0.29260000  1.0 0.1106680979
H  H287  1  0.11830000  0.46040000  0.70740000  1.0 0.1106680979
H  H288  1  0.88170000  0.03960000  0.20740000  1.0 0.1106680979
H  H289  1  0.24010000  0.45160000  0.20020000  1.0 0.0917562852
H  H290  1  0.75990000  0.04840000  0.70020000  1.0 0.0917562852
H  H291  1  0.74010000  0.54840000  0.29980000  1.0 0.0917562852
H  H292  1  0.25990000  0.95160000  0.79980000  1.0 0.0917562852
H  H293  1  0.75990000  0.54840000  0.79980000  1.0 0.0917562852
H  H294  1  0.24010000  0.95160000  0.29980000  1.0 0.0917562852
H  H295  1  0.25990000  0.45160000  0.70020000  1.0 0.0917562852
H  H296  1  0.74010000  0.04840000  0.20020000  1.0 0.0917562852
H  H297  1  0.36680000  0.40770000  0.21400000  1.0 0.0094236376
H  H298  1  0.63320000  0.09230000  0.71400000  1.0 0.0094236376
H  H299  1  0.86680000  0.59230000  0.28600000  1.0 0.0094236376
H  H300  1  0.13320000  0.90770000  0.78600000  1.0 0.0094236376
H  H301  1  0.63320000  0.59230000  0.78600000  1.0 0.0094236376
H  H302  1  0.36680000  0.90770000  0.28600000  1.0 0.0094236376
H  H303  1  0.13320000  0.40770000  0.71400000  1.0 0.0094236376
H  H304  1  0.86680000  0.09230000  0.21400000  1.0 0.0094236376
H  H305  1  0.27550000  0.40220000  0.18150000  1.0 0.0999456127
H  H306  1  0.72450000  0.09780000  0.68150000  1.0 0.0917562852
H  H307  1  0.77550000  0.59780000  0.31850000  1.0 0.0999456127
H  H308  1  0.22450000  0.90220000  0.81850000  1.0 0.0999456127
H  H309  1  0.72450000  0.59780000  0.81850000  1.0 0.0999456127
H  H310  1  0.27550000  0.90220000  0.31850000  1.0 0.0999456127
H  H311  1  0.22450000  0.40220000  0.68150000  1.0 0.0917562852
H  H312  1  0.77550000  0.09780000  0.18150000  1.0 0.0999456127
H  H313  1  0.52010000  0.38370000  0.20610000  1.0 0.0805009463
H  H314  1  0.47990000  0.11630000  0.70610000  1.0 0.0805009463
H  H315  1  0.02010000  0.61630000  0.29390000  1.0 0.0805009463
H  H316  1  0.97990000  0.88370000  0.79390000  1.0 0.0805009463
H  H317  1  0.47990000  0.61630000  0.79390000  1.0 0.0805009463
H  H318  1  0.52010000  0.88370000  0.29390000  1.0 0.0805009463
H  H319  1  0.97990000  0.38370000  0.70610000  1.0 0.0805009463
H  H320  1  0.02010000  0.11630000  0.20610000  1.0 0.0805009463
H  H321  1  0.43100000  0.35940000  0.18290000  1.0 0.0999456127
H  H322  1  0.56900000  0.14060000  0.68290000  1.0 0.0999456127
H  H323  1  0.93100000  0.64060000  0.31710000  1.0 0.0999456127
H  H324  1  0.06900000  0.85940000  0.81710000  1.0 0.0999456127
H  H325  1  0.56900000  0.64060000  0.81710000  1.0 0.0999456127
H  H326  1  0.43100000  0.85940000  0.31710000  1.0 0.0999456127
H  H327  1  0.06900000  0.35940000  0.68290000  1.0 0.0999456127
H  H328  1  0.93100000  0.14060000  0.18290000  1.0 0.0999456127
H  H329  1  0.62290000  0.34310000  0.18370000  1.0 0.0999456127
H  H330  1  0.37710000  0.15690000  0.68370000  1.0 0.0999456127
H  H331  1  0.12290000  0.65690000  0.31630000  1.0 0.0999456127
H  H332  1  0.87710000  0.84310000  0.81630000  1.0 0.0999456127
H  H333  1  0.37710000  0.65690000  0.81630000  1.0 0.0999456127
H  H334  1  0.62290000  0.84310000  0.31630000  1.0 0.0999456127
H  H335  1  0.87710000  0.34310000  0.68370000  1.0 0.0999456127
H  H336  1  0.12290000  0.15690000  0.18370000  1.0 0.0999456127
H  H337  1  0.56850000  0.35080000  0.14550000  1.0 0.0999456127
H  H338  1  0.43150000  0.14920000  0.64550000  1.0 0.0999456127
H  H339  1  0.06850000  0.64920000  0.35450000  1.0 0.0999456127
H  H340  1  0.93150000  0.85080000  0.85450000  1.0 0.0999456127
H  H341  1  0.43150000  0.64920000  0.85450000  1.0 0.0999456127
H  H342  1  0.56850000  0.85080000  0.35450000  1.0 0.0999456127
H  H343  1  0.93150000  0.35080000  0.64550000  1.0 0.0999456127
H  H344  1  0.06850000  0.14920000  0.14550000  1.0 0.0999456127
H  H345  1  0.75150000  0.32560000  0.12700000  1.0 0.1297659978
H  H346  1  0.24850000  0.17440000  0.62700000  1.0 0.1297659978
H  H347  1  0.25150000  0.67440000  0.37300000  1.0 0.1297659978
H  H348  1  0.74850000  0.82560000  0.87300000  1.0 0.1297659978
H  H349  1  0.24850000  0.67440000  0.87300000  1.0 0.1297659978
H  H350  1  0.75150000  0.82560000  0.37300000  1.0 0.1297659978
H  H351  1  0.74850000  0.32560000  0.62700000  1.0 0.1297659978
H  H352  1  0.25150000  0.17440000  0.12700000  1.0 0.1297659978
H  H353  1  0.06140000  0.36150000  0.07490000  1.0 0.1375421737
H  H354  1  0.93860000  0.13850000  0.57490000  1.0 0.1375421737
H  H355  1  0.56140000  0.63850000  0.42510000  1.0 0.1375421737
H  H356  1  0.43860000  0.86150000  0.92510000  1.0 0.1375421737
H  H357  1  0.93860000  0.63850000  0.92510000  1.0 0.1375421737
H  H358  1  0.06140000  0.86150000  0.42510000  1.0 0.1375421737
H  H359  1  0.43860000  0.36150000  0.57490000  1.0 0.1375421737
H  H360  1  0.56140000  0.13850000  0.07490000  1.0 0.1375421737
H  H361  1  0.86820000  0.42620000  0.14070000  1.0 0.1193473253
H  H362  1  0.13180000  0.07380000  0.64070000  1.0 0.1193473253
H  H363  1  0.36820000  0.57380000  0.35930000  1.0 0.1193473253
H  H364  1  0.63180000  0.92620000  0.85930000  1.0 0.1193473253
H  H365  1  0.13180000  0.57380000  0.85930000  1.0 0.1193473253
H  H366  1  0.86820000  0.92620000  0.35930000  1.0 0.1193473253
H  H367  1  0.63180000  0.42620000  0.64070000  1.0 0.1193473253
H  H368  1  0.36820000  0.07380000  0.14070000  1.0 0.1193473253
H  H369  1  0.93160000  0.46450000  0.10150000  1.0 0.0999456127
H  H370  1  0.06840000  0.03550000  0.60150000  1.0 0.0999456127
H  H371  1  0.43160000  0.53550000  0.39850000  1.0 0.0999456127
H  H372  1  0.56840000  0.96450000  0.89850000  1.0 0.0999456127
H  H373  1  0.06840000  0.53550000  0.89850000  1.0 0.0999456127
H  H374  1  0.93160000  0.96450000  0.39850000  1.0 0.0999456127
H  H375  1  0.56840000  0.46450000  0.60150000  1.0 0.0999456127
H  H376  1  0.43160000  0.03550000  0.10150000  1.0 0.0999456127
H  H377  1  0.03180000  0.46080000  0.13250000  1.0 0.0917562852
H  H378  1  0.96820000  0.03920000  0.63250000  1.0 0.0917562852
H  H379  1  0.53180000  0.53920000  0.36750000  1.0 0.0917562852
H  H380  1  0.46820000  0.96080000  0.86750000  1.0 0.0917562852
H  H381  1  0.96820000  0.53920000  0.86750000  1.0 0.0917562852
H  H382  1  0.03180000  0.96080000  0.36750000  1.0 0.0917562852
H  H383  1  0.46820000  0.46080000  0.63250000  1.0 0.0917562852
H  H384  1  0.53180000  0.03920000  0.13250000  1.0 0.0917562852
H  H385  1  0.08500000  0.48680000  0.06380000  1.0 0.0917562852
H  H386  1  0.91500000  0.01320000  0.56380000  1.0 0.0917562852
H  H387  1  0.58500000  0.51320000  0.43620000  1.0 0.0917562852
H  H388  1  0.41500000  0.98680000  0.93620000  1.0 0.0917562852
H  H389  1  0.91500000  0.51320000  0.93620000  1.0 0.0917562852
H  H390  1  0.08500000  0.98680000  0.43620000  1.0 0.0917562852
H  H391  1  0.41500000  0.48680000  0.56380000  1.0 0.0917562852
H  H392  1  0.58500000  0.01320000  0.06380000  1.0 0.0917562852
H  H393  1  0.18960000  0.48110000  0.09350000  1.0 0.0917562852
H  H394  1  0.81040000  0.01890000  0.59350000  1.0 0.0917562852
H  H395  1  0.68960000  0.51890000  0.40650000  1.0 0.0917562852
H  H396  1  0.31040000  0.98110000  0.90650000  1.0 0.0917562852
H  H397  1  0.81040000  0.51890000  0.90650000  1.0 0.0917562852
H  H398  1  0.18960000  0.98110000  0.40650000  1.0 0.0917562852
H  H399  1  0.31040000  0.48110000  0.59350000  1.0 0.0917562852
H  H400  1  0.68960000  0.01890000  0.09350000  1.0 0.0917562852
H  H401  1  0.21500000  0.54450000  0.08480000  1.0 0.0917562852
H  H402  1  0.78500000  0.95550000  0.58480000  1.0 0.0917562852
H  H403  1  0.71500000  0.45550000  0.41520000  1.0 0.0917562852
H  H404  1  0.28500000  0.04450000  0.91520000  1.0 0.0917562852
H  H405  1  0.78500000  0.45550000  0.91520000  1.0 0.0917562852
H  H406  1  0.21500000  0.04450000  0.41520000  1.0 0.0917562852
H  H407  1  0.28500000  0.54450000  0.58480000  1.0 0.0917562852
H  H408  1  0.71500000  0.95550000  0.08480000  1.0 0.0917562852
H  H409  1  0.08710000  0.55280000  0.06440000  1.0 0.0917562852
H  H410  1  0.91290000  0.94720000  0.56440000  1.0 0.0917562852
H  H411  1  0.58710000  0.44720000  0.43560000  1.0 0.0917562852
H  H412  1  0.41290000  0.05280000  0.93560000  1.0 0.0917562852
H  H413  1  0.91290000  0.44720000  0.93560000  1.0 0.0917562852
H  H414  1  0.08710000  0.05280000  0.43560000  1.0 0.0917562852
H  H415  1  0.41290000  0.55280000  0.56440000  1.0 0.0917562852
H  H416  1  0.58710000  0.94720000  0.06440000  1.0 0.0917562852
H  H417  1  0.13840000  0.60340000  0.09950000  1.0 0.1106680979
H  H418  1  0.86160000  0.89660000  0.59950000  1.0 0.1106680979
H  H419  1  0.63840000  0.39660000  0.40050000  1.0 0.1106680979
H  H420  1  0.36160000  0.10340000  0.90050000  1.0 0.1106680979
H  H421  1  0.86160000  0.39660000  0.90050000  1.0 0.1106680979
H  H422  1  0.13840000  0.10340000  0.40050000  1.0 0.1106680979
H  H423  1  0.36160000  0.60340000  0.59950000  1.0 0.1106680979
H  H424  1  0.63840000  0.89660000  0.09950000  1.0 0.1106680979
H  H425  1  0.15190000  0.57880000  0.13330000  1.0 0.0701827978
H  H426  1  0.84810000  0.92120000  0.63330000  1.0 0.0701827978
H  H427  1  0.65190000  0.42120000  0.36670000  1.0 0.0701827978
H  H428  1  0.34810000  0.07880000  0.86670000  1.0 0.0701827978
H  H429  1  0.84810000  0.42120000  0.86670000  1.0 0.0701827978
H  H430  1  0.15190000  0.07880000  0.36670000  1.0 0.0701827978
H  H431  1  0.34810000  0.57880000  0.63330000  1.0 0.0701827978
H  H432  1  0.65190000  0.92120000  0.13330000  1.0 0.0701827978
H  H433  1  0.98020000  0.63130000  0.08840000  1.0 0.0805009463
H  H434  1  0.01980000  0.86870000  0.58840000  1.0 0.0805009463
H  H435  1  0.48020000  0.36870000  0.41160000  1.0 0.0805009463
H  H436  1  0.51980000  0.13130000  0.91160000  1.0 0.0805009463
H  H437  1  0.01980000  0.36870000  0.91160000  1.0 0.0805009463
H  H438  1  0.98020000  0.13130000  0.41160000  1.0 0.0805009463
H  H439  1  0.51980000  0.63130000  0.58840000  1.0 0.0805009463
H  H440  1  0.48020000  0.86870000  0.08840000  1.0 0.0805009463
H  H441  1  0.88640000  0.59950000  0.07880000  1.0 0.1193473253
H  H442  1  0.11360000  0.90050000  0.57880000  1.0 0.1193473253
H  H443  1  0.38640000  0.40050000  0.42120000  1.0 0.1193473253
H  H444  1  0.61360000  0.09950000  0.92120000  1.0 0.1193473253
H  H445  1  0.11360000  0.40050000  0.92120000  1.0 0.1193473253
H  H446  1  0.88640000  0.09950000  0.42120000  1.0 0.1193473253
H  H447  1  0.61360000  0.59950000  0.57880000  1.0 0.1193473253
H  H448  1  0.38640000  0.90050000  0.07880000  1.0 0.1193473253
H  H449  1  0.83960000  0.64440000  0.13540000  1.0 0.0917562852
H  H450  1  0.16040000  0.85560000  0.63540000  1.0 0.0917562852
H  H451  1  0.33960000  0.35560000  0.36460000  1.0 0.0917562852
H  H452  1  0.66040000  0.14440000  0.86460000  1.0 0.0917562852
H  H453  1  0.16040000  0.35560000  0.86460000  1.0 0.0917562852
H  H454  1  0.83960000  0.14440000  0.36460000  1.0 0.0917562852
H  H455  1  0.66040000  0.64440000  0.63540000  1.0 0.0917562852
H  H456  1  0.33960000  0.85560000  0.13540000  1.0 0.0917562852
H  H457  1  0.79440000  0.65420000  0.09620000  1.0 0.0527921423
H  H458  1  0.20560000  0.84580000  0.59620000  1.0 0.0527921423
H  H459  1  0.29440000  0.34580000  0.40380000  1.0 0.0527921423
H  H460  1  0.70560000  0.15420000  0.90380000  1.0 0.0527921423
H  H461  1  0.20560000  0.34580000  0.90380000  1.0 0.0527921423
H  H462  1  0.79440000  0.15420000  0.40380000  1.0 0.0527921423
H  H463  1  0.70560000  0.65420000  0.59620000  1.0 0.0527921423
H  H464  1  0.29440000  0.84580000  0.09620000  1.0 0.0527921423
H  H465  1  0.18380000  0.22260000  0.50960000  1.0 0.1193473253
H  H466  1  0.81620000  0.27740000  0.00960000  1.0 0.1193473253
H  H467  1  0.68380000  0.77740000  0.99040000  1.0 0.1193473253
H  H468  1  0.31620000  0.72260000  0.49040000  1.0 0.1193473253
H  H469  1  0.81620000  0.77740000  0.49040000  1.0 0.1193473253
H  H470  1  0.18380000  0.72260000  0.99040000  1.0 0.1193473253
H  H471  1  0.31620000  0.22260000  0.00960000  1.0 0.1193473253
H  H472  1  0.68380000  0.27740000  0.50960000  1.0 0.1193473253
H  H473  1  0.18070000  0.25460000  0.52970000  1.0 0.0999456127
H  H474  1  0.81930000  0.24540000  0.02970000  1.0 0.0999456127
H  H475  1  0.68070000  0.74540000  0.97030000  1.0 0.0999456127
H  H476  1  0.31930000  0.75460000  0.47030000  1.0 0.0999456127
H  H477  1  0.81930000  0.74540000  0.47030000  1.0 0.0999456127
H  H478  1  0.18070000  0.75460000  0.97030000  1.0 0.0999456127
H  H479  1  0.31930000  0.25460000  0.02970000  1.0 0.0999456127
H  H480  1  0.68070000  0.24540000  0.52970000  1.0 0.0999456127
H  H481  1  0.66100000  0.27270000  0.49620000  1.0 0.1490089069
H  H482  1  0.33900000  0.22730000  0.99620000  1.0 0.1490089069
H  H483  1  0.16100000  0.72730000  0.00380000  1.0 0.1490089069
H  H484  1  0.83900000  0.77270000  0.50380000  1.0 0.1490089069
H  H485  1  0.33900000  0.72730000  0.50380000  1.0 0.1490089069
H  H486  1  0.66100000  0.77270000  0.00380000  1.0 0.1490089069
H  H487  1  0.83900000  0.27270000  0.99620000  1.0 0.1490089069
H  H488  1  0.16100000  0.22730000  0.49620000  1.0 0.1490089069
H  H489  1  0.62140000  0.23700000  0.50290000  1.0 0.1688838308
H  H490  1  0.37860000  0.26300000  0.00290000  1.0 0.1688838308
H  H491  1  0.12140000  0.76300000  0.99710000  1.0 0.1688838308
H  H492  1  0.87860000  0.73700000  0.49710000  1.0 0.1688838308
H  H493  1  0.37860000  0.76300000  0.49710000  1.0 0.1688838308
H  H494  1  0.62140000  0.73700000  0.99710000  1.0 0.1688838308
H  H495  1  0.87860000  0.23700000  0.00290000  1.0 0.1688838308
H  H496  1  0.12140000  0.26300000  0.50290000  1.0 0.1688838308
H  H497  1  0.45810000  0.57920000  0.30600000  1.0 0.0917562852
H  H498  1  0.54190000  0.92080000  0.80600000  1.0 0.0917562852
H  H499  1  0.95810000  0.42080000  0.19400000  1.0 0.0917562852
H  H500  1  0.04190000  0.07920000  0.69400000  1.0 0.0917562852
H  H501  1  0.54190000  0.42080000  0.69400000  1.0 0.0917562852
H  H502  1  0.45810000  0.07920000  0.19400000  1.0 0.0917562852
H  H503  1  0.04190000  0.57920000  0.80600000  1.0 0.0917562852
H  H504  1  0.95810000  0.92080000  0.30600000  1.0 0.0917562852
H  H505  1  0.47470000  0.64120000  0.29770000  1.0 0.0999456127
H  H506  1  0.52530000  0.85880000  0.79770000  1.0 0.0999456127
H  H507  1  0.97470000  0.35880000  0.20230000  1.0 0.0999456127
H  H508  1  0.02530000  0.14120000  0.70230000  1.0 0.0999456127
H  H509  1  0.52530000  0.35880000  0.70230000  1.0 0.0999456127
H  H510  1  0.47470000  0.14120000  0.20230000  1.0 0.0999456127
H  H511  1  0.02530000  0.64120000  0.79770000  1.0 0.0999456127
H  H512  1  0.97470000  0.85880000  0.29770000  1.0 0.0999456127
H  H513  1  0.61830000  0.62440000  0.20080000  1.0 0.0805009463
H  H514  1  0.38170000  0.87560000  0.70080000  1.0 0.0805009463
H  H515  1  0.11830000  0.37560000  0.29920000  1.0 0.0805009463
H  H516  1  0.88170000  0.12440000  0.79920000  1.0 0.0805009463
H  H517  1  0.38170000  0.37560000  0.79920000  1.0 0.0805009463
H  H518  1  0.61830000  0.12440000  0.29920000  1.0 0.0805009463
H  H519  1  0.88170000  0.62440000  0.70080000  1.0 0.0805009463
H  H520  1  0.11830000  0.87560000  0.20080000  1.0 0.0805009463
H  H521  1  0.60170000  0.56240000  0.20910000  1.0 0.1106680979
H  H522  1  0.39830000  0.93760000  0.70910000  1.0 0.1106680979
H  H523  1  0.10170000  0.43760000  0.29090000  1.0 0.1106680979
H  H524  1  0.89830000  0.06240000  0.79090000  1.0 0.1106680979
H  H525  1  0.39830000  0.43760000  0.79090000  1.0 0.1106680979
H  H526  1  0.60170000  0.06240000  0.29090000  1.0 0.1106680979
H  H527  1  0.89830000  0.56240000  0.70910000  1.0 0.1106680979
H  H528  1  0.10170000  0.93760000  0.20910000  1.0 0.1106680979
H  H529  1  0.23950000  0.44420000  0.19590000  1.0 0.0999456127
H  H530  1  0.76050000  0.05580000  0.69590000  1.0 0.0999456127
H  H531  1  0.73950000  0.55580000  0.30410000  1.0 0.0999456127
H  H532  1  0.26050000  0.94420000  0.80410000  1.0 0.0999456127
H  H533  1  0.76050000  0.55580000  0.80410000  1.0 0.0999456127
H  H534  1  0.23950000  0.94420000  0.30410000  1.0 0.0999456127
H  H535  1  0.26050000  0.44420000  0.69590000  1.0 0.0999456127
H  H536  1  0.73950000  0.05580000  0.19590000  1.0 0.0999456127
H  H537  1  0.17540000  0.45010000  0.15890000  1.0 0.0917562852
H  H538  1  0.82460000  0.04990000  0.65890000  1.0 0.0917562852
H  H539  1  0.67540000  0.54990000  0.34110000  1.0 0.0917562852
H  H540  1  0.32460000  0.95010000  0.84110000  1.0 0.0917562852
H  H541  1  0.82460000  0.54990000  0.84110000  1.0 0.0917562852
H  H542  1  0.17540000  0.95010000  0.34110000  1.0 0.0917562852
H  H543  1  0.32460000  0.45010000  0.65890000  1.0 0.0917562852
H  H544  1  0.67540000  0.04990000  0.15890000  1.0 0.0917562852
H  H545  1  0.24650000  0.39590000  0.17810000  1.0 0.0917562852
H  H546  1  0.75350000  0.10410000  0.67810000  1.0 0.0917562852
H  H547  1  0.74650000  0.60410000  0.32190000  1.0 0.0917562852
H  H548  1  0.25350000  0.89590000  0.82190000  1.0 0.0917562852
H  H549  1  0.75350000  0.60410000  0.82190000  1.0 0.0917562852
H  H550  1  0.24650000  0.89590000  0.32190000  1.0 0.0917562852
H  H551  1  0.25350000  0.39590000  0.67810000  1.0 0.0917562852
H  H552  1  0.74650000  0.10410000  0.17810000  1.0 0.0917562852
H  H553  1  0.24710000  0.40770000  0.13820000  1.0 0.0917562852
H  H554  1  0.75290000  0.09230000  0.63820000  1.0 0.0917562852
H  H555  1  0.74710000  0.59230000  0.36180000  1.0 0.0917562852
H  H556  1  0.25290000  0.90770000  0.86180000  1.0 0.0917562852
H  H557  1  0.75290000  0.59230000  0.86180000  1.0 0.0917562852
H  H558  1  0.24710000  0.90770000  0.36180000  1.0 0.0917562852
H  H559  1  0.25290000  0.40770000  0.63820000  1.0 0.0917562852
H  H560  1  0.74710000  0.09230000  0.13820000  1.0 0.0917562852
H  H561  1  0.44700000  0.35890000  0.19310000  1.0 0.0701827978
H  H562  1  0.55300000  0.14110000  0.69310000  1.0 0.0701827978
H  H563  1  0.94700000  0.64110000  0.30690000  1.0 0.0701827978
H  H564  1  0.05300000  0.85890000  0.80690000  1.0 0.0701827978
H  H565  1  0.55300000  0.64110000  0.80690000  1.0 0.0701827978
H  H566  1  0.44700000  0.85890000  0.30690000  1.0 0.0701827978
H  H567  1  0.05300000  0.35890000  0.69310000  1.0 0.0701827978
H  H568  1  0.94700000  0.14110000  0.19310000  1.0 0.0701827978
H  H569  1  0.52790000  0.39390000  0.20040000  1.0 0.1106680979
H  H570  1  0.47210000  0.10610000  0.70040000  1.0 0.1106680979
H  H571  1  0.02790000  0.60610000  0.29960000  1.0 0.1106680979
H  H572  1  0.97210000  0.89390000  0.79960000  1.0 0.1106680979
H  H573  1  0.47210000  0.60610000  0.79960000  1.0 0.1106680979
H  H574  1  0.52790000  0.89390000  0.29960000  1.0 0.1106680979
H  H575  1  0.97210000  0.39390000  0.70040000  1.0 0.1106680979
H  H576  1  0.02790000  0.10610000  0.20040000  1.0 0.1106680979
H  H577  1  0.16030000  0.60220000  0.10600000  1.0 0.0805009463
H  H578  1  0.83970000  0.89780000  0.60600000  1.0 0.0805009463
H  H579  1  0.66030000  0.39780000  0.39400000  1.0 0.0805009463
H  H580  1  0.33970000  0.10220000  0.89400000  1.0 0.0805009463
H  H581  1  0.83970000  0.39780000  0.89400000  1.0 0.0805009463
H  H582  1  0.16030000  0.10220000  0.39400000  1.0 0.0805009463
H  H583  1  0.33970000  0.60220000  0.60600000  1.0 0.0805009463
H  H584  1  0.66030000  0.89780000  0.10600000  1.0 0.0805009463
H  H585  1  0.10970000  0.57630000  0.13690000  1.0 0.1193473253
H  H586  1  0.89030000  0.92370000  0.63690000  1.0 0.1106680979
H  H587  1  0.60970000  0.42370000  0.36310000  1.0 0.1106680979
H  H588  1  0.39030000  0.07630000  0.86310000  1.0 0.1193473253
H  H589  1  0.89030000  0.42370000  0.86310000  1.0 0.1193473253
H  H590  1  0.10970000  0.07630000  0.36310000  1.0 0.1106680979
H  H591  1  0.39030000  0.57630000  0.63690000  1.0 0.1106680979
H  H592  1  0.60970000  0.92370000  0.13690000  1.0 0.1106680979
H  H593  1  0.99060000  0.62290000  0.14500000  1.0 0.1375421737
H  H594  1  0.00940000  0.87710000  0.64500000  1.0 0.1375421737
H  H595  1  0.49060000  0.37710000  0.35500000  1.0 0.1375421737
H  H596  1  0.50940000  0.12290000  0.85500000  1.0 0.1375421737
H  H597  1  0.00940000  0.37710000  0.85500000  1.0 0.1375421737
H  H598  1  0.99060000  0.12290000  0.35500000  1.0 0.1375421737
H  H599  1  0.50940000  0.62290000  0.64500000  1.0 0.1375421737
H  H600  1  0.49060000  0.87710000  0.14500000  1.0 0.1375421737
H  H601  1  0.02840000  0.64270000  0.10880000  1.0 0.0701827978
H  H602  1  0.97160000  0.85730000  0.60880000  1.0 0.0701827978
H  H603  1  0.52840000  0.35730000  0.39120000  1.0 0.0701827978
H  H604  1  0.47160000  0.14270000  0.89120000  1.0 0.0701827978
H  H605  1  0.97160000  0.35730000  0.89120000  1.0 0.0701827978
H  H606  1  0.02840000  0.14270000  0.39120000  1.0 0.0701827978
H  H607  1  0.47160000  0.64270000  0.60880000  1.0 0.0701827978
H  H608  1  0.52840000  0.85730000  0.10880000  1.0 0.0701827978
H  H609  1  0.79470000  0.62840000  0.08770000  1.0 0.0805009463
H  H610  1  0.20530000  0.87160000  0.58770000  1.0 0.0805009463
H  H611  1  0.29470000  0.37160000  0.41230000  1.0 0.0805009463
H  H612  1  0.70530000  0.12840000  0.91230000  1.0 0.0805009463
H  H613  1  0.20530000  0.37160000  0.91230000  1.0 0.0805009463
H  H614  1  0.79470000  0.12840000  0.41230000  1.0 0.0805009463
H  H615  1  0.70530000  0.62840000  0.58770000  1.0 0.0805009463
H  H616  1  0.29470000  0.87160000  0.08770000  1.0 0.0805009463
H  H617  1  0.80070000  0.66010000  0.11650000  1.0 0.0527921423
H  H618  1  0.19930000  0.83990000  0.61650000  1.0 0.0527921423
H  H619  1  0.30070000  0.33990000  0.38350000  1.0 0.0527921423
H  H620  1  0.69930000  0.16010000  0.88350000  1.0 0.0527921423
H  H621  1  0.19930000  0.33990000  0.88350000  1.0 0.0527921423
H  H622  1  0.80070000  0.16010000  0.38350000  1.0 0.0527921423
H  H623  1  0.69930000  0.66010000  0.61650000  1.0 0.0527921423
H  H624  1  0.30070000  0.83990000  0.11650000  1.0 0.0527921423
H  H625  1  0.80760000  0.75630000  0.25560000  1.0 0.2360149009
H  H626  1  0.90420000  0.76110000  0.28150000  1.0 0.2360149009
H  H627  1  0.75650000  0.70200000  0.28040000  1.0 0.1106680979
H  H628  1  0.87770000  0.70740000  0.30430000  1.0 0.1106680979
H  H629  1  0.89120000  0.70450000  0.26260000  1.0 0.1106680979
H  H630  1  0.73980000  0.80220000  0.27970000  1.0 0.1106680979
H  H631  1  0.79160000  0.79010000  0.31720000  1.0 0.1106680979
H  H632  1  0.66680000  0.77250000  0.30200000  1.0 0.1193473253
H  H633  1  0.19240000  0.74370000  0.75560000  1.0 0.2360149009
H  H634  1  0.09580000  0.73890000  0.78150000  1.0 0.2360149009
H  H635  1  0.24350000  0.79800000  0.78040000  1.0 0.1106680979
H  H636  1  0.12230000  0.79260000  0.80430000  1.0 0.1106680979
H  H637  1  0.10880000  0.79550000  0.76260000  1.0 0.1106680979
H  H638  1  0.26020000  0.69780000  0.77970000  1.0 0.1106680979
H  H639  1  0.20840000  0.70990000  0.81720000  1.0 0.1106680979
H  H640  1  0.33320000  0.72750000  0.80200000  1.0 0.1193473253
H  H641  1  0.30760000  0.24370000  0.24440000  1.0 0.2360149009
H  H642  1  0.40420000  0.23890000  0.21850000  1.0 0.2360149009
H  H643  1  0.25650000  0.29800000  0.21960000  1.0 0.1106680979
H  H644  1  0.37770000  0.29260000  0.19570000  1.0 0.1106680979
H  H645  1  0.39120000  0.29550000  0.23740000  1.0 0.1106680979
H  H646  1  0.23980000  0.19780000  0.22030000  1.0 0.1106680979
H  H647  1  0.29160000  0.20990000  0.18280000  1.0 0.1106680979
H  H648  1  0.16680000  0.22750000  0.19800000  1.0 0.1193473253
H  H649  1  0.69240000  0.25630000  0.74440000  1.0 0.2360149009
H  H650  1  0.59580000  0.26110000  0.71850000  1.0 0.2319157784
H  H651  1  0.74350000  0.20200000  0.71960000  1.0 0.1106680979
H  H652  1  0.62230000  0.20740000  0.69570000  1.0 0.1106680979
H  H653  1  0.60880000  0.20450000  0.73740000  1.0 0.1106680979
H  H654  1  0.76020000  0.30220000  0.72030000  1.0 0.1106680979
H  H655  1  0.70840000  0.29010000  0.68280000  1.0 0.1106680979
H  H656  1  0.83320000  0.27250000  0.69800000  1.0 0.1193473253
H  H657  1  0.19240000  0.24370000  0.74440000  1.0 0.2360149009
H  H658  1  0.09580000  0.23890000  0.71850000  1.0 0.2319157784
H  H659  1  0.24350000  0.29800000  0.71960000  1.0 0.1106680979
H  H660  1  0.12230000  0.29260000  0.69570000  1.0 0.1106680979
H  H661  1  0.10880000  0.29550000  0.73740000  1.0 0.1106680979
H  H662  1  0.26020000  0.19780000  0.72030000  1.0 0.1106680979
H  H663  1  0.20840000  0.20990000  0.68280000  1.0 0.1106680979
H  H664  1  0.33320000  0.22750000  0.69800000  1.0 0.1193473253
H  H665  1  0.80760000  0.25630000  0.24440000  1.0 0.2360149009
H  H666  1  0.90420000  0.26110000  0.21850000  1.0 0.2360149009
H  H667  1  0.75650000  0.20200000  0.21960000  1.0 0.1106680979
H  H668  1  0.87770000  0.20740000  0.19570000  1.0 0.1106680979
H  H669  1  0.89120000  0.20450000  0.23740000  1.0 0.1106680979
H  H670  1  0.73980000  0.30220000  0.22030000  1.0 0.1106680979
H  H671  1  0.79160000  0.29010000  0.18280000  1.0 0.1106680979
H  H672  1  0.66680000  0.27250000  0.19800000  1.0 0.1193473253
H  H673  1  0.69240000  0.75630000  0.75560000  1.0 0.2360149009
H  H674  1  0.59580000  0.76110000  0.78150000  1.0 0.2360149009
H  H675  1  0.74350000  0.70200000  0.78040000  1.0 0.1106680979
H  H676  1  0.62230000  0.70740000  0.80430000  1.0 0.1106680979
H  H677  1  0.60880000  0.70450000  0.76260000  1.0 0.1106680979
H  H678  1  0.76020000  0.80220000  0.77970000  1.0 0.1106680979
H  H679  1  0.70840000  0.79010000  0.81720000  1.0 0.1106680979
H  H680  1  0.83320000  0.77250000  0.80200000  1.0 0.1193473253
H  H681  1  0.30760000  0.74370000  0.25560000  1.0 0.2360149009
H  H682  1  0.40420000  0.73890000  0.28150000  1.0 0.2360149009
H  H683  1  0.25650000  0.79800000  0.28040000  1.0 0.1106680979
H  H684  1  0.37770000  0.79260000  0.30430000  1.0 0.1106680979
H  H685  1  0.39120000  0.79550000  0.26260000  1.0 0.1106680979
H  H686  1  0.23980000  0.69780000  0.27970000  1.0 0.1106680979
H  H687  1  0.29160000  0.70990000  0.31720000  1.0 0.1106680979
H  H688  1  0.16680000  0.72750000  0.30200000  1.0 0.1193473253
H  H689  1  0.54980000  0.24020000  0.44910000  1.0 0.2600999597
H  H690  1  0.55300000  0.23670000  0.41090000  1.0 0.2513573232
H  H691  1  0.76800000  0.24370000  0.44950000  1.0 0.1297659978
H  H692  1  0.76090000  0.23310000  0.40900000  1.0 0.1193473253
H  H693  1  0.71290000  0.20550000  0.43820000  1.0 0.1193473253
H  H694  1  0.66240000  0.29830000  0.43180000  1.0 0.1193473253
H  H695  1  0.51790000  0.29620000  0.44200000  1.0 0.1193473253
H  H696  1  0.55970000  0.29330000  0.40180000  1.0 0.1106680979
H  H697  1  0.45020000  0.25980000  0.94910000  1.0 0.2600999597
H  H698  1  0.44700000  0.26330000  0.91090000  1.0 0.2513573232
H  H699  1  0.23200000  0.25630000  0.94950000  1.0 0.1297659978
H  H700  1  0.23910000  0.26690000  0.90900000  1.0 0.1193473253
H  H701  1  0.28710000  0.29450000  0.93820000  1.0 0.1193473253
H  H702  1  0.33760000  0.20170000  0.93180000  1.0 0.1193473253
H  H703  1  0.48210000  0.20380000  0.94200000  1.0 0.1193473253
H  H704  1  0.44030000  0.20670000  0.90180000  1.0 0.1106680979
H  H705  1  0.04980000  0.75980000  0.05090000  1.0 0.2600999597
H  H706  1  0.05300000  0.76330000  0.08910000  1.0 0.2513573232
H  H707  1  0.26800000  0.75630000  0.05050000  1.0 0.1297659978
H  H708  1  0.26090000  0.76690000  0.09100000  1.0 0.1193473253
H  H709  1  0.21290000  0.79450000  0.06180000  1.0 0.1193473253
H  H710  1  0.16240000  0.70170000  0.06820000  1.0 0.1193473253
H  H711  1  0.01790000  0.70380000  0.05800000  1.0 0.1193473253
H  H712  1  0.05970000  0.70670000  0.09820000  1.0 0.1106680979
H  H713  1  0.95020000  0.74020000  0.55090000  1.0 0.2600999597
H  H714  1  0.94700000  0.73670000  0.58910000  1.0 0.2513573232
H  H715  1  0.73200000  0.74370000  0.55050000  1.0 0.1297659978
H  H716  1  0.73910000  0.73310000  0.59100000  1.0 0.1193473253
H  H717  1  0.78710000  0.70550000  0.56180000  1.0 0.1193473253
H  H718  1  0.83760000  0.79830000  0.56820000  1.0 0.1193473253
H  H719  1  0.98210000  0.79620000  0.55800000  1.0 0.1193473253
H  H720  1  0.94030000  0.79330000  0.59820000  1.0 0.1106680979
H  H721  1  0.45020000  0.75980000  0.55090000  1.0 0.2600999597
H  H722  1  0.44700000  0.76330000  0.58910000  1.0 0.2513573232
H  H723  1  0.23200000  0.75630000  0.55050000  1.0 0.1297659978
H  H724  1  0.23910000  0.76690000  0.59100000  1.0 0.1193473253
H  H725  1  0.28710000  0.79450000  0.56180000  1.0 0.1193473253
H  H726  1  0.33760000  0.70170000  0.56820000  1.0 0.1193473253
H  H727  1  0.48210000  0.70380000  0.55800000  1.0 0.1193473253
H  H728  1  0.44030000  0.70670000  0.59820000  1.0 0.1106680979
H  H729  1  0.54980000  0.74020000  0.05090000  1.0 0.2600999597
H  H730  1  0.55300000  0.73670000  0.08910000  1.0 0.2513573232
H  H731  1  0.76800000  0.74370000  0.05050000  1.0 0.1297659978
H  H732  1  0.76090000  0.73310000  0.09100000  1.0 0.1193473253
H  H733  1  0.71290000  0.70550000  0.06180000  1.0 0.1193473253
H  H734  1  0.66240000  0.79830000  0.06820000  1.0 0.1193473253
H  H735  1  0.51790000  0.79620000  0.05800000  1.0 0.1193473253
H  H736  1  0.55970000  0.79330000  0.09820000  1.0 0.1106680979
H  H737  1  0.95020000  0.24020000  0.94910000  1.0 0.2600999597
H  H738  1  0.94700000  0.23670000  0.91090000  1.0 0.2513573232
H  H739  1  0.73200000  0.24370000  0.94950000  1.0 0.1297659978
H  H740  1  0.73910000  0.23310000  0.90900000  1.0 0.1193473253
H  H741  1  0.78710000  0.20550000  0.93820000  1.0 0.1193473253
H  H742  1  0.83760000  0.29830000  0.93180000  1.0 0.1193473253
H  H743  1  0.98210000  0.29620000  0.94200000  1.0 0.1193473253
H  H744  1  0.94030000  0.29330000  0.90180000  1.0 0.1106680979
H  H745  1  0.04980000  0.25980000  0.44910000  1.0 0.2600999597
H  H746  1  0.05300000  0.26330000  0.41090000  1.0 0.2513573232
H  H747  1  0.26800000  0.25630000  0.44950000  1.0 0.1297659978
H  H748  1  0.26090000  0.26690000  0.40900000  1.0 0.1193473253
H  H749  1  0.21290000  0.29450000  0.43820000  1.0 0.1193473253
H  H750  1  0.16240000  0.20170000  0.43180000  1.0 0.1193473253
H  H751  1  0.01790000  0.20380000  0.44200000  1.0 0.1193473253
H  H752  1  0.05970000  0.20670000  0.40180000  1.0 0.1106680979
C  C1  1  0.52400000  0.67810000  0.23150000  1.0 0.2678981925
C  C2  1  0.47600000  0.82190000  0.73150000  1.0 0.2678981925
C  C3  1  0.02400000  0.32190000  0.26850000  1.0 0.2678981925
C  C4  1  0.97600000  0.17810000  0.76850000  1.0 0.2678981925
C  C5  1  0.47600000  0.32190000  0.76850000  1.0 0.2678981925
C  C6  1  0.52400000  0.17810000  0.26850000  1.0 0.2678981925
C  C7  1  0.97600000  0.67810000  0.73150000  1.0 0.2678981925
C  C8  1  0.02400000  0.82190000  0.23150000  1.0 0.2678981925
C  C9  1  0.53330000  0.56510000  0.25880000  1.0 -0.0075325383
C  C10  1  0.46670000  0.93490000  0.75880000  1.0 -0.0075325383
C  C11  1  0.03330000  0.43490000  0.24120000  1.0 -0.0075325383
C  C12  1  0.96670000  0.06510000  0.74120000  1.0 -0.0075325383
C  C13  1  0.46670000  0.43490000  0.74120000  1.0 -0.0075325383
C  C14  1  0.53330000  0.06510000  0.24120000  1.0 -0.0075325383
C  C15  1  0.96670000  0.56510000  0.75880000  1.0 -0.0075325383
C  C16  1  0.03330000  0.93490000  0.25880000  1.0 -0.0075325383
C  C17  1  0.43210000  0.58580000  0.26910000  1.0 -0.0263596698
C  C18  1  0.56790000  0.91420000  0.76910000  1.0 -0.0263596698
C  C19  1  0.93210000  0.41420000  0.23090000  1.0 -0.0263596698
C  C20  1  0.06790000  0.08580000  0.73090000  1.0 -0.0263596698
C  C21  1  0.56790000  0.41420000  0.73090000  1.0 -0.0263596698
C  C22  1  0.43210000  0.08580000  0.23090000  1.0 -0.0263596698
C  C23  1  0.06790000  0.58580000  0.76910000  1.0 -0.0263596698
C  C24  1  0.93210000  0.91420000  0.26910000  1.0 -0.0263596698
C  C25  1  0.43120000  0.62240000  0.26250000  1.0 -0.0201456849
C  C26  1  0.56880000  0.87760000  0.76250000  1.0 -0.0201456849
C  C27  1  0.93120000  0.37760000  0.23750000  1.0 -0.0201456849
C  C28  1  0.06880000  0.12240000  0.73750000  1.0 -0.0201456849
C  C29  1  0.56880000  0.37760000  0.73750000  1.0 -0.0201456849
C  C30  1  0.43120000  0.12240000  0.23750000  1.0 -0.0201456849
C  C31  1  0.06880000  0.62240000  0.76250000  1.0 -0.0201456849
C  C32  1  0.93120000  0.87760000  0.26250000  1.0 -0.0201456849
C  C33  1  0.53140000  0.63840000  0.24550000  1.0 -0.0599701854
C  C34  1  0.46860000  0.86160000  0.74550000  1.0 -0.0599701854
C  C35  1  0.03140000  0.36160000  0.25450000  1.0 -0.0599701854
C  C36  1  0.96860000  0.13840000  0.75450000  1.0 -0.0599701854
C  C37  1  0.46860000  0.36160000  0.75450000  1.0 -0.0599701854
C  C38  1  0.53140000  0.13840000  0.25450000  1.0 -0.0599701854
C  C39  1  0.96860000  0.63840000  0.74550000  1.0 -0.0599701854
C  C40  1  0.03140000  0.86160000  0.24550000  1.0 -0.0599701854
C  C41  1  0.63260000  0.61770000  0.23520000  1.0 -0.0386742101
C  C42  1  0.36740000  0.88230000  0.73520000  1.0 -0.0386742101
C  C43  1  0.13260000  0.38230000  0.26480000  1.0 -0.0386742101
C  C44  1  0.86740000  0.11770000  0.76480000  1.0 -0.0386742101
C  C45  1  0.36740000  0.38230000  0.76480000  1.0 -0.0386742101
C  C46  1  0.63260000  0.11770000  0.26480000  1.0 -0.0386742101
C  C47  1  0.86740000  0.61770000  0.73520000  1.0 -0.0386742101
C  C48  1  0.13260000  0.88230000  0.23520000  1.0 -0.0386742101
C  C49  1  0.63350000  0.58100000  0.24180000  1.0 -0.0485118316
C  C50  1  0.36650000  0.91900000  0.74180000  1.0 -0.0485118316
C  C51  1  0.13350000  0.41900000  0.25820000  1.0 -0.0485118316
C  C52  1  0.86650000  0.08100000  0.75820000  1.0 -0.0485118316
C  C53  1  0.36650000  0.41900000  0.75820000  1.0 -0.0485118316
C  C54  1  0.63350000  0.08100000  0.25820000  1.0 -0.0485118316
C  C55  1  0.86650000  0.58100000  0.74180000  1.0 -0.0485118316
C  C56  1  0.13350000  0.91900000  0.24180000  1.0 -0.0485118316
C  C57  1  0.52890000  0.52470000  0.26320000  1.0 0.0027672046
C  C58  1  0.47110000  0.97530000  0.76320000  1.0 0.0027672046
C  C59  1  0.02890000  0.47530000  0.23680000  1.0 0.0094236376
C  C60  1  0.97110000  0.02470000  0.73680000  1.0 0.0027672046
C  C61  1  0.47110000  0.47530000  0.73680000  1.0 0.0027672046
C  C62  1  0.52890000  0.02470000  0.23680000  1.0 0.0094236376
C  C63  1  0.97110000  0.52470000  0.76320000  1.0 0.0027672046
C  C64  1  0.02890000  0.97530000  0.26320000  1.0 0.0027672046
C  C65  1  0.45590000  0.50770000  0.28860000  1.0 -0.0263596698
C  C66  1  0.54410000  0.99230000  0.78860000  1.0 -0.0263596698
C  C67  1  0.95590000  0.49230000  0.21140000  1.0 -0.0263596698
C  C68  1  0.04410000  0.00770000  0.71140000  1.0 -0.0201456849
C  C69  1  0.54410000  0.49230000  0.71140000  1.0 -0.0201456849
C  C70  1  0.45590000  0.00770000  0.21140000  1.0 -0.0263596698
C  C71  1  0.04410000  0.50770000  0.78860000  1.0 -0.0263596698
C  C72  1  0.95590000  0.99230000  0.28860000  1.0 -0.0263596698
C  C73  1  0.46450000  0.47110000  0.29450000  1.0 0.0701827978
C  C74  1  0.53550000  0.02890000  0.79450000  1.0 0.0701827978
C  C75  1  0.96450000  0.52890000  0.20550000  1.0 0.0701827978
C  C76  1  0.03550000  0.97110000  0.70550000  1.0 0.0701827978
C  C77  1  0.53550000  0.52890000  0.70550000  1.0 0.0701827978
C  C78  1  0.46450000  0.97110000  0.20550000  1.0 0.0701827978
C  C79  1  0.03550000  0.47110000  0.79450000  1.0 0.0701827978
C  C80  1  0.96450000  0.02890000  0.29450000  1.0 0.0701827978
C  C81  1  0.53950000  0.44830000  0.27380000  1.0 -0.0040415522
C  C82  1  0.46050000  0.05170000  0.77380000  1.0 -0.0075325383
C  C83  1  0.03950000  0.55170000  0.22620000  1.0 -0.0075325383
C  C84  1  0.96050000  0.94830000  0.72620000  1.0 -0.0075325383
C  C85  1  0.46050000  0.55170000  0.72620000  1.0 -0.0075325383
C  C86  1  0.53950000  0.94830000  0.22620000  1.0 -0.0075325383
C  C87  1  0.96050000  0.44830000  0.77380000  1.0 -0.0075325383
C  C88  1  0.03950000  0.05170000  0.27380000  1.0 -0.0075325383
C  C89  1  0.60920000  0.46520000  0.24880000  1.0 -0.2698225553
C  C90  1  0.39080000  0.03480000  0.74880000  1.0 -0.2698225553
C  C91  1  0.10920000  0.53480000  0.25120000  1.0 -0.2698225553
C  C92  1  0.89080000  0.96520000  0.75120000  1.0 -0.2698225553
C  C93  1  0.39080000  0.53480000  0.75120000  1.0 -0.2698225553
C  C94  1  0.60920000  0.96520000  0.25120000  1.0 -0.2698225553
C  C95  1  0.89080000  0.46520000  0.74880000  1.0 -0.2698225553
C  C96  1  0.10920000  0.03480000  0.24880000  1.0 -0.2698225553
C  C97  1  0.60470000  0.50340000  0.24430000  1.0 -0.302548177
C  C98  1  0.39530000  0.99660000  0.74430000  1.0 -0.302548177
C  C99  1  0.10470000  0.49660000  0.25570000  1.0 -0.302548177
C  C100  1  0.89530000  0.00340000  0.75570000  1.0 -0.302548177
C  C101  1  0.39530000  0.49660000  0.75570000  1.0 -0.302548177
C  C102  1  0.60470000  0.00340000  0.25570000  1.0 -0.302548177
C  C103  1  0.89530000  0.50340000  0.74430000  1.0 -0.302548177
C  C104  1  0.10470000  0.99660000  0.24430000  1.0 -0.302548177
C  C105  1  0.54370000  0.40860000  0.27850000  1.0 0.0527921423
C  C106  1  0.45630000  0.09140000  0.77850000  1.0 0.0527921423
C  C107  1  0.04370000  0.59140000  0.22150000  1.0 0.0527921423
C  C108  1  0.95630000  0.90860000  0.72150000  1.0 0.0527921423
C  C109  1  0.45630000  0.59140000  0.72150000  1.0 0.0527921423
C  C110  1  0.54370000  0.90860000  0.22150000  1.0 0.0527921423
C  C111  1  0.95630000  0.40860000  0.77850000  1.0 0.0527921423
C  C112  1  0.04370000  0.09140000  0.27850000  1.0 0.0527921423
C  C113  1  0.43160000  0.38940000  0.28420000  1.0 -0.337329566
C  C114  1  0.56840000  0.11060000  0.78420000  1.0 -0.337329566
C  C115  1  0.93160000  0.61060000  0.21580000  1.0 -0.337329566
C  C116  1  0.06840000  0.88940000  0.71580000  1.0 -0.337329566
C  C117  1  0.56840000  0.61060000  0.71580000  1.0 -0.337329566
C  C118  1  0.43160000  0.88940000  0.21580000  1.0 -0.337329566
C  C119  1  0.06840000  0.38940000  0.78420000  1.0 -0.337329566
C  C120  1  0.93160000  0.11060000  0.28420000  1.0 -0.337329566
C  C121  1  0.43710000  0.35200000  0.28750000  1.0 -0.2698225553
C  C122  1  0.56290000  0.14800000  0.78750000  1.0 -0.2698225553
C  C123  1  0.93710000  0.64800000  0.21250000  1.0 -0.2698225553
C  C124  1  0.06290000  0.85200000  0.71250000  1.0 -0.2698225553
C  C125  1  0.56290000  0.64800000  0.71250000  1.0 -0.2698225553
C  C126  1  0.43710000  0.85200000  0.21250000  1.0 -0.2698225553
C  C127  1  0.06290000  0.35200000  0.78750000  1.0 -0.2698225553
C  C128  1  0.93710000  0.14800000  0.28750000  1.0 -0.2698225553
C  C129  1  0.54680000  0.33390000  0.28480000  1.0 -0.0386742101
C  C130  1  0.45320000  0.16610000  0.78480000  1.0 -0.0386742101
C  C131  1  0.04680000  0.66610000  0.21520000  1.0 -0.0386742101
C  C132  1  0.95320000  0.83390000  0.71520000  1.0 -0.0386742101
C  C133  1  0.45320000  0.66610000  0.71520000  1.0 -0.0386742101
C  C134  1  0.54680000  0.83390000  0.21520000  1.0 -0.0386742101
C  C135  1  0.95320000  0.33390000  0.78480000  1.0 -0.0386742101
C  C136  1  0.04680000  0.16610000  0.28480000  1.0 -0.0386742101
C  C137  1  0.65610000  0.35160000  0.28000000  1.0 -0.1523213491
C  C138  1  0.34390000  0.14840000  0.78000000  1.0 -0.1523213491
C  C139  1  0.15610000  0.64840000  0.22000000  1.0 -0.1523213491
C  C140  1  0.84390000  0.85160000  0.72000000  1.0 -0.1523213491
C  C141  1  0.34390000  0.64840000  0.72000000  1.0 -0.1523213491
C  C142  1  0.65610000  0.85160000  0.22000000  1.0 -0.1523213491
C  C143  1  0.84390000  0.35160000  0.78000000  1.0 -0.1523213491
C  C144  1  0.15610000  0.14840000  0.28000000  1.0 -0.1523213491
C  C145  1  0.65510000  0.39010000  0.27490000  1.0 -0.2635894376
C  C146  1  0.34490000  0.10990000  0.77490000  1.0 -0.2635894376
C  C147  1  0.15510000  0.60990000  0.22510000  1.0 -0.2635894376
C  C148  1  0.84490000  0.89010000  0.72510000  1.0 -0.2635894376
C  C149  1  0.34490000  0.60990000  0.72510000  1.0 -0.2635894376
C  C150  1  0.65510000  0.89010000  0.22510000  1.0 -0.2635894376
C  C151  1  0.84490000  0.39010000  0.77490000  1.0 -0.2635894376
C  C152  1  0.15510000  0.10990000  0.27490000  1.0 -0.2635894376
C  C153  1  0.55400000  0.29100000  0.29340000  1.0 0.4838559484
C  C154  1  0.44600000  0.20900000  0.79340000  1.0 0.4838559484
C  C155  1  0.05400000  0.70900000  0.20660000  1.0 0.4838559484
C  C156  1  0.94600000  0.79100000  0.70660000  1.0 0.4838559484
C  C157  1  0.44600000  0.70900000  0.70660000  1.0 0.4838559484
C  C158  1  0.55400000  0.79100000  0.20660000  1.0 0.4838559484
C  C159  1  0.94600000  0.29100000  0.79340000  1.0 0.4838559484
C  C160  1  0.05400000  0.20900000  0.29340000  1.0 0.4838559484
C  C161  1  0.33333333  0.49560000  0.33240000  1.0 0.2600999597
C  C162  1  0.66666667  0.00440000  0.83240000  1.0 0.2600999597
C  C163  1  0.83333000  0.50440000  0.16760000  1.0 0.2600999597
C  C164  1  0.16667000  0.99560000  0.66760000  1.0 0.2600999597
C  C165  1  0.66666667  0.50440000  0.66760000  1.0 0.2600999597
C  C166  1  0.33333333  0.99560000  0.16760000  1.0 0.2600999597
C  C167  1  0.16667000  0.49560000  0.83240000  1.0 0.2600999597
C  C168  1  0.83333000  0.00440000  0.33240000  1.0 0.2600999597
C  C169  1  0.24760000  0.49730000  0.36190000  1.0 0.0255445992
C  C170  1  0.75240000  0.00270000  0.86190000  1.0 0.0255445992
C  C171  1  0.74760000  0.50270000  0.13810000  1.0 0.0255445992
C  C172  1  0.25240000  0.99730000  0.63810000  1.0 0.0255445992
C  C173  1  0.75240000  0.50270000  0.63810000  1.0 0.0255445992
C  C174  1  0.24760000  0.99730000  0.13810000  1.0 0.0255445992
C  C175  1  0.25240000  0.49730000  0.86190000  1.0 0.0255445992
C  C176  1  0.74760000  0.00270000  0.36190000  1.0 0.0255445992
C  C177  1  0.16010000  0.52420000  0.36340000  1.0 -0.1523213491
C  C178  1  0.83990000  0.97580000  0.86340000  1.0 -0.1523213491
C  C179  1  0.66010000  0.47580000  0.13660000  1.0 -0.1523213491
C  C180  1  0.33990000  0.02420000  0.63660000  1.0 -0.1523213491
C  C181  1  0.83990000  0.47580000  0.63660000  1.0 -0.1523213491
C  C182  1  0.16010000  0.02420000  0.13660000  1.0 -0.1523213491
C  C183  1  0.33990000  0.52420000  0.86340000  1.0 -0.1523213491
C  C184  1  0.66010000  0.97580000  0.36340000  1.0 -0.1523213491
C  C185  1  0.07390000  0.52660000  0.38990000  1.0 -0.1523213491
C  C186  1  0.92610000  0.97340000  0.88990000  1.0 -0.1523213491
C  C187  1  0.57390000  0.47340000  0.11010000  1.0 -0.1523213491
C  C188  1  0.42610000  0.02660000  0.61010000  1.0 -0.1523213491
C  C189  1  0.92610000  0.47340000  0.61010000  1.0 -0.1523213491
C  C190  1  0.07390000  0.02660000  0.11010000  1.0 -0.1523213491
C  C191  1  0.42610000  0.52660000  0.88990000  1.0 -0.1523213491
C  C192  1  0.57390000  0.97340000  0.38990000  1.0 -0.1523213491
C  C193  1  0.07210000  0.50000000  0.41560000  1.0 0.0027672046
C  C194  1  0.92790000  0.00000000  0.91560000  1.0 0.0027672046
C  C195  1  0.57210000  0.50000000  0.08440000  1.0 0.0027672046
C  C196  1  0.42790000  0.00000000  0.58440000  1.0 0.0027672046
C  C197  1  0.92790000  0.50000000  0.58440000  1.0 0.0027672046
C  C198  1  0.07210000  0.00000000  0.08440000  1.0 0.0027672046
C  C199  1  0.42790000  0.50000000  0.91560000  1.0 0.0027672046
C  C200  1  0.57210000  0.00000000  0.41560000  1.0 0.0027672046
C  C201  1  0.16140000  0.47330000  0.41460000  1.0 -0.1388188769
C  C202  1  0.83860000  0.02670000  0.91460000  1.0 -0.1388188769
C  C203  1  0.66140000  0.52670000  0.08540000  1.0 -0.1388188769
C  C204  1  0.33860000  0.97330000  0.58540000  1.0 -0.1388188769
C  C205  1  0.83860000  0.52670000  0.58540000  1.0 -0.1388188769
C  C206  1  0.16140000  0.97330000  0.08540000  1.0 -0.1388188769
C  C207  1  0.33860000  0.47330000  0.91460000  1.0 -0.1388188769
C  C208  1  0.66140000  0.02670000  0.41460000  1.0 -0.1388188769
C  C209  1  0.24860000  0.47230000  0.38770000  1.0 -0.160724761
C  C210  1  0.75140000  0.02770000  0.88770000  1.0 -0.160724761
C  C211  1  0.74860000  0.52770000  0.11230000  1.0 -0.160724761
C  C212  1  0.25140000  0.97230000  0.61230000  1.0 -0.160724761
C  C213  1  0.75140000  0.52770000  0.61230000  1.0 -0.160724761
C  C214  1  0.24860000  0.97230000  0.11230000  1.0 -0.160724761
C  C215  1  0.25140000  0.47230000  0.88770000  1.0 -0.160724761
C  C216  1  0.74860000  0.02770000  0.38770000  1.0 -0.160724761
C  C217  1  0.97420000  0.49700000  0.44280000  1.0 0.2990798508
C  C218  1  0.02580000  0.00300000  0.94280000  1.0 0.2990798508
C  C219  1  0.47420000  0.50300000  0.05720000  1.0 0.2990798508
C  C220  1  0.52580000  0.99700000  0.55720000  1.0 0.2990798508
C  C221  1  0.02580000  0.50300000  0.55720000  1.0 0.2990798508
C  C222  1  0.97420000  0.99700000  0.05720000  1.0 0.2990798508
C  C223  1  0.52580000  0.49700000  0.94280000  1.0 0.2990798508
C  C224  1  0.47420000  0.00300000  0.44280000  1.0 0.2990798508
C  C225  1  0.66900000  0.67800000  0.50230000  1.0 0.5320961331
C  C226  1  0.33100000  0.82200000  0.00230000  1.0 0.5320961331
C  C227  1  0.16900000  0.32200000  0.99770000  1.0 0.5320961331
C  C228  1  0.83100000  0.17800000  0.49770000  1.0 0.5320961331
C  C229  1  0.33100000  0.32200000  0.49770000  1.0 0.5320961331
C  C230  1  0.66900000  0.17800000  0.99770000  1.0 0.5320961331
C  C231  1  0.83100000  0.67800000  0.00230000  1.0 0.5320961331
C  C232  1  0.16900000  0.82200000  0.50230000  1.0 0.5320961331
C  C233  1  0.67960000  0.63970000  0.50490000  1.0 -0.0810796193
C  C234  1  0.32040000  0.86030000  0.00490000  1.0 -0.0810796193
C  C235  1  0.17960000  0.36030000  0.99510000  1.0 -0.0810796193
C  C236  1  0.82040000  0.13970000  0.49510000  1.0 -0.0810796193
C  C237  1  0.32040000  0.36030000  0.49510000  1.0 -0.0810796193
C  C238  1  0.67960000  0.13970000  0.99510000  1.0 -0.0810796193
C  C239  1  0.82040000  0.63970000  0.00490000  1.0 -0.0810796193
C  C240  1  0.17960000  0.86030000  0.50490000  1.0 -0.0810796193
C  C241  1  0.58290000  0.61710000  0.50460000  1.0 -0.1388188769
C  C242  1  0.41710000  0.88290000  0.00460000  1.0 -0.1388188769
C  C243  1  0.08290000  0.38290000  0.99540000  1.0 -0.1388188769
C  C244  1  0.91710000  0.11710000  0.49540000  1.0 -0.1388188769
C  C245  1  0.41710000  0.38290000  0.49540000  1.0 -0.1388188769
C  C246  1  0.58290000  0.11710000  0.99540000  1.0 -0.1388188769
C  C247  1  0.91710000  0.61710000  0.00460000  1.0 -0.1388188769
C  C248  1  0.08290000  0.88290000  0.50460000  1.0 -0.1388188769
C  C249  1  0.59530000  0.58110000  0.50280000  1.0 -0.1882138744
C  C250  1  0.40470000  0.91890000  0.00280000  1.0 -0.1882138744
C  C251  1  0.09530000  0.41890000  0.99720000  1.0 -0.1882138744
C  C252  1  0.90470000  0.08110000  0.49720000  1.0 -0.1882138744
C  C253  1  0.40470000  0.41890000  0.49720000  1.0 -0.1882138744
C  C254  1  0.59530000  0.08110000  0.99720000  1.0 -0.1882138744
C  C255  1  0.90470000  0.58110000  0.00280000  1.0 -0.1882138744
C  C256  1  0.09530000  0.91890000  0.50280000  1.0 -0.1882138744
C  C257  1  0.71320000  0.56590000  0.50280000  1.0 0.0805009463
C  C258  1  0.28680000  0.93410000  0.00280000  1.0 0.0805009463
C  C259  1  0.21320000  0.43410000  0.99720000  1.0 0.0805009463
C  C260  1  0.78680000  0.06590000  0.49720000  1.0 0.0805009463
C  C261  1  0.28680000  0.43410000  0.49720000  1.0 0.0805009463
C  C262  1  0.71320000  0.06590000  0.99720000  1.0 0.0805009463
C  C263  1  0.78680000  0.56590000  0.00280000  1.0 0.0805009463
C  C264  1  0.21320000  0.93410000  0.50280000  1.0 0.0805009463
C  C265  1  0.81340000  0.58910000  0.50400000  1.0 -0.160724761
C  C266  1  0.18660000  0.91090000  0.00400000  1.0 -0.160724761
C  C267  1  0.31340000  0.41090000  0.99600000  1.0 -0.160724761
C  C268  1  0.68660000  0.08910000  0.49600000  1.0 -0.160724761
C  C269  1  0.18660000  0.41090000  0.49600000  1.0 -0.160724761
C  C270  1  0.81340000  0.08910000  0.99600000  1.0 -0.160724761
C  C271  1  0.68660000  0.58910000  0.00400000  1.0 -0.160724761
C  C272  1  0.31340000  0.91090000  0.50400000  1.0 -0.160724761
C  C273  1  0.79750000  0.62480000  0.50510000  1.0 -0.1089246427
C  C274  1  0.20250000  0.87520000  0.00510000  1.0 -0.1089246427
C  C275  1  0.29750000  0.37520000  0.99490000  1.0 -0.1089246427
C  C276  1  0.70250000  0.12480000  0.49490000  1.0 -0.1089246427
C  C277  1  0.20250000  0.37520000  0.49490000  1.0 -0.1089246427
C  C278  1  0.79750000  0.12480000  0.99490000  1.0 -0.1089246427
C  C279  1  0.70250000  0.62480000  0.00510000  1.0 -0.1089246427
C  C280  1  0.29750000  0.87520000  0.50510000  1.0 -0.1089246427
C  C281  1  0.73500000  0.52610000  0.50100000  1.0 -0.0075325383
C  C282  1  0.26500000  0.97390000  0.00100000  1.0 -0.0075325383
C  C283  1  0.23500000  0.47390000  0.99900000  1.0 -0.0075325383
C  C284  1  0.76500000  0.02610000  0.49900000  1.0 -0.0075325383
C  C285  1  0.26500000  0.47390000  0.49900000  1.0 -0.0075325383
C  C286  1  0.73500000  0.02610000  0.99900000  1.0 -0.0075325383
C  C287  1  0.76500000  0.52610000  0.00100000  1.0 -0.0075325383
C  C288  1  0.23500000  0.97390000  0.50100000  1.0 -0.0075325383
C  C289  1  0.66590000  0.50210000  0.52170000  1.0 -0.160724761
C  C290  1  0.33410000  0.99790000  0.02170000  1.0 -0.160724761
C  C291  1  0.16590000  0.49790000  0.97830000  1.0 -0.160724761
C  C292  1  0.83410000  0.00210000  0.47830000  1.0 -0.160724761
C  C293  1  0.33410000  0.49790000  0.47830000  1.0 -0.160724761
C  C294  1  0.66590000  0.00210000  0.97830000  1.0 -0.160724761
C  C295  1  0.83410000  0.50210000  0.02170000  1.0 -0.160724761
C  C296  1  0.16590000  0.99790000  0.52170000  1.0 -0.160724761
C  C297  1  0.69070000  0.46610000  0.52190000  1.0 -0.160724761
C  C298  1  0.30930000  0.03390000  0.02190000  1.0 -0.160724761
C  C299  1  0.19070000  0.53390000  0.97810000  1.0 -0.160724761
C  C300  1  0.80930000  0.96610000  0.47810000  1.0 -0.160724761
C  C301  1  0.30930000  0.53390000  0.47810000  1.0 -0.160724761
C  C302  1  0.69070000  0.96610000  0.97810000  1.0 -0.160724761
C  C303  1  0.80930000  0.46610000  0.02190000  1.0 -0.160724761
C  C304  1  0.19070000  0.03390000  0.52190000  1.0 -0.160724761
C  C305  1  0.78110000  0.45020000  0.50160000  1.0 0.0094236376
C  C306  1  0.21890000  0.04980000  0.00160000  1.0 0.0094236376
C  C307  1  0.28110000  0.54980000  0.99840000  1.0 0.0094236376
C  C308  1  0.71890000  0.95020000  0.49840000  1.0 0.0094236376
C  C309  1  0.21890000  0.54980000  0.49840000  1.0 0.0094236376
C  C310  1  0.78110000  0.95020000  0.99840000  1.0 0.0094236376
C  C311  1  0.71890000  0.45020000  0.00160000  1.0 0.0094236376
C  C312  1  0.28110000  0.04980000  0.50160000  1.0 0.0094236376
C  C313  1  0.84950000  0.47350000  0.48030000  1.0 0.0701827978
C  C314  1  0.15050000  0.02650000  0.98030000  1.0 0.0701827978
C  C315  1  0.34950000  0.52650000  0.01970000  1.0 0.0701827978
C  C316  1  0.65050000  0.97350000  0.51970000  1.0 0.0701827978
C  C317  1  0.15050000  0.52650000  0.51970000  1.0 0.0701827978
C  C318  1  0.84950000  0.97350000  0.01970000  1.0 0.0701827978
C  C319  1  0.65050000  0.47350000  0.98030000  1.0 0.0701827978
C  C320  1  0.34950000  0.02650000  0.48030000  1.0 0.0701827978
C  C321  1  0.82520000  0.51020000  0.48010000  1.0 0.0625075852
C  C322  1  0.17480000  0.98980000  0.98010000  1.0 0.0625075852
C  C323  1  0.32520000  0.48980000  0.01990000  1.0 0.0625075852
C  C324  1  0.67480000  0.01020000  0.51990000  1.0 0.0625075852
C  C325  1  0.17480000  0.48980000  0.51990000  1.0 0.0625075852
C  C326  1  0.82520000  0.01020000  0.01990000  1.0 0.0625075852
C  C327  1  0.67480000  0.51020000  0.98010000  1.0 0.0625075852
C  C328  1  0.32520000  0.98980000  0.48010000  1.0 0.0625075852
C  C329  1  0.80680000  0.41030000  0.50130000  1.0 0.0917562852
C  C330  1  0.19320000  0.08970000  0.00130000  1.0 0.0805009463
C  C331  1  0.30680000  0.58970000  0.99870000  1.0 0.0917562852
C  C332  1  0.69320000  0.91030000  0.49870000  1.0 0.0917562852
C  C333  1  0.19320000  0.58970000  0.49870000  1.0 0.0917562852
C  C334  1  0.80680000  0.91030000  0.99870000  1.0 0.0917562852
C  C335  1  0.69320000  0.41030000  0.00130000  1.0 0.0917562852
C  C336  1  0.30680000  0.08970000  0.50130000  1.0 0.0917562852
C  C337  1  0.79930000  0.39120000  0.53270000  1.0 -0.1701145409
C  C338  1  0.20070000  0.10880000  0.03270000  1.0 -0.1701145409
C  C339  1  0.29930000  0.60880000  0.96730000  1.0 -0.1701145409
C  C340  1  0.70070000  0.89120000  0.46730000  1.0 -0.1701145409
C  C341  1  0.20070000  0.60880000  0.46730000  1.0 -0.1701145409
C  C342  1  0.79930000  0.89120000  0.96730000  1.0 -0.1701145409
C  C343  1  0.70070000  0.39120000  0.03270000  1.0 -0.1701145409
C  C344  1  0.29930000  0.10880000  0.53270000  1.0 -0.1701145409
C  C345  1  0.82330000  0.35280000  0.53060000  1.0 -0.1209511049
C  C346  1  0.17670000  0.14720000  0.03060000  1.0 -0.1209511049
C  C347  1  0.32330000  0.64720000  0.96940000  1.0 -0.1209511049
C  C348  1  0.67670000  0.85280000  0.46940000  1.0 -0.1209511049
C  C349  1  0.17670000  0.64720000  0.46940000  1.0 -0.1209511049
C  C350  1  0.82330000  0.85280000  0.96940000  1.0 -0.1209511049
C  C351  1  0.67670000  0.35280000  0.03060000  1.0 -0.1209511049
C  C352  1  0.32330000  0.14720000  0.53060000  1.0 -0.1209511049
C  C353  1  0.86010000  0.33650000  0.50000000  1.0 -0.0599701854
C  C354  1  0.13990000  0.16350000  0.00000000  1.0 -0.0599701854
C  C355  1  0.36010000  0.66350000  0.00000000  1.0 -0.0599701854
C  C356  1  0.63990000  0.83650000  0.50000000  1.0 -0.0599701854
C  C357  1  0.13990000  0.66350000  0.50000000  1.0 -0.0599701854
C  C358  1  0.86010000  0.83650000  0.00000000  1.0 -0.0599701854
C  C359  1  0.63990000  0.33650000  0.00000000  1.0 -0.0599701854
C  C360  1  0.36010000  0.16350000  0.50000000  1.0 -0.0599701854
C  C361  1  0.87230000  0.35730000  0.47080000  1.0 -0.0862222691
C  C362  1  0.12770000  0.14270000  0.97080000  1.0 -0.0862222691
C  C363  1  0.37230000  0.64270000  0.02920000  1.0 -0.0862222691
C  C364  1  0.62770000  0.85730000  0.52920000  1.0 -0.0810796193
C  C365  1  0.12770000  0.64270000  0.52920000  1.0 -0.0862222691
C  C366  1  0.87230000  0.85730000  0.02920000  1.0 -0.0862222691
C  C367  1  0.62770000  0.35730000  0.97080000  1.0 -0.0862222691
C  C368  1  0.37230000  0.14270000  0.47080000  1.0 -0.0862222691
C  C369  1  0.84240000  0.39340000  0.47070000  1.0 -0.160724761
C  C370  1  0.15760000  0.10660000  0.97070000  1.0 -0.160724761
C  C371  1  0.34240000  0.60660000  0.02930000  1.0 -0.1523213491
C  C372  1  0.65760000  0.89340000  0.52930000  1.0 -0.160724761
C  C373  1  0.15760000  0.60660000  0.52930000  1.0 -0.160724761
C  C374  1  0.84240000  0.89340000  0.02930000  1.0 -0.160724761
C  C375  1  0.65760000  0.39340000  0.97070000  1.0 -0.160724761
C  C376  1  0.34240000  0.10660000  0.47070000  1.0 -0.1523213491
C  C377  1  0.89590000  0.29930000  0.50060000  1.0 0.4882940729
C  C378  1  0.10410000  0.20070000  0.00060000  1.0 0.4882940729
C  C379  1  0.39590000  0.70070000  0.99940000  1.0 0.4882940729
C  C380  1  0.60410000  0.79930000  0.49940000  1.0 0.4882940729
C  C381  1  0.10410000  0.70070000  0.49940000  1.0 0.4882940729
C  C382  1  0.89590000  0.79930000  0.99940000  1.0 0.4882940729
C  C383  1  0.60410000  0.29930000  0.00060000  1.0 0.4882940729
C  C384  1  0.39590000  0.20070000  0.50060000  1.0 0.4882940729
C  C385  1  0.39800000  0.69510000  0.14140000  1.0 0.5506533985
C  C386  1  0.60200000  0.80490000  0.64140000  1.0 0.5506533985
C  C387  1  0.89800000  0.30490000  0.35860000  1.0 0.5506533985
C  C388  1  0.10200000  0.19510000  0.85860000  1.0 0.5506533985
C  C389  1  0.60200000  0.30490000  0.85860000  1.0 0.5506533985
C  C390  1  0.39800000  0.19510000  0.35860000  1.0 0.5506533985
C  C391  1  0.10200000  0.69510000  0.64140000  1.0 0.5506533985
C  C392  1  0.89800000  0.80490000  0.14140000  1.0 0.5506533985
C  C393  1  0.44970000  0.65780000  0.14180000  1.0 -0.0075325383
C  C394  1  0.55030000  0.84220000  0.64180000  1.0 -0.0075325383
C  C395  1  0.94970000  0.34220000  0.35820000  1.0 -0.0075325383
C  C396  1  0.05030000  0.15780000  0.85820000  1.0 -0.0075325383
C  C397  1  0.55030000  0.34220000  0.85820000  1.0 -0.0075325383
C  C398  1  0.44970000  0.15780000  0.35820000  1.0 -0.0075325383
C  C399  1  0.05030000  0.65780000  0.64180000  1.0 -0.0075325383
C  C400  1  0.94970000  0.84220000  0.14180000  1.0 -0.0075325383
C  C401  1  0.37210000  0.62940000  0.15050000  1.0 -0.2698225553
C  C402  1  0.62790000  0.87060000  0.65050000  1.0 -0.2698225553
C  C403  1  0.87210000  0.37060000  0.34950000  1.0 -0.2698225553
C  C404  1  0.12790000  0.12940000  0.84950000  1.0 -0.2698225553
C  C405  1  0.62790000  0.37060000  0.84950000  1.0 -0.2698225553
C  C406  1  0.37210000  0.12940000  0.34950000  1.0 -0.2698225553
C  C407  1  0.12790000  0.62940000  0.65050000  1.0 -0.2698225553
C  C408  1  0.87210000  0.87060000  0.15050000  1.0 -0.2698225553
C  C409  1  0.42150000  0.59510000  0.15050000  1.0 0.2513573232
C  C410  1  0.57850000  0.90490000  0.65050000  1.0 0.2600999597
C  C411  1  0.92150000  0.40490000  0.34950000  1.0 0.2600999597
C  C412  1  0.07850000  0.09510000  0.84950000  1.0 0.2600999597
C  C413  1  0.57850000  0.40490000  0.84950000  1.0 0.2600999597
C  C414  1  0.42150000  0.09510000  0.34950000  1.0 0.2600999597
C  C415  1  0.07850000  0.59510000  0.65050000  1.0 0.2600999597
C  C416  1  0.92150000  0.90490000  0.15050000  1.0 0.2513573232
C  C417  1  0.54780000  0.58990000  0.14350000  1.0 -0.4610568168
C  C418  1  0.45220000  0.91010000  0.64350000  1.0 -0.4610568168
C  C419  1  0.04780000  0.41010000  0.35650000  1.0 -0.4610568168
C  C420  1  0.95220000  0.08990000  0.85650000  1.0 -0.4610568168
C  C421  1  0.45220000  0.41010000  0.85650000  1.0 -0.4610568168
C  C422  1  0.54780000  0.08990000  0.35650000  1.0 -0.4610568168
C  C423  1  0.95220000  0.58990000  0.64350000  1.0 -0.4610568168
C  C424  1  0.04780000  0.91010000  0.14350000  1.0 -0.4610568168
C  C425  1  0.62320000  0.61860000  0.13620000  1.0 0.2600999597
C  C426  1  0.37680000  0.88140000  0.63620000  1.0 0.2600999597
C  C427  1  0.12320000  0.38140000  0.36380000  1.0 0.2600999597
C  C428  1  0.87680000  0.11860000  0.86380000  1.0 0.2600999597
C  C429  1  0.37680000  0.38140000  0.86380000  1.0 0.2600999597
C  C430  1  0.62320000  0.11860000  0.36380000  1.0 0.2600999597
C  C431  1  0.87680000  0.61860000  0.63620000  1.0 0.2600999597
C  C432  1  0.12320000  0.88140000  0.13620000  1.0 0.2600999597
C  C433  1  0.57640000  0.65300000  0.13490000  1.0 -0.4007708947
C  C434  1  0.42360000  0.84700000  0.63490000  1.0 -0.4007708947
C  C435  1  0.07640000  0.34700000  0.36510000  1.0 -0.4007708947
C  C436  1  0.92360000  0.15300000  0.86510000  1.0 -0.4007708947
C  C437  1  0.42360000  0.34700000  0.86510000  1.0 -0.4007708947
C  C438  1  0.57640000  0.15300000  0.36510000  1.0 -0.4007708947
C  C439  1  0.92360000  0.65300000  0.63490000  1.0 -0.4007708947
C  C440  1  0.07640000  0.84700000  0.13490000  1.0 -0.4007708947
C  C441  1  0.38830000  0.53250000  0.15900000  1.0 -0.0862222691
C  C442  1  0.61170000  0.96750000  0.65900000  1.0 -0.0862222691
C  C443  1  0.88830000  0.46750000  0.34100000  1.0 -0.0862222691
C  C444  1  0.11170000  0.03250000  0.84100000  1.0 -0.0862222691
C  C445  1  0.61170000  0.46750000  0.84100000  1.0 -0.0862222691
C  C446  1  0.38830000  0.03250000  0.34100000  1.0 -0.0862222691
C  C447  1  0.11170000  0.53250000  0.65900000  1.0 -0.0862222691
C  C448  1  0.88830000  0.96750000  0.15900000  1.0 -0.0862222691
C  C449  1  0.29300000  0.50740000  0.17170000  1.0 -0.1835898305
C  C450  1  0.70700000  0.99260000  0.67170000  1.0 -0.1835898305
C  C451  1  0.79300000  0.49260000  0.32830000  1.0 -0.1835898305
C  C452  1  0.20700000  0.00740000  0.82830000  1.0 -0.1835898305
C  C453  1  0.70700000  0.49260000  0.82830000  1.0 -0.1835898305
C  C454  1  0.29300000  0.00740000  0.32830000  1.0 -0.1835898305
C  C455  1  0.20700000  0.50740000  0.67170000  1.0 -0.1835898305
C  C456  1  0.79300000  0.99260000  0.17170000  1.0 -0.1835898305
C  C457  1  0.32400000  0.45010000  0.18970000  1.0 -0.0599701854
C  C458  1  0.67600000  0.04990000  0.68970000  1.0 -0.0599701854
C  C459  1  0.82400000  0.54990000  0.31030000  1.0 -0.0599701854
C  C460  1  0.17600000  0.95010000  0.81030000  1.0 -0.0599701854
C  C461  1  0.67600000  0.54990000  0.81030000  1.0 -0.0599701854
C  C462  1  0.32400000  0.95010000  0.31030000  1.0 -0.0599701854
C  C463  1  0.17600000  0.45010000  0.68970000  1.0 -0.0599701854
C  C464  1  0.82400000  0.04990000  0.18970000  1.0 -0.0599701854
C  C465  1  0.35000000  0.41530000  0.18960000  1.0 -0.0485118316
C  C466  1  0.65000000  0.08470000  0.68960000  1.0 -0.0485118316
C  C467  1  0.85000000  0.58470000  0.31040000  1.0 -0.0485118316
C  C468  1  0.15000000  0.91530000  0.81040000  1.0 -0.0485118316
C  C469  1  0.65000000  0.58470000  0.81040000  1.0 -0.0485118316
C  C470  1  0.35000000  0.91530000  0.31040000  1.0 -0.0485118316
C  C471  1  0.15000000  0.41530000  0.68960000  1.0 -0.0485118316
C  C472  1  0.85000000  0.08470000  0.18960000  1.0 -0.0485118316
C  C473  1  0.49730000  0.37780000  0.18160000  1.0 -0.0386742101
C  C474  1  0.50270000  0.12220000  0.68160000  1.0 -0.0386742101
C  C475  1  0.99730000  0.62220000  0.31840000  1.0 -0.0386742101
C  C476  1  0.00270000  0.87780000  0.81840000  1.0 -0.0386742101
C  C477  1  0.50270000  0.62220000  0.81840000  1.0 -0.0386742101
C  C478  1  0.49730000  0.87780000  0.31840000  1.0 -0.0386742101
C  C479  1  0.00270000  0.37780000  0.68160000  1.0 -0.0386742101
C  C480  1  0.99730000  0.12220000  0.18160000  1.0 -0.0386742101
C  C481  1  0.59390000  0.36230000  0.16780000  1.0 -0.1882138744
C  C482  1  0.40610000  0.13770000  0.66780000  1.0 -0.1882138744
C  C483  1  0.09390000  0.63770000  0.33220000  1.0 -0.1882138744
C  C484  1  0.90610000  0.86230000  0.83220000  1.0 -0.1835898305
C  C485  1  0.40610000  0.63770000  0.83220000  1.0 -0.1835898305
C  C486  1  0.59390000  0.86230000  0.33220000  1.0 -0.1882138744
C  C487  1  0.90610000  0.36230000  0.66780000  1.0 -0.1882138744
C  C488  1  0.09390000  0.13770000  0.16780000  1.0 -0.1835898305
C  C489  1  0.79030000  0.37390000  0.13920000  1.0 0.2678981925
C  C490  1  0.20970000  0.12610000  0.63920000  1.0 0.2678981925
C  C491  1  0.29030000  0.62610000  0.36080000  1.0 0.2678981925
C  C492  1  0.70970000  0.87390000  0.86080000  1.0 0.2678981925
C  C493  1  0.20970000  0.62610000  0.86080000  1.0 0.2678981925
C  C494  1  0.79030000  0.87390000  0.36080000  1.0 0.2678981925
C  C495  1  0.70970000  0.37390000  0.63920000  1.0 0.2678981925
C  C496  1  0.29030000  0.12610000  0.13920000  1.0 0.2678981925
C  C497  1  0.81010000  0.34440000  0.12340000  1.0 -0.2698225553
C  C498  1  0.18990000  0.15560000  0.62340000  1.0 -0.2698225553
C  C499  1  0.31010000  0.65560000  0.37660000  1.0 -0.2698225553
C  C500  1  0.68990000  0.84440000  0.87660000  1.0 -0.2698225553
C  C501  1  0.18990000  0.65560000  0.87660000  1.0 -0.2698225553
C  C502  1  0.81010000  0.84440000  0.37660000  1.0 -0.2698225553
C  C503  1  0.68990000  0.34440000  0.62340000  1.0 -0.2698225553
C  C504  1  0.31010000  0.15560000  0.12340000  1.0 -0.2698225553
C  C505  1  0.90990000  0.33710000  0.10130000  1.0 0.0027672046
C  C506  1  0.09010000  0.16290000  0.60130000  1.0 0.0027672046
C  C507  1  0.40990000  0.66290000  0.39870000  1.0 0.0027672046
C  C508  1  0.59010000  0.83710000  0.89870000  1.0 0.0094236376
C  C509  1  0.09010000  0.66290000  0.89870000  1.0 0.0094236376
C  C510  1  0.90990000  0.83710000  0.39870000  1.0 0.0027672046
C  C511  1  0.59010000  0.33710000  0.60130000  1.0 0.0027672046
C  C512  1  0.40990000  0.16290000  0.10130000  1.0 0.0027672046
C  C513  1  0.99530000  0.36550000  0.09110000  1.0 -0.27920144
C  C514  1  0.00470000  0.13450000  0.59110000  1.0 -0.27920144
C  C515  1  0.49530000  0.63450000  0.40890000  1.0 -0.27920144
C  C516  1  0.50470000  0.86550000  0.90890000  1.0 -0.27920144
C  C517  1  0.00470000  0.63450000  0.90890000  1.0 -0.27920144
C  C518  1  0.99530000  0.86550000  0.40890000  1.0 -0.27920144
C  C519  1  0.50470000  0.36550000  0.59110000  1.0 -0.27920144
C  C520  1  0.49530000  0.13450000  0.09110000  1.0 -0.27920144
C  C521  1  0.97490000  0.39770000  0.10580000  1.0 0.2513573232
C  C522  1  0.02510000  0.10230000  0.60580000  1.0 0.2513573232
C  C523  1  0.47490000  0.60230000  0.39420000  1.0 0.2513573232
C  C524  1  0.52510000  0.89770000  0.89420000  1.0 0.2513573232
C  C525  1  0.02510000  0.60230000  0.89420000  1.0 0.2513573232
C  C526  1  0.97490000  0.89770000  0.39420000  1.0 0.2513573232
C  C527  1  0.52510000  0.39770000  0.60580000  1.0 0.2513573232
C  C528  1  0.47490000  0.10230000  0.10580000  1.0 0.2513573232
C  C529  1  0.87780000  0.40330000  0.13010000  1.0 -0.4481680686
C  C530  1  0.12220000  0.09670000  0.63010000  1.0 -0.4481680686
C  C531  1  0.37780000  0.59670000  0.36990000  1.0 -0.4481680686
C  C532  1  0.62220000  0.90330000  0.86990000  1.0 -0.4481680686
C  C533  1  0.12220000  0.59670000  0.86990000  1.0 -0.4481680686
C  C534  1  0.87780000  0.90330000  0.36990000  1.0 -0.4481680686
C  C535  1  0.62220000  0.40330000  0.63010000  1.0 -0.4481680686
C  C536  1  0.37780000  0.09670000  0.13010000  1.0 -0.4481680686
C  C537  1  0.93500000  0.30160000  0.08410000  1.0 0.2678981925
C  C538  1  0.06500000  0.19840000  0.58410000  1.0 0.2678981925
C  C539  1  0.43500000  0.69840000  0.41590000  1.0 0.2678981925
C  C540  1  0.56500000  0.80160000  0.91590000  1.0 0.2678981925
C  C541  1  0.06500000  0.69840000  0.91590000  1.0 0.2678981925
C  C542  1  0.93500000  0.80160000  0.41590000  1.0 0.2678981925
C  C543  1  0.56500000  0.30160000  0.58410000  1.0 0.2678981925
C  C544  1  0.43500000  0.19840000  0.08410000  1.0 0.2678981925
C  C545  1  0.02020000  0.45960000  0.10680000  1.0 -0.0710302698
C  C546  1  0.97980000  0.04040000  0.60680000  1.0 -0.0710302698
C  C547  1  0.52020000  0.54040000  0.39320000  1.0 -0.0710302698
C  C548  1  0.47980000  0.95960000  0.89320000  1.0 -0.0710302698
C  C549  1  0.97980000  0.54040000  0.89320000  1.0 -0.0710302698
C  C550  1  0.02020000  0.95960000  0.39320000  1.0 -0.0710302698
C  C551  1  0.47980000  0.45960000  0.60680000  1.0 -0.0710302698
C  C552  1  0.52020000  0.04040000  0.10680000  1.0 -0.0710302698
C  C553  1  0.10050000  0.48660000  0.08940000  1.0 -0.0810796193
C  C554  1  0.89950000  0.01340000  0.58940000  1.0 -0.0810796193
C  C555  1  0.60050000  0.51340000  0.41060000  1.0 -0.0810796193
C  C556  1  0.39950000  0.98660000  0.91060000  1.0 -0.0810796193
C  C557  1  0.89950000  0.51340000  0.91060000  1.0 -0.0810796193
C  C558  1  0.10050000  0.98660000  0.41060000  1.0 -0.0810796193
C  C559  1  0.39950000  0.48660000  0.58940000  1.0 -0.0810796193
C  C560  1  0.60050000  0.01340000  0.08940000  1.0 -0.0810796193
C  C561  1  0.12460000  0.54890000  0.08780000  1.0 -0.1701145409
C  C562  1  0.87540000  0.95110000  0.58780000  1.0 -0.1701145409
C  C563  1  0.62460000  0.45110000  0.41220000  1.0 -0.1701145409
C  C564  1  0.37540000  0.04890000  0.91220000  1.0 -0.1701145409
C  C565  1  0.87540000  0.45110000  0.91220000  1.0 -0.1701145409
C  C566  1  0.12460000  0.04890000  0.41220000  1.0 -0.1701145409
C  C567  1  0.37540000  0.54890000  0.58780000  1.0 -0.1701145409
C  C568  1  0.62460000  0.95110000  0.08780000  1.0 -0.1701145409
C  C569  1  0.10220000  0.58240000  0.11170000  1.0 -0.0810796193
C  C570  1  0.89780000  0.91760000  0.61170000  1.0 -0.0810796193
C  C571  1  0.60220000  0.41760000  0.38830000  1.0 -0.0810796193
C  C572  1  0.39780000  0.08240000  0.88830000  1.0 -0.0810796193
C  C573  1  0.89780000  0.41760000  0.88830000  1.0 -0.0810796193
C  C574  1  0.10220000  0.08240000  0.38830000  1.0 -0.0810796193
C  C575  1  0.39780000  0.58240000  0.61170000  1.0 -0.0810796193
C  C576  1  0.60220000  0.91760000  0.11170000  1.0 -0.0810796193
C  C577  1  0.91800000  0.61450000  0.09830000  1.0 0.0362716504
C  C578  1  0.08200000  0.88550000  0.59830000  1.0 0.0362716504
C  C579  1  0.41800000  0.38550000  0.40170000  1.0 0.0362716504
C  C580  1  0.58200000  0.11450000  0.90170000  1.0 0.0362716504
C  C581  1  0.08200000  0.38550000  0.90170000  1.0 0.0362716504
C  C582  1  0.91800000  0.11450000  0.40170000  1.0 0.0362716504
C  C583  1  0.58200000  0.61450000  0.59830000  1.0 0.0362716504
C  C584  1  0.41800000  0.88550000  0.09830000  1.0 0.0362716504
C  C585  1  0.81880000  0.63450000  0.11210000  1.0 -0.0862222691
C  C586  1  0.18120000  0.86550000  0.61210000  1.0 -0.0862222691
C  C587  1  0.31880000  0.36550000  0.38790000  1.0 -0.0862222691
C  C588  1  0.68120000  0.13450000  0.88790000  1.0 -0.0862222691
C  C589  1  0.18120000  0.36550000  0.88790000  1.0 -0.0862222691
C  C590  1  0.81880000  0.13450000  0.38790000  1.0 -0.0862222691
C  C591  1  0.68120000  0.63450000  0.61210000  1.0 -0.0862222691
C  C592  1  0.31880000  0.86550000  0.11210000  1.0 -0.0862222691
C  C593  1  0.55600000  0.67880000  0.24240000  1.0 0.2600999597
C  C594  1  0.44400000  0.82120000  0.74240000  1.0 0.2600999597
C  C595  1  0.05600000  0.32120000  0.25760000  1.0 0.2600999597
C  C596  1  0.94400000  0.17880000  0.75760000  1.0 0.2600999597
C  C597  1  0.44400000  0.32120000  0.75760000  1.0 0.2600999597
C  C598  1  0.55600000  0.17880000  0.25760000  1.0 0.2600999597
C  C599  1  0.94400000  0.67880000  0.74240000  1.0 0.2600999597
C  C600  1  0.05600000  0.82120000  0.24240000  1.0 0.2600999597
C  C601  1  0.52830000  0.56490000  0.25830000  1.0 -0.0040415522
C  C602  1  0.47170000  0.93510000  0.75830000  1.0 -0.0040415522
C  C603  1  0.02830000  0.43510000  0.24170000  1.0 -0.0040415522
C  C604  1  0.97170000  0.06490000  0.74170000  1.0 -0.0040415522
C  C605  1  0.47170000  0.43510000  0.74170000  1.0 -0.0040415522
C  C606  1  0.52830000  0.06490000  0.24170000  1.0 -0.0040415522
C  C607  1  0.97170000  0.56490000  0.75830000  1.0 -0.0040415522
C  C608  1  0.02830000  0.93510000  0.25830000  1.0 -0.0040415522
C  C609  1  0.49060000  0.58840000  0.28460000  1.0 -0.0386742101
C  C610  1  0.50940000  0.91160000  0.78460000  1.0 -0.0386742101
C  C611  1  0.99060000  0.41160000  0.21540000  1.0 -0.0386742101
C  C612  1  0.00940000  0.08840000  0.71540000  1.0 -0.0485118316
C  C613  1  0.50940000  0.41160000  0.71540000  1.0 -0.0386742101
C  C614  1  0.49060000  0.08840000  0.21540000  1.0 -0.0386742101
C  C615  1  0.00940000  0.58840000  0.78460000  1.0 -0.0485118316
C  C616  1  0.99060000  0.91160000  0.28460000  1.0 -0.0386742101
C  C617  1  0.50050000  0.62520000  0.27970000  1.0 -0.0710302698
C  C618  1  0.49950000  0.87480000  0.77970000  1.0 -0.0710302698
C  C619  1  0.00050000  0.37480000  0.22030000  1.0 -0.0710302698
C  C620  1  0.99950000  0.12520000  0.72030000  1.0 -0.0710302698
C  C621  1  0.49950000  0.37480000  0.72030000  1.0 -0.0710302698
C  C622  1  0.50050000  0.12520000  0.22030000  1.0 -0.0710302698
C  C623  1  0.99950000  0.62520000  0.77970000  1.0 -0.0710302698
C  C624  1  0.00050000  0.87480000  0.27970000  1.0 -0.0710302698
C  C625  1  0.54810000  0.63860000  0.24850000  1.0 -0.0710302698
C  C626  1  0.45190000  0.86140000  0.74850000  1.0 -0.0710302698
C  C627  1  0.04810000  0.36140000  0.25150000  1.0 -0.0710302698
C  C628  1  0.95190000  0.13860000  0.75150000  1.0 -0.0710302698
C  C629  1  0.45190000  0.36140000  0.75150000  1.0 -0.0710302698
C  C630  1  0.54810000  0.13860000  0.25150000  1.0 -0.0710302698
C  C631  1  0.95190000  0.63860000  0.74850000  1.0 -0.0710302698
C  C632  1  0.04810000  0.86140000  0.24850000  1.0 -0.0710302698
C  C633  1  0.58580000  0.61520000  0.22220000  1.0 -0.0201456849
C  C634  1  0.41420000  0.88480000  0.72220000  1.0 -0.0201456849
C  C635  1  0.08580000  0.38480000  0.27780000  1.0 -0.0201456849
C  C636  1  0.91420000  0.11520000  0.77780000  1.0 -0.0201456849
C  C637  1  0.41420000  0.38480000  0.77780000  1.0 -0.0201456849
C  C638  1  0.58580000  0.11520000  0.27780000  1.0 -0.0201456849
C  C639  1  0.91420000  0.61520000  0.72220000  1.0 -0.0201456849
C  C640  1  0.08580000  0.88480000  0.22220000  1.0 -0.0201456849
C  C641  1  0.57590000  0.57840000  0.22710000  1.0 -0.0201456849
C  C642  1  0.42410000  0.92160000  0.72710000  1.0 -0.0201456849
C  C643  1  0.07590000  0.42160000  0.27290000  1.0 -0.0201456849
C  C644  1  0.92410000  0.07840000  0.77290000  1.0 -0.0201456849
C  C645  1  0.42410000  0.42160000  0.77290000  1.0 -0.0201456849
C  C646  1  0.57590000  0.07840000  0.27290000  1.0 -0.0201456849
C  C647  1  0.92410000  0.57840000  0.72710000  1.0 -0.0201456849
C  C648  1  0.07590000  0.92160000  0.22710000  1.0 -0.0201456849
C  C649  1  0.25600000  0.44510000  0.17000000  1.0 -0.0075325383
C  C650  1  0.74400000  0.05490000  0.67000000  1.0 -0.0075325383
C  C651  1  0.75600000  0.55490000  0.33000000  1.0 -0.0075325383
C  C652  1  0.24400000  0.94510000  0.83000000  1.0 -0.0075325383
C  C653  1  0.74400000  0.55490000  0.83000000  1.0 -0.0075325383
C  C654  1  0.25600000  0.94510000  0.33000000  1.0 -0.0075325383
C  C655  1  0.24400000  0.44510000  0.67000000  1.0 -0.0075325383
C  C656  1  0.75600000  0.05490000  0.17000000  1.0 -0.0075325383
C  C657  1  0.28800000  0.41210000  0.16100000  1.0 -0.1089246427
C  C658  1  0.71200000  0.08790000  0.66100000  1.0 -0.1089246427
C  C659  1  0.78800000  0.58790000  0.33900000  1.0 -0.1089246427
C  C660  1  0.21200000  0.91210000  0.83900000  1.0 -0.1089246427
C  C661  1  0.71200000  0.58790000  0.83900000  1.0 -0.1089246427
C  C662  1  0.28800000  0.91210000  0.33900000  1.0 -0.1089246427
C  C663  1  0.21200000  0.41210000  0.66100000  1.0 -0.1089246427
C  C664  1  0.78800000  0.08790000  0.16100000  1.0 -0.1089246427
C  C665  1  0.88200000  0.29200000  0.08500000  1.0 0.2513573232
C  C666  1  0.11800000  0.20800000  0.58500000  1.0 0.2513573232
C  C667  1  0.38200000  0.70800000  0.41500000  1.0 0.2513573232
C  C668  1  0.61800000  0.79200000  0.91500000  1.0 0.2513573232
C  C669  1  0.11800000  0.70800000  0.91500000  1.0 0.2513573232
C  C670  1  0.88200000  0.79200000  0.41500000  1.0 0.2513573232
C  C671  1  0.61800000  0.29200000  0.58500000  1.0 0.2513573232
C  C672  1  0.38200000  0.20800000  0.08500000  1.0 0.2513573232
C  C673  1  0.97200000  0.62480000  0.11970000  1.0 0.0027672046
C  C674  1  0.02800000  0.87520000  0.61970000  1.0 0.0027672046
C  C675  1  0.47200000  0.37520000  0.38030000  1.0 0.0027672046
C  C676  1  0.52800000  0.12480000  0.88030000  1.0 0.0027672046
C  C677  1  0.02800000  0.37520000  0.88030000  1.0 0.0027672046
C  C678  1  0.97200000  0.12480000  0.38030000  1.0 0.0027672046
C  C679  1  0.52800000  0.62480000  0.61970000  1.0 0.0027672046
C  C680  1  0.47200000  0.87520000  0.11970000  1.0 0.0027672046
C  C681  1  0.83900000  0.71330000  0.28180000  1.0 -0.348937236
C  C682  1  0.74900000  0.78200000  0.29590000  1.0 -0.348937236
C  C683  1  0.16100000  0.78670000  0.78180000  1.0 -0.348937236
C  C684  1  0.25100000  0.71800000  0.79590000  1.0 -0.348937236
C  C685  1  0.33900000  0.28670000  0.21820000  1.0 -0.348937236
C  C686  1  0.24900000  0.21800000  0.20410000  1.0 -0.348937236
C  C687  1  0.66100000  0.21330000  0.71820000  1.0 -0.348937236
C  C688  1  0.75100000  0.28200000  0.70410000  1.0 -0.348937236
C  C689  1  0.16100000  0.28670000  0.71820000  1.0 -0.348937236
C  C690  1  0.25100000  0.21800000  0.70410000  1.0 -0.348937236
C  C691  1  0.83900000  0.21330000  0.21820000  1.0 -0.348937236
C  C692  1  0.74900000  0.28200000  0.20410000  1.0 -0.348937236
C  C693  1  0.66100000  0.71330000  0.78180000  1.0 -0.348937236
C  C694  1  0.75100000  0.78200000  0.79590000  1.0 -0.348937236
C  C695  1  0.33900000  0.78670000  0.28180000  1.0 -0.348937236
C  C696  1  0.24900000  0.71800000  0.29590000  1.0 -0.348937236
C  C697  1  0.71940000  0.23090000  0.43170000  1.0 -0.348937236
C  C698  1  0.58220000  0.28720000  0.42600000  1.0 -0.3943920503
C  C699  1  0.28060000  0.26910000  0.93170000  1.0 -0.348937236
C  C700  1  0.41780000  0.21280000  0.92600000  1.0 -0.3943920503
C  C701  1  0.21940000  0.76910000  0.06830000  1.0 -0.348937236
C  C702  1  0.08220000  0.71280000  0.07400000  1.0 -0.3943920503
C  C703  1  0.78060000  0.73090000  0.56830000  1.0 -0.348937236
C  C704  1  0.91780000  0.78720000  0.57400000  1.0 -0.3943920503
C  C705  1  0.28060000  0.76910000  0.56830000  1.0 -0.348937236
C  C706  1  0.41780000  0.71280000  0.57400000  1.0 -0.3943920503
C  C707  1  0.71940000  0.73090000  0.06830000  1.0 -0.348937236
C  C708  1  0.58220000  0.78720000  0.07400000  1.0 -0.3943920503
C  C709  1  0.78060000  0.23090000  0.93170000  1.0 -0.348937236
C  C710  1  0.91780000  0.28720000  0.92600000  1.0 -0.3943920503
C  C711  1  0.21940000  0.26910000  0.43170000  1.0 -0.348937236
C  C712  1  0.08220000  0.21280000  0.42600000  1.0 -0.3943920503
N  N1  1  0.37250000  0.52208000  0.31257000  1.0 -0.348937236
N  N2  1  0.62750000  0.97792000  0.81257000  1.0 -0.348937236
N  N3  1  0.87250000  0.47792000  0.18743000  1.0 -0.348937236
N  N4  1  0.12750000  0.02208000  0.68743000  1.0 -0.348937236
N  N5  1  0.62750000  0.47792000  0.68743000  1.0 -0.348937236
N  N6  1  0.37250000  0.02208000  0.18743000  1.0 -0.348937236
N  N7  1  0.12750000  0.52208000  0.81257000  1.0 -0.348937236
N  N8  1  0.87250000  0.97792000  0.31257000  1.0 -0.348937236
N  N9  1  0.38740000  0.46294000  0.32260000  1.0 -0.4846827308
N  N10  1  0.61260000  0.03706000  0.82260000  1.0 -0.4846827308
N  N11  1  0.88740000  0.53706000  0.17740000  1.0 -0.4846827308
N  N12  1  0.11260000  0.96294000  0.67740000  1.0 -0.4846827308
N  N13  1  0.61260000  0.53706000  0.67740000  1.0 -0.4846827308
N  N14  1  0.38740000  0.96294000  0.17740000  1.0 -0.4846827308
N  N15  1  0.11260000  0.46294000  0.82260000  1.0 -0.4846827308
N  N16  1  0.88740000  0.03706000  0.32260000  1.0 -0.4846827308
N  N17  1  0.90540000  0.52440000  0.45480000  1.0 -0.302548177
N  N18  1  0.09460000  0.97560000  0.95480000  1.0 -0.302548177
N  N19  1  0.40540000  0.47560000  0.04520000  1.0 -0.302548177
N  N20  1  0.59460000  0.02440000  0.54520000  1.0 -0.302548177
N  N21  1  0.09460000  0.47560000  0.54520000  1.0 -0.302548177
N  N22  1  0.90540000  0.02440000  0.04520000  1.0 -0.302548177
N  N23  1  0.59460000  0.52440000  0.95480000  1.0 -0.302548177
N  N24  1  0.40540000  0.97560000  0.45480000  1.0 -0.302548177
N  N25  1  0.94490000  0.46640000  0.45720000  1.0 -0.4007708947
N  N26  1  0.05510000  0.03360000  0.95720000  1.0 -0.4007708947
N  N27  1  0.44490000  0.53360000  0.04280000  1.0 -0.4007708947
N  N28  1  0.55510000  0.96640000  0.54280000  1.0 -0.4007708947
N  N29  1  0.05510000  0.53360000  0.54280000  1.0 -0.4007708947
N  N30  1  0.94490000  0.96640000  0.04280000  1.0 -0.4007708947
N  N31  1  0.55510000  0.46640000  0.95720000  1.0 -0.4007708947
N  N32  1  0.44490000  0.03360000  0.45720000  1.0 -0.4007708947
N  N33  1  0.82500000  0.75310000  0.27880000  1.0 -0.1388188769
N  N34  1  0.17500000  0.74690000  0.77880000  1.0 -0.1388188769
N  N35  1  0.32500000  0.24690000  0.22120000  1.0 -0.1388188769
N  N36  1  0.67500000  0.25310000  0.72120000  1.0 -0.1388188769
N  N37  1  0.17500000  0.24690000  0.72120000  1.0 -0.1388188769
N  N38  1  0.82500000  0.25310000  0.22120000  1.0 -0.1388188769
N  N39  1  0.67500000  0.75310000  0.77880000  1.0 -0.1388188769
N  N40  1  0.32500000  0.74690000  0.27880000  1.0 -0.1388188769
N  N41  1  0.59250000  0.24680000  0.42950000  1.0 -0.1209511049
N  N42  1  0.40750000  0.25320000  0.92950000  1.0 -0.1209511049
N  N43  1  0.09250000  0.75320000  0.07050000  1.0 -0.1209511049
N  N44  1  0.90750000  0.74680000  0.57050000  1.0 -0.1209511049
N  N45  1  0.40750000  0.75320000  0.57050000  1.0 -0.1209511049
N  N46  1  0.59250000  0.74680000  0.07050000  1.0 -0.1209511049
N  N47  1  0.90750000  0.24680000  0.92950000  1.0 -0.1209511049
N  N48  1  0.09250000  0.25320000  0.42950000  1.0 -0.1209511049
O  O1  1  0.61450000  0.68900000  0.21570000  1.0 -0.3750558044
O  O2  1  0.38550000  0.81100000  0.71570000  1.0 -0.3739724303
O  O3  1  0.11450000  0.31100000  0.28430000  1.0 -0.3739724303
O  O4  1  0.88550000  0.18900000  0.78430000  1.0 -0.3750558044
O  O5  1  0.38550000  0.31100000  0.78430000  1.0 -0.3750558044
O  O6  1  0.61450000  0.18900000  0.28430000  1.0 -0.3739724303
O  O7  1  0.88550000  0.68900000  0.71570000  1.0 -0.3739724303
O  O8  1  0.11450000  0.81100000  0.21570000  1.0 -0.3750558044
O  O9  1  0.43400000  0.69440000  0.23670000  1.0 -0.1089246427
O  O10  1  0.56600000  0.80560000  0.73670000  1.0 -0.1089246427
O  O11  1  0.93400000  0.30560000  0.26330000  1.0 -0.1089246427
O  O12  1  0.06600000  0.19440000  0.76330000  1.0 -0.1089246427
O  O13  1  0.56600000  0.30560000  0.76330000  1.0 -0.1089246427
O  O14  1  0.43400000  0.19440000  0.26330000  1.0 -0.1089246427
O  O15  1  0.06600000  0.69440000  0.73670000  1.0 -0.1044321949
O  O16  1  0.93400000  0.80560000  0.23670000  1.0 -0.1089246427
O  O17  1  0.64190000  0.27740000  0.28110000  1.0 -0.415074415
O  O18  1  0.35810000  0.22260000  0.78110000  1.0 -0.415074415
O  O19  1  0.14190000  0.72260000  0.21890000  1.0 -0.415074415
O  O20  1  0.85810000  0.77740000  0.71890000  1.0 -0.415074415
O  O21  1  0.35810000  0.72260000  0.71890000  1.0 -0.415074415
O  O22  1  0.64190000  0.77740000  0.21890000  1.0 -0.415074415
O  O23  1  0.85810000  0.27740000  0.78110000  1.0 -0.415074415
O  O24  1  0.14190000  0.22260000  0.28110000  1.0 -0.415074415
O  O25  1  0.46060000  0.27900000  0.30050000  1.0 -0.4132887828
O  O26  1  0.53940000  0.22100000  0.80050000  1.0 -0.4132887828
O  O27  1  0.96060000  0.72100000  0.19950000  1.0 -0.4132887828
O  O28  1  0.03940000  0.77900000  0.69950000  1.0 -0.4132887828
O  O29  1  0.53940000  0.72100000  0.69950000  1.0 -0.4132887828
O  O30  1  0.46060000  0.77900000  0.19950000  1.0 -0.4132887828
O  O31  1  0.03940000  0.27900000  0.80050000  1.0 -0.4132887828
O  O32  1  0.96060000  0.22100000  0.30050000  1.0 -0.4132887828
O  O33  1  0.76160000  0.69640000  0.49120000  1.0 -0.5424681152
O  O34  1  0.23840000  0.80360000  0.99120000  1.0 -0.5424681152
O  O35  1  0.26160000  0.30360000  0.00880000  1.0 -0.5424681152
O  O36  1  0.73840000  0.19640000  0.50880000  1.0 -0.5424681152
O  O37  1  0.23840000  0.30360000  0.50880000  1.0 -0.5424681152
O  O38  1  0.76160000  0.19640000  0.00880000  1.0 -0.5424681152
O  O39  1  0.73840000  0.69640000  0.99120000  1.0 -0.5424681152
O  O40  1  0.26160000  0.80360000  0.49120000  1.0 -0.5424681152
O  O41  1  0.56660000  0.69340000  0.50750000  1.0 -0.5171672249
O  O42  1  0.43340000  0.80660000  0.00750000  1.0 -0.5171672249
O  O43  1  0.06660000  0.30660000  0.99250000  1.0 -0.5171672249
O  O44  1  0.93340000  0.19340000  0.49250000  1.0 -0.5171672249
O  O45  1  0.43340000  0.30660000  0.49250000  1.0 -0.5171672249
O  O46  1  0.56660000  0.19340000  0.99250000  1.0 -0.5171672249
O  O47  1  0.93340000  0.69340000  0.00750000  1.0 -0.5171672249
O  O48  1  0.06660000  0.80660000  0.50750000  1.0 -0.5171672249
O  O49  1  0.92930000  0.28260000  0.47370000  1.0 -0.5171672249
O  O50  1  0.07070000  0.21740000  0.97370000  1.0 -0.5171672249
O  O51  1  0.42930000  0.71740000  0.02630000  1.0 -0.5171672249
O  O52  1  0.57070000  0.78260000  0.52630000  1.0 -0.5171672249
O  O53  1  0.07070000  0.71740000  0.52630000  1.0 -0.5171672249
O  O54  1  0.92930000  0.78260000  0.02630000  1.0 -0.5171672249
O  O55  1  0.57070000  0.28260000  0.97370000  1.0 -0.5171672249
O  O56  1  0.42930000  0.21740000  0.47370000  1.0 -0.5171672249
O  O57  1  0.90060000  0.28180000  0.52950000  1.0 -0.4402886251
O  O58  1  0.09940000  0.21820000  0.02950000  1.0 -0.4402886251
O  O59  1  0.40060000  0.71820000  0.97050000  1.0 -0.4402886251
O  O60  1  0.59940000  0.78180000  0.47050000  1.0 -0.4402886251
O  O61  1  0.09940000  0.71820000  0.47050000  1.0 -0.4402886251
O  O62  1  0.90060000  0.78180000  0.97050000  1.0 -0.4402886251
O  O63  1  0.59940000  0.28180000  0.02950000  1.0 -0.4402886251
O  O64  1  0.40060000  0.21820000  0.52950000  1.0 -0.4402886251
O  O65  1  0.47350000  0.72030000  0.14630000  1.0 -0.5473325992
O  O66  1  0.52650000  0.77970000  0.64630000  1.0 -0.5473325992
O  O67  1  0.97350000  0.27970000  0.35370000  1.0 -0.5473325992
O  O68  1  0.02650000  0.22030000  0.85370000  1.0 -0.5473325992
O  O69  1  0.52650000  0.27970000  0.85370000  1.0 -0.5473325992
O  O70  1  0.47350000  0.22030000  0.35370000  1.0 -0.5473325992
O  O71  1  0.02650000  0.72030000  0.64630000  1.0 -0.5473325992
O  O72  1  0.97350000  0.77970000  0.14630000  1.0 -0.5473325992
O  O73  1  0.28830000  0.70050000  0.13790000  1.0 -0.4610568168
O  O74  1  0.71170000  0.79950000  0.63790000  1.0 -0.4610568168
O  O75  1  0.78830000  0.29950000  0.36210000  1.0 -0.4610568168
O  O76  1  0.21170000  0.20050000  0.86210000  1.0 -0.4610568168
O  O77  1  0.71170000  0.29950000  0.86210000  1.0 -0.4610568168
O  O78  1  0.28830000  0.20050000  0.36210000  1.0 -0.4610568168
O  O79  1  0.21170000  0.70050000  0.63790000  1.0 -0.4610568168
O  O80  1  0.78830000  0.79950000  0.13790000  1.0 -0.4610568168
O  O81  1  0.34280000  0.56833000  0.16110000  1.0 -0.2698225553
O  O82  1  0.65720000  0.93167000  0.66110000  1.0 -0.2698225553
O  O83  1  0.84280000  0.43167000  0.33890000  1.0 -0.2698225553
O  O84  1  0.15720000  0.06833000  0.83890000  1.0 -0.2698225553
O  O85  1  0.65720000  0.43167000  0.83890000  1.0 -0.2698225553
O  O86  1  0.34280000  0.06833000  0.33890000  1.0 -0.2698225553
O  O87  1  0.15720000  0.56833000  0.66110000  1.0 -0.2698225553
O  O88  1  0.84280000  0.93167000  0.16110000  1.0 -0.2698225553
O  O89  1  0.32330000  0.47250000  0.16530000  1.0 -0.0485118316
O  O90  1  0.67670000  0.02750000  0.66530000  1.0 -0.0485118316
O  O91  1  0.82330000  0.52750000  0.33470000  1.0 -0.0485118316
O  O92  1  0.17670000  0.97250000  0.83470000  1.0 -0.0485118316
O  O93  1  0.67670000  0.52750000  0.83470000  1.0 -0.0485118316
O  O94  1  0.32330000  0.97250000  0.33470000  1.0 -0.0485118316
O  O95  1  0.17670000  0.47250000  0.66530000  1.0 -0.0485118316
O  O96  1  0.82330000  0.02750000  0.16530000  1.0 -0.0485118316
O  O97  1  0.44940000  0.40470000  0.16930000  1.0 0.0255445992
O  O98  1  0.55060000  0.09530000  0.66930000  1.0 0.0255445992
O  O99  1  0.94940000  0.59530000  0.33070000  1.0 0.0255445992
O  O100  1  0.05060000  0.90470000  0.83070000  1.0 0.0255445992
O  O101  1  0.55060000  0.59530000  0.83070000  1.0 0.0255445992
O  O102  1  0.44940000  0.90470000  0.33070000  1.0 0.0255445992
O  O103  1  0.05060000  0.40470000  0.66930000  1.0 0.0255445992
O  O104  1  0.94940000  0.09530000  0.16930000  1.0 0.0255445992
O  O105  1  0.69530000  0.38610000  0.16090000  1.0 -0.348937236
O  O106  1  0.30470000  0.11390000  0.66090000  1.0 -0.348937236
O  O107  1  0.19530000  0.61390000  0.33910000  1.0 -0.348937236
O  O108  1  0.80470000  0.88610000  0.83910000  1.0 -0.348937236
O  O109  1  0.30470000  0.61390000  0.83910000  1.0 -0.348937236
O  O110  1  0.69530000  0.88610000  0.33910000  1.0 -0.348937236
O  O111  1  0.80470000  0.38610000  0.66090000  1.0 -0.348937236
O  O112  1  0.19530000  0.11390000  0.16090000  1.0 -0.348937236
O  O113  1  0.84600000  0.27870000  0.08730000  1.0 0.0094236376
O  O114  1  0.15400000  0.22130000  0.58730000  1.0 0.0094236376
O  O115  1  0.34600000  0.72130000  0.41270000  1.0 0.0094236376
O  O116  1  0.65400000  0.77870000  0.91270000  1.0 0.0094236376
O  O117  1  0.15400000  0.72130000  0.91270000  1.0 0.0094236376
O  O118  1  0.84600000  0.77870000  0.41270000  1.0 0.0094236376
O  O119  1  0.65400000  0.27870000  0.58730000  1.0 0.0094236376
O  O120  1  0.34600000  0.22130000  0.08730000  1.0 0.0094236376
O  O121  1  0.03600000  0.29750000  0.06780000  1.0 -0.1882138744
O  O122  1  0.96400000  0.20250000  0.56780000  1.0 -0.1882138744
O  O123  1  0.53600000  0.70250000  0.43220000  1.0 -0.1882138744
O  O124  1  0.46400000  0.79750000  0.93220000  1.0 -0.1882138744
O  O125  1  0.96400000  0.70250000  0.93220000  1.0 -0.1882138744
O  O126  1  0.03600000  0.79750000  0.43220000  1.0 -0.1882138744
O  O127  1  0.46400000  0.29750000  0.56780000  1.0 -0.1882138744
O  O128  1  0.53600000  0.20250000  0.06780000  1.0 -0.1882138744
O  O129  1  0.05360000  0.42550000  0.09440000  1.0 -0.2228553588
O  O130  1  0.94640000  0.07450000  0.59440000  1.0 -0.2228553588
O  O131  1  0.55360000  0.57450000  0.40560000  1.0 -0.2228553588
O  O132  1  0.44640000  0.92550000  0.90560000  1.0 -0.2228553588
O  O133  1  0.94640000  0.57450000  0.90560000  1.0 -0.2228553588
O  O134  1  0.05360000  0.92550000  0.40560000  1.0 -0.2228553588
O  O135  1  0.44640000  0.42550000  0.59440000  1.0 -0.2228553588
O  O136  1  0.55360000  0.07450000  0.09440000  1.0 -0.2228553588
O  O137  1  0.06850000  0.51970000  0.10440000  1.0 -0.2369919712
O  O138  1  0.93150000  0.98030000  0.60440000  1.0 -0.2369919712
O  O139  1  0.56850000  0.48030000  0.39560000  1.0 -0.2369919712
O  O140  1  0.43150000  0.01970000  0.89560000  1.0 -0.2369919712
O  O141  1  0.93150000  0.48030000  0.89560000  1.0 -0.2369919712
O  O142  1  0.06850000  0.01970000  0.39560000  1.0 -0.2369919712
O  O143  1  0.43150000  0.51970000  0.60440000  1.0 -0.2369919712
O  O144  1  0.56850000  0.98030000  0.10440000  1.0 -0.2369919712
O  O145  1  0.97680000  0.59250000  0.12260000  1.0 -0.0075325383
O  O146  1  0.02320000  0.90750000  0.62260000  1.0 -0.0075325383
O  O147  1  0.47680000  0.40750000  0.37740000  1.0 -0.0075325383
O  O148  1  0.52320000  0.09250000  0.87740000  1.0 -0.0075325383
O  O149  1  0.02320000  0.40750000  0.87740000  1.0 -0.0075325383
O  O150  1  0.97680000  0.09250000  0.37740000  1.0 -0.0075325383
O  O151  1  0.52320000  0.59250000  0.62260000  1.0 -0.0075325383
O  O152  1  0.47680000  0.90750000  0.12260000  1.0 -0.0040415522
O  O153  1  0.71700000  0.60630000  0.11460000  1.0 -0.0386742101
O  O154  1  0.28300000  0.89370000  0.61460000  1.0 -0.0386742101
O  O155  1  0.21700000  0.39370000  0.38540000  1.0 -0.0386742101
O  O156  1  0.78300000  0.10630000  0.88540000  1.0 -0.0386742101
O  O157  1  0.28300000  0.39370000  0.88540000  1.0 -0.0386742101
O  O158  1  0.71700000  0.10630000  0.38540000  1.0 -0.0386742101
O  O159  1  0.78300000  0.60630000  0.61460000  1.0 -0.0386742101
O  O160  1  0.21700000  0.89370000  0.11460000  1.0 -0.0386742101
O  O161  1  0.74980000  0.73182000  0.16180000  1.0 -0.6689761127
O  O162  1  0.25020000  0.76818000  0.66180000  1.0 -0.6689761127
O  O163  1  0.24980000  0.26818000  0.33820000  1.0 -0.6689761127
O  O164  1  0.75020000  0.23182000  0.83820000  1.0 -0.6689761127
O  O165  1  0.25020000  0.26818000  0.83820000  1.0 -0.6689761127
O  O166  1  0.74980000  0.23182000  0.33820000  1.0 -0.6689761127
O  O167  1  0.75020000  0.73182000  0.66180000  1.0 -0.6689761127
O  O168  1  0.24980000  0.76818000  0.16180000  1.0 -0.6689761127
O  O169  1  0.14610000  0.24300000  0.51250000  1.0 -0.5014094742
O  O170  1  0.85390000  0.25700000  0.01250000  1.0 -0.5014094742
O  O171  1  0.64610000  0.75700000  0.98750000  1.0 -0.5014094742
O  O172  1  0.35390000  0.74300000  0.48750000  1.0 -0.5014094742
O  O173  1  0.85390000  0.75700000  0.48750000  1.0 -0.5014094742
O  O174  1  0.14610000  0.74300000  0.98750000  1.0 -0.5014094742
O  O175  1  0.35390000  0.24300000  0.01250000  1.0 -0.5014094742
O  O176  1  0.64610000  0.25700000  0.51250000  1.0 -0.5014094742
O  O177  1  0.51500000  0.70190000  0.26130000  1.0 -0.1523213491
O  O178  1  0.48500000  0.79810000  0.76130000  1.0 -0.1523213491
O  O179  1  0.01500000  0.29810000  0.23870000  1.0 -0.1523213491
O  O180  1  0.98500000  0.20190000  0.73870000  1.0 -0.1523213491
O  O181  1  0.48500000  0.29810000  0.73870000  1.0 -0.1523213491
O  O182  1  0.51500000  0.20190000  0.23870000  1.0 -0.1523213491
O  O183  1  0.98500000  0.70190000  0.76130000  1.0 -0.1523213491
O  O184  1  0.01500000  0.79810000  0.26130000  1.0 -0.1523213491
O  O185  1  0.40700000  0.40030000  0.15800000  1.0 0.0182681089
O  O186  1  0.59300000  0.09970000  0.65800000  1.0 0.0182681089
O  O187  1  0.90700000  0.59970000  0.34200000  1.0 0.0182681089
O  O188  1  0.09300000  0.90030000  0.84200000  1.0 0.0182681089
O  O189  1  0.59300000  0.59970000  0.84200000  1.0 0.0182681089
O  O190  1  0.40700000  0.90030000  0.34200000  1.0 0.0182681089
O  O191  1  0.09300000  0.40030000  0.65800000  1.0 0.0182681089
O  O192  1  0.90700000  0.09970000  0.15800000  1.0 0.0182681089
O  O193  1  0.77100000  0.28200000  0.08500000  1.0 -0.2284136037
O  O194  1  0.22900000  0.21800000  0.58500000  1.0 -0.2284136037
O  O195  1  0.27100000  0.71800000  0.41500000  1.0 -0.2284136037
O  O196  1  0.72900000  0.78200000  0.91500000  1.0 -0.2284136037
O  O197  1  0.22900000  0.71800000  0.91500000  1.0 -0.2284136037
O  O198  1  0.77100000  0.78200000  0.41500000  1.0 -0.2284136037
O  O199  1  0.72900000  0.28200000  0.58500000  1.0 -0.2284136037
O  O200  1  0.27100000  0.21800000  0.08500000  1.0 -0.2284136037
O  O201  1  0.98800000  0.28140000  0.07600000  1.0 -0.0485118316
O  O202  1  0.01200000  0.21860000  0.57600000  1.0 -0.0485118316
O  O203  1  0.48800000  0.71860000  0.42400000  1.0 -0.0485118316
O  O204  1  0.51200000  0.78140000  0.92400000  1.0 -0.0485118316
O  O205  1  0.01200000  0.71860000  0.92400000  1.0 -0.0485118316
O  O206  1  0.98800000  0.78140000  0.42400000  1.0 -0.0485118316
O  O207  1  0.51200000  0.28140000  0.57600000  1.0 -0.0485118316
O  O208  1  0.48800000  0.21860000  0.07600000  1.0 -0.0485118316
O  O209  1  0.97960000  0.59090000  0.10260000  1.0 -0.0075325383
O  O210  1  0.02040000  0.90910000  0.60260000  1.0 -0.0040415522
O  O211  1  0.47960000  0.40910000  0.39740000  1.0 -0.0040415522
O  O212  1  0.52040000  0.09090000  0.89740000  1.0 -0.0040415522
O  O213  1  0.02040000  0.40910000  0.89740000  1.0 -0.0040415522
O  O214  1  0.97960000  0.09090000  0.39740000  1.0 -0.0075325383
O  O215  1  0.52040000  0.59090000  0.60260000  1.0 -0.0075325383
O  O216  1  0.47960000  0.90910000  0.10260000  1.0 -0.0040415522
O  O217  1  0.75660000  0.61210000  0.13660000  1.0 -0.0599701854
O  O218  1  0.24340000  0.88790000  0.63660000  1.0 -0.0599701854
O  O219  1  0.25660000  0.38790000  0.36340000  1.0 -0.0599701854
O  O220  1  0.74340000  0.11210000  0.86340000  1.0 -0.0599701854
O  O221  1  0.24340000  0.38790000  0.86340000  1.0 -0.0599701854
O  O222  1  0.75660000  0.11210000  0.36340000  1.0 -0.0599701854
O  O223  1  0.74340000  0.61210000  0.63660000  1.0 -0.0599701854
O  O224  1  0.25660000  0.88790000  0.13660000  1.0 -0.0599701854
