# DDEC6 charges by PACMAN v1.1 (https://github.com/mtap-research/PACMAN-charge/)
data_ISENIF_FSR_pacman
_symmetry_space_group_name_H-M   'P 1'
_cell_length_a   18.94080000
_cell_length_b   18.94080000
_cell_length_c   18.94080000
_cell_angle_alpha   60.00000000
_cell_angle_beta   60.00000000
_cell_angle_gamma   60.00000000
_symmetry_Int_Tables_number   1
_chemical_formula_structural   Zr3H96C114(Cl12O5)4
_chemical_formula_sum   'Zr6 H192 C228 Cl96 O40'
_cell_volume   4804.85135894
_cell_formula_units_Z   2
loop_
 _symmetry_equiv_pos_site_id
 _symmetry_equiv_pos_as_xyz
  1  'x, y, z'
loop_
 _atom_site_type_symbol
 _atom_site_label
 _atom_site_symmetry_multiplicity
 _atom_site_fract_x
 _atom_site_fract_y
 _atom_site_fract_z
 _atom_site_occupancy
 _atom_site_charge
Zr  Zr1  1  0.59211000  0.40789000  0.40789000  1.0 1.8185025075
Zr  Zr2  1  0.40789000  0.59211000  0.59211000  1.0 1.8185025075
Zr  Zr3  1  0.40789000  0.59211000  0.40789000  1.0 1.8185025075
Zr  Zr4  1  0.59211000  0.40789000  0.59211000  1.0 1.8185025075
Zr  Zr5  1  0.40789000  0.40789000  0.59211000  1.0 1.8185025075
Zr  Zr6  1  0.59211000  0.59211000  0.40789000  1.0 1.8185025075
H  H1  1  0.59420000  0.37880000  0.06520000  1.0 0.0644380618
H  H2  1  0.37880000  0.59420000  0.96180000  1.0 0.0644380618
H  H3  1  0.06520000  0.96180000  0.59420000  1.0 0.0644380618
H  H4  1  0.96180000  0.06520000  0.37880000  1.0 0.0644380618
H  H5  1  0.06520000  0.59420000  0.37880000  1.0 0.0644380618
H  H6  1  0.96180000  0.37880000  0.59420000  1.0 0.0644380618
H  H7  1  0.59420000  0.06520000  0.96180000  1.0 0.0644380618
H  H8  1  0.37880000  0.96180000  0.06520000  1.0 0.0644380618
H  H9  1  0.37880000  0.06520000  0.59420000  1.0 0.0644380618
H  H10  1  0.59420000  0.96180000  0.37880000  1.0 0.0644380618
H  H11  1  0.96180000  0.59420000  0.06520000  1.0 0.0644380618
H  H12  1  0.06520000  0.37880000  0.96180000  1.0 0.0644380618
H  H13  1  0.40580000  0.62120000  0.03820000  1.0 0.0644380618
H  H14  1  0.62120000  0.40580000  0.93480000  1.0 0.0644380618
H  H15  1  0.93480000  0.03820000  0.62120000  1.0 0.0644380618
H  H16  1  0.03820000  0.93480000  0.40580000  1.0 0.0644380618
H  H17  1  0.93480000  0.40580000  0.03820000  1.0 0.0644380618
H  H18  1  0.03820000  0.62120000  0.93480000  1.0 0.0644380618
H  H19  1  0.40580000  0.93480000  0.62120000  1.0 0.0644380618
H  H20  1  0.62120000  0.03820000  0.40580000  1.0 0.0644380618
H  H21  1  0.62120000  0.93480000  0.03820000  1.0 0.0644380618
H  H22  1  0.40580000  0.03820000  0.93480000  1.0 0.0644380618
H  H23  1  0.03820000  0.40580000  0.62120000  1.0 0.0644380618
H  H24  1  0.93480000  0.62120000  0.40580000  1.0 0.0644380618
H  H25  1  0.40580000  0.62120000  0.93480000  1.0 0.0644380618
H  H26  1  0.62120000  0.40580000  0.03820000  1.0 0.0644380618
H  H27  1  0.93480000  0.03820000  0.40580000  1.0 0.0644380618
H  H28  1  0.03820000  0.93480000  0.62120000  1.0 0.0644380618
H  H29  1  0.93480000  0.40580000  0.62120000  1.0 0.0644380618
H  H30  1  0.03820000  0.62120000  0.40580000  1.0 0.0644380618
H  H31  1  0.40580000  0.93480000  0.03820000  1.0 0.0644380618
H  H32  1  0.62120000  0.03820000  0.93480000  1.0 0.0644380618
H  H33  1  0.62120000  0.93480000  0.40580000  1.0 0.0644380618
H  H34  1  0.40580000  0.03820000  0.62120000  1.0 0.0644380618
H  H35  1  0.03820000  0.40580000  0.93480000  1.0 0.0644380618
H  H36  1  0.93480000  0.62120000  0.03820000  1.0 0.0644380618
H  H37  1  0.59420000  0.37880000  0.96180000  1.0 0.0644380618
H  H38  1  0.37880000  0.59420000  0.06520000  1.0 0.0644380618
H  H39  1  0.06520000  0.96180000  0.37880000  1.0 0.0644380618
H  H40  1  0.96180000  0.06520000  0.59420000  1.0 0.0644380618
H  H41  1  0.06520000  0.59420000  0.96180000  1.0 0.0644380618
H  H42  1  0.96180000  0.37880000  0.06520000  1.0 0.0644380618
H  H43  1  0.59420000  0.06520000  0.37880000  1.0 0.0644380618
H  H44  1  0.37880000  0.96180000  0.59420000  1.0 0.0644380618
H  H45  1  0.37880000  0.06520000  0.96180000  1.0 0.0644380618
H  H46  1  0.59420000  0.96180000  0.06520000  1.0 0.0644380618
H  H47  1  0.96180000  0.59420000  0.37880000  1.0 0.0644380618
H  H48  1  0.06520000  0.37880000  0.59420000  1.0 0.0644380618
H  H49  1  0.59110000  0.38210000  0.18830000  1.0 0.0977648081
H  H50  1  0.38210000  0.59110000  0.83850000  1.0 0.0977648081
H  H51  1  0.18830000  0.83850000  0.59110000  1.0 0.0977648081
H  H52  1  0.83850000  0.18830000  0.38210000  1.0 0.0977648081
H  H53  1  0.18830000  0.59110000  0.38210000  1.0 0.0977648081
H  H54  1  0.83850000  0.38210000  0.59110000  1.0 0.0977648081
H  H55  1  0.59110000  0.18830000  0.83850000  1.0 0.0977648081
H  H56  1  0.38210000  0.83850000  0.18830000  1.0 0.0977648081
H  H57  1  0.38210000  0.18830000  0.59110000  1.0 0.0977648081
H  H58  1  0.59110000  0.83850000  0.38210000  1.0 0.0977648081
H  H59  1  0.83850000  0.59110000  0.18830000  1.0 0.0977648081
H  H60  1  0.18830000  0.38210000  0.83850000  1.0 0.0977648081
H  H61  1  0.40890000  0.61790000  0.16150000  1.0 0.0977648081
H  H62  1  0.61790000  0.40890000  0.81170000  1.0 0.0977648081
H  H63  1  0.81170000  0.16150000  0.61790000  1.0 0.0977648081
H  H64  1  0.16150000  0.81170000  0.40890000  1.0 0.0977648081
H  H65  1  0.81170000  0.40890000  0.16150000  1.0 0.0977648081
H  H66  1  0.16150000  0.61790000  0.81170000  1.0 0.0977648081
H  H67  1  0.40890000  0.81170000  0.61790000  1.0 0.0977648081
H  H68  1  0.61790000  0.16150000  0.40890000  1.0 0.0977648081
H  H69  1  0.61790000  0.81170000  0.16150000  1.0 0.0977648081
H  H70  1  0.40890000  0.16150000  0.81170000  1.0 0.0977648081
H  H71  1  0.16150000  0.40890000  0.61790000  1.0 0.0977648081
H  H72  1  0.81170000  0.61790000  0.40890000  1.0 0.0977648081
H  H73  1  0.40890000  0.61790000  0.81170000  1.0 0.0977648081
H  H74  1  0.61790000  0.40890000  0.16150000  1.0 0.0977648081
H  H75  1  0.81170000  0.16150000  0.40890000  1.0 0.0977648081
H  H76  1  0.16150000  0.81170000  0.61790000  1.0 0.0977648081
H  H77  1  0.81170000  0.40890000  0.61790000  1.0 0.0977648081
H  H78  1  0.16150000  0.61790000  0.40890000  1.0 0.0977648081
H  H79  1  0.40890000  0.81170000  0.16150000  1.0 0.0977648081
H  H80  1  0.61790000  0.16150000  0.81170000  1.0 0.0977648081
H  H81  1  0.61790000  0.81170000  0.40890000  1.0 0.0977648081
H  H82  1  0.40890000  0.16150000  0.61790000  1.0 0.0977648081
H  H83  1  0.16150000  0.40890000  0.81170000  1.0 0.0977648081
H  H84  1  0.81170000  0.61790000  0.16150000  1.0 0.0977648081
H  H85  1  0.59110000  0.38210000  0.83850000  1.0 0.0977648081
H  H86  1  0.38210000  0.59110000  0.18830000  1.0 0.0977648081
H  H87  1  0.18830000  0.83850000  0.38210000  1.0 0.0977648081
H  H88  1  0.83850000  0.18830000  0.59110000  1.0 0.0977648081
H  H89  1  0.18830000  0.59110000  0.83850000  1.0 0.0977648081
H  H90  1  0.83850000  0.38210000  0.18830000  1.0 0.0977648081
H  H91  1  0.59110000  0.18830000  0.38210000  1.0 0.0977648081
H  H92  1  0.38210000  0.83850000  0.59110000  1.0 0.0977648081
H  H93  1  0.38210000  0.18830000  0.83850000  1.0 0.0977648081
H  H94  1  0.59110000  0.83850000  0.18830000  1.0 0.0977648081
H  H95  1  0.83850000  0.59110000  0.38210000  1.0 0.0977648081
H  H96  1  0.18830000  0.38210000  0.59110000  1.0 0.0977648081
H  H97  1  0.63120000  0.46200000  0.12980000  1.0 0.0977648081
H  H98  1  0.46200000  0.63120000  0.77700000  1.0 0.0977648081
H  H99  1  0.12980000  0.77700000  0.63120000  1.0 0.0977648081
H  H100  1  0.77700000  0.12980000  0.46200000  1.0 0.0977648081
H  H101  1  0.12980000  0.63120000  0.46200000  1.0 0.0977648081
H  H102  1  0.77700000  0.46200000  0.63120000  1.0 0.0977648081
H  H103  1  0.63120000  0.12980000  0.77700000  1.0 0.0977648081
H  H104  1  0.46200000  0.77700000  0.12980000  1.0 0.0977648081
H  H105  1  0.46200000  0.12980000  0.63120000  1.0 0.0977648081
H  H106  1  0.63120000  0.77700000  0.46200000  1.0 0.0977648081
H  H107  1  0.77700000  0.63120000  0.12980000  1.0 0.0977648081
H  H108  1  0.12980000  0.46200000  0.77700000  1.0 0.0977648081
H  H109  1  0.36880000  0.53800000  0.22300000  1.0 0.0977648081
H  H110  1  0.53800000  0.36880000  0.87020000  1.0 0.0977648081
H  H111  1  0.87020000  0.22300000  0.53800000  1.0 0.0977648081
H  H112  1  0.22300000  0.87020000  0.36880000  1.0 0.0977648081
H  H113  1  0.87020000  0.36880000  0.22300000  1.0 0.0977648081
H  H114  1  0.22300000  0.53800000  0.87020000  1.0 0.0977648081
H  H115  1  0.36880000  0.87020000  0.53800000  1.0 0.0977648081
H  H116  1  0.53800000  0.22300000  0.36880000  1.0 0.0977648081
H  H117  1  0.53800000  0.87020000  0.22300000  1.0 0.0977648081
H  H118  1  0.36880000  0.22300000  0.87020000  1.0 0.0977648081
H  H119  1  0.22300000  0.36880000  0.53800000  1.0 0.0977648081
H  H120  1  0.87020000  0.53800000  0.36880000  1.0 0.0977648081
H  H121  1  0.36880000  0.53800000  0.87020000  1.0 0.0977648081
H  H122  1  0.53800000  0.36880000  0.22300000  1.0 0.0977648081
H  H123  1  0.87020000  0.22300000  0.36880000  1.0 0.0977648081
H  H124  1  0.22300000  0.87020000  0.53800000  1.0 0.0977648081
H  H125  1  0.87020000  0.36880000  0.53800000  1.0 0.0977648081
H  H126  1  0.22300000  0.53800000  0.36880000  1.0 0.0977648081
H  H127  1  0.36880000  0.87020000  0.22300000  1.0 0.0977648081
H  H128  1  0.53800000  0.22300000  0.87020000  1.0 0.0977648081
H  H129  1  0.53800000  0.87020000  0.36880000  1.0 0.0977648081
H  H130  1  0.36880000  0.22300000  0.53800000  1.0 0.0977648081
H  H131  1  0.22300000  0.36880000  0.87020000  1.0 0.0977648081
H  H132  1  0.87020000  0.53800000  0.22300000  1.0 0.0977648081
H  H133  1  0.63120000  0.46200000  0.77700000  1.0 0.0977648081
H  H134  1  0.46200000  0.63120000  0.12980000  1.0 0.0977648081
H  H135  1  0.12980000  0.77700000  0.46200000  1.0 0.0977648081
H  H136  1  0.77700000  0.12980000  0.63120000  1.0 0.0977648081
H  H137  1  0.12980000  0.63120000  0.77700000  1.0 0.0977648081
H  H138  1  0.77700000  0.46200000  0.12980000  1.0 0.0977648081
H  H139  1  0.63120000  0.12980000  0.46200000  1.0 0.0977648081
H  H140  1  0.46200000  0.77700000  0.63120000  1.0 0.0977648081
H  H141  1  0.46200000  0.12980000  0.77700000  1.0 0.0977648081
H  H142  1  0.63120000  0.77700000  0.12980000  1.0 0.0977648081
H  H143  1  0.77700000  0.63120000  0.46200000  1.0 0.0977648081
H  H144  1  0.12980000  0.46200000  0.63120000  1.0 0.0977648081
H  H145  1  0.62890000  0.45350000  0.01130000  1.0 0.0732669169
H  H146  1  0.45350000  0.62890000  0.90630000  1.0 0.0732669169
H  H147  1  0.01130000  0.90630000  0.62890000  1.0 0.0732669169
H  H148  1  0.90630000  0.01130000  0.45350000  1.0 0.0732669169
H  H149  1  0.01130000  0.62890000  0.45350000  1.0 0.0732669169
H  H150  1  0.90630000  0.45350000  0.62890000  1.0 0.0732669169
H  H151  1  0.62890000  0.01130000  0.90630000  1.0 0.0732669169
H  H152  1  0.45350000  0.90630000  0.01130000  1.0 0.0732669169
H  H153  1  0.45350000  0.01130000  0.62890000  1.0 0.0732669169
H  H154  1  0.62890000  0.90630000  0.45350000  1.0 0.0732669169
H  H155  1  0.90630000  0.62890000  0.01130000  1.0 0.0732669169
H  H156  1  0.01130000  0.45350000  0.90630000  1.0 0.0732669169
H  H157  1  0.37110000  0.54650000  0.09370000  1.0 0.0732669169
H  H158  1  0.54650000  0.37110000  0.98870000  1.0 0.0732669169
H  H159  1  0.98870000  0.09370000  0.54650000  1.0 0.0732669169
H  H160  1  0.09370000  0.98870000  0.37110000  1.0 0.0732669169
H  H161  1  0.98870000  0.37110000  0.09370000  1.0 0.0732669169
H  H162  1  0.09370000  0.54650000  0.98870000  1.0 0.0732669169
H  H163  1  0.37110000  0.98870000  0.54650000  1.0 0.0732669169
H  H164  1  0.54650000  0.09370000  0.37110000  1.0 0.0732669169
H  H165  1  0.54650000  0.98870000  0.09370000  1.0 0.0732669169
H  H166  1  0.37110000  0.09370000  0.98870000  1.0 0.0732669169
H  H167  1  0.09370000  0.37110000  0.54650000  1.0 0.0732669169
H  H168  1  0.98870000  0.54650000  0.37110000  1.0 0.0732669169
H  H169  1  0.37110000  0.54650000  0.98870000  1.0 0.0732669169
H  H170  1  0.54650000  0.37110000  0.09370000  1.0 0.0732669169
H  H171  1  0.98870000  0.09370000  0.37110000  1.0 0.0732669169
H  H172  1  0.09370000  0.98870000  0.54650000  1.0 0.0732669169
H  H173  1  0.98870000  0.37110000  0.54650000  1.0 0.0732669169
H  H174  1  0.09370000  0.54650000  0.37110000  1.0 0.0732669169
H  H175  1  0.37110000  0.98870000  0.09370000  1.0 0.0732669169
H  H176  1  0.54650000  0.09370000  0.98870000  1.0 0.0732669169
H  H177  1  0.54650000  0.98870000  0.37110000  1.0 0.0732669169
H  H178  1  0.37110000  0.09370000  0.54650000  1.0 0.0732669169
H  H179  1  0.09370000  0.37110000  0.98870000  1.0 0.0732669169
H  H180  1  0.98870000  0.54650000  0.09370000  1.0 0.0732669169
H  H181  1  0.62890000  0.45350000  0.90630000  1.0 0.0732669169
H  H182  1  0.45350000  0.62890000  0.01130000  1.0 0.0732669169
H  H183  1  0.01130000  0.90630000  0.45350000  1.0 0.0732669169
H  H184  1  0.90630000  0.01130000  0.62890000  1.0 0.0732669169
H  H185  1  0.01130000  0.62890000  0.90630000  1.0 0.0732669169
H  H186  1  0.90630000  0.45350000  0.01130000  1.0 0.0732669169
H  H187  1  0.62890000  0.01130000  0.45350000  1.0 0.0732669169
H  H188  1  0.45350000  0.90630000  0.62890000  1.0 0.0732669169
H  H189  1  0.45350000  0.01130000  0.90630000  1.0 0.0732669169
H  H190  1  0.62890000  0.90630000  0.01130000  1.0 0.0732669169
H  H191  1  0.90630000  0.62890000  0.45350000  1.0 0.0732669169
H  H192  1  0.01130000  0.45350000  0.62890000  1.0 0.0732669169
C  C1  1  0.50000000  0.50000000  0.26510000  1.0 0.2773078222
C  C2  1  0.50000000  0.50000000  0.73490000  1.0 0.2773078222
C  C3  1  0.26510000  0.73490000  0.50000000  1.0 0.2773078222
C  C4  1  0.73490000  0.26510000  0.50000000  1.0 0.2773078222
C  C5  1  0.26510000  0.50000000  0.50000000  1.0 0.2773078222
C  C6  1  0.73490000  0.50000000  0.50000000  1.0 0.2773078222
C  C7  1  0.50000000  0.26510000  0.73490000  1.0 0.2773078222
C  C8  1  0.50000000  0.73490000  0.26510000  1.0 0.27424662
C  C9  1  0.50000000  0.26510000  0.50000000  1.0 0.2773078222
C  C10  1  0.50000000  0.73490000  0.50000000  1.0 0.2773078222
C  C11  1  0.73490000  0.50000000  0.26510000  1.0 0.27424662
C  C12  1  0.26510000  0.50000000  0.73490000  1.0 0.2773078222
C  C13  1  0.50000000  0.50000000  0.18756000  1.0 -0.1085644333
C  C14  1  0.50000000  0.50000000  0.81244000  1.0 -0.1085644333
C  C15  1  0.18756000  0.81244000  0.50000000  1.0 -0.1085644333
C  C16  1  0.81244000  0.18756000  0.50000000  1.0 -0.1085644333
C  C17  1  0.18756000  0.50000000  0.50000000  1.0 -0.1085644333
C  C18  1  0.81244000  0.50000000  0.50000000  1.0 -0.1085644333
C  C19  1  0.50000000  0.18756000  0.81244000  1.0 -0.1085644333
C  C20  1  0.50000000  0.81244000  0.18756000  1.0 -0.1085644333
C  C21  1  0.50000000  0.18756000  0.50000000  1.0 -0.1085644333
C  C22  1  0.50000000  0.81244000  0.50000000  1.0 -0.1085644333
C  C23  1  0.81244000  0.50000000  0.18756000  1.0 -0.1085644333
C  C24  1  0.18756000  0.50000000  0.81244000  1.0 -0.1085644333
C  C25  1  0.50000000  0.50000000  0.03980000  1.0 0.0192363837
C  C26  1  0.50000000  0.50000000  0.96020000  1.0 0.0192363837
C  C27  1  0.03980000  0.96020000  0.50000000  1.0 0.0192363837
C  C28  1  0.96020000  0.03980000  0.50000000  1.0 0.0192363837
C  C29  1  0.03980000  0.50000000  0.50000000  1.0 0.0192363837
C  C30  1  0.96020000  0.50000000  0.50000000  1.0 0.0192363837
C  C31  1  0.50000000  0.03980000  0.96020000  1.0 0.0192363837
C  C32  1  0.50000000  0.96020000  0.03980000  1.0 0.0192363837
C  C33  1  0.50000000  0.03980000  0.50000000  1.0 0.0192363837
C  C34  1  0.50000000  0.96020000  0.50000000  1.0 0.0192363837
C  C35  1  0.96020000  0.50000000  0.03980000  1.0 0.0192363837
C  C36  1  0.03980000  0.50000000  0.96020000  1.0 0.0192363837
C  C37  1  0.55360000  0.43080000  0.15720000  1.0 -0.0263648824
C  C38  1  0.43080000  0.55360000  0.85840000  1.0 -0.0263648824
C  C39  1  0.15720000  0.85840000  0.55360000  1.0 -0.0263648824
C  C40  1  0.85840000  0.15720000  0.43080000  1.0 -0.0263648824
C  C41  1  0.15720000  0.55360000  0.43080000  1.0 -0.0263648824
C  C42  1  0.85840000  0.43080000  0.55360000  1.0 -0.0263648824
C  C43  1  0.55360000  0.15720000  0.85840000  1.0 -0.0263648824
C  C44  1  0.43080000  0.85840000  0.15720000  1.0 -0.0263648824
C  C45  1  0.43080000  0.15720000  0.55360000  1.0 -0.0263648824
C  C46  1  0.55360000  0.85840000  0.43080000  1.0 -0.0263648824
C  C47  1  0.85840000  0.55360000  0.15720000  1.0 -0.0263648824
C  C48  1  0.15720000  0.43080000  0.85840000  1.0 -0.0263648824
C  C49  1  0.44640000  0.56920000  0.14160000  1.0 -0.0263648824
C  C50  1  0.56920000  0.44640000  0.84280000  1.0 -0.0263648824
C  C51  1  0.84280000  0.14160000  0.56920000  1.0 -0.0236151625
C  C52  1  0.14160000  0.84280000  0.44640000  1.0 -0.0263648824
C  C53  1  0.84280000  0.44640000  0.14160000  1.0 -0.0263648824
C  C54  1  0.14160000  0.56920000  0.84280000  1.0 -0.0263648824
C  C55  1  0.44640000  0.84280000  0.56920000  1.0 -0.0263648824
C  C56  1  0.56920000  0.14160000  0.44640000  1.0 -0.0263648824
C  C57  1  0.56920000  0.84280000  0.14160000  1.0 -0.0263648824
C  C58  1  0.44640000  0.14160000  0.84280000  1.0 -0.0263648824
C  C59  1  0.14160000  0.44640000  0.56920000  1.0 -0.0263648824
C  C60  1  0.84280000  0.56920000  0.44640000  1.0 -0.0263648824
C  C61  1  0.44640000  0.56920000  0.84280000  1.0 -0.0263648824
C  C62  1  0.56920000  0.44640000  0.14160000  1.0 -0.0263648824
C  C63  1  0.84280000  0.14160000  0.44640000  1.0 -0.0263648824
C  C64  1  0.14160000  0.84280000  0.56920000  1.0 -0.0263648824
C  C65  1  0.84280000  0.44640000  0.56920000  1.0 -0.0263648824
C  C66  1  0.14160000  0.56920000  0.44640000  1.0 -0.0263648824
C  C67  1  0.44640000  0.84280000  0.14160000  1.0 -0.0263648824
C  C68  1  0.56920000  0.14160000  0.84280000  1.0 -0.0263648824
C  C69  1  0.56920000  0.84280000  0.44640000  1.0 -0.0263648824
C  C70  1  0.44640000  0.14160000  0.56920000  1.0 -0.0263648824
C  C71  1  0.14160000  0.44640000  0.84280000  1.0 -0.0263648824
C  C72  1  0.84280000  0.56920000  0.14160000  1.0 -0.0263648824
C  C73  1  0.55360000  0.43080000  0.85840000  1.0 -0.0263648824
C  C74  1  0.43080000  0.55360000  0.15720000  1.0 -0.0263648824
C  C75  1  0.15720000  0.85840000  0.43080000  1.0 -0.0263648824
C  C76  1  0.85840000  0.15720000  0.55360000  1.0 -0.0236151625
C  C77  1  0.15720000  0.55360000  0.85840000  1.0 -0.0263648824
C  C78  1  0.85840000  0.43080000  0.15720000  1.0 -0.0263648824
C  C79  1  0.55360000  0.15720000  0.43080000  1.0 -0.0263648824
C  C80  1  0.43080000  0.85840000  0.55360000  1.0 -0.0263648824
C  C81  1  0.43080000  0.15720000  0.85840000  1.0 -0.0263648824
C  C82  1  0.55360000  0.85840000  0.15720000  1.0 -0.0263648824
C  C83  1  0.85840000  0.55360000  0.43080000  1.0 -0.0263648824
C  C84  1  0.15720000  0.43080000  0.55360000  1.0 -0.0263648824
C  C85  1  0.55650000  0.42730000  0.08430000  1.0 -0.0236151625
C  C86  1  0.42730000  0.55650000  0.93190000  1.0 -0.0263648824
C  C87  1  0.08430000  0.93190000  0.55650000  1.0 -0.0263648824
C  C88  1  0.93190000  0.08430000  0.42730000  1.0 -0.0236151625
C  C89  1  0.08430000  0.55650000  0.42730000  1.0 -0.0263648824
C  C90  1  0.93190000  0.42730000  0.55650000  1.0 -0.0236151625
C  C91  1  0.55650000  0.08430000  0.93190000  1.0 -0.0263648824
C  C92  1  0.42730000  0.93190000  0.08430000  1.0 -0.0236151625
C  C93  1  0.42730000  0.08430000  0.55650000  1.0 -0.0263648824
C  C94  1  0.55650000  0.93190000  0.42730000  1.0 -0.0236151625
C  C95  1  0.93190000  0.55650000  0.08430000  1.0 -0.0236151625
C  C96  1  0.08430000  0.42730000  0.93190000  1.0 -0.0263648824
C  C97  1  0.44350000  0.57270000  0.06810000  1.0 -0.0236151625
C  C98  1  0.57270000  0.44350000  0.91570000  1.0 -0.0236151625
C  C99  1  0.91570000  0.06810000  0.57270000  1.0 -0.0236151625
C  C100  1  0.06810000  0.91570000  0.44350000  1.0 -0.0236151625
C  C101  1  0.91570000  0.44350000  0.06810000  1.0 -0.0236151625
C  C102  1  0.06810000  0.57270000  0.91570000  1.0 -0.0263648824
C  C103  1  0.44350000  0.91570000  0.57270000  1.0 -0.0236151625
C  C104  1  0.57270000  0.06810000  0.44350000  1.0 -0.0236151625
C  C105  1  0.57270000  0.91570000  0.06810000  1.0 -0.0236151625
C  C106  1  0.44350000  0.06810000  0.91570000  1.0 -0.0236151625
C  C107  1  0.06810000  0.44350000  0.57270000  1.0 -0.0263648824
C  C108  1  0.91570000  0.57270000  0.44350000  1.0 -0.0236151625
C  C109  1  0.44350000  0.57270000  0.91570000  1.0 -0.0236151625
C  C110  1  0.57270000  0.44350000  0.06810000  1.0 -0.0236151625
C  C111  1  0.91570000  0.06810000  0.44350000  1.0 -0.0236151625
C  C112  1  0.06810000  0.91570000  0.57270000  1.0 -0.0236151625
C  C113  1  0.91570000  0.44350000  0.57270000  1.0 -0.0236151625
C  C114  1  0.06810000  0.57270000  0.44350000  1.0 -0.0263648824
C  C115  1  0.44350000  0.91570000  0.06810000  1.0 -0.0236151625
C  C116  1  0.57270000  0.06810000  0.91570000  1.0 -0.0263648824
C  C117  1  0.57270000  0.91570000  0.44350000  1.0 -0.0236151625
C  C118  1  0.44350000  0.06810000  0.57270000  1.0 -0.0263648824
C  C119  1  0.06810000  0.44350000  0.91570000  1.0 -0.0236151625
C  C120  1  0.91570000  0.57270000  0.06810000  1.0 -0.0236151625
C  C121  1  0.55650000  0.42730000  0.93190000  1.0 -0.0236151625
C  C122  1  0.42730000  0.55650000  0.08430000  1.0 -0.0236151625
C  C123  1  0.08430000  0.93190000  0.42730000  1.0 -0.0236151625
C  C124  1  0.93190000  0.08430000  0.55650000  1.0 -0.0236151625
C  C125  1  0.08430000  0.55650000  0.93190000  1.0 -0.0263648824
C  C126  1  0.93190000  0.42730000  0.08430000  1.0 -0.0236151625
C  C127  1  0.55650000  0.08430000  0.42730000  1.0 -0.0236151625
C  C128  1  0.42730000  0.93190000  0.55650000  1.0 -0.0236151625
C  C129  1  0.42730000  0.08430000  0.93190000  1.0 -0.0263648824
C  C130  1  0.55650000  0.93190000  0.08430000  1.0 -0.0236151625
C  C131  1  0.93190000  0.55650000  0.42730000  1.0 -0.0236151625
C  C132  1  0.08430000  0.42730000  0.55650000  1.0 -0.0236151625
C  C133  1  0.57780000  0.47200000  0.12660000  1.0 -0.0774585724
C  C134  1  0.47200000  0.57780000  0.82360000  1.0 -0.0774585724
C  C135  1  0.12660000  0.82360000  0.57780000  1.0 -0.0774585724
C  C136  1  0.82360000  0.12660000  0.47200000  1.0 -0.0774585724
C  C137  1  0.12660000  0.57780000  0.47200000  1.0 -0.0774585724
C  C138  1  0.82360000  0.47200000  0.57780000  1.0 -0.0774585724
C  C139  1  0.57780000  0.12660000  0.82360000  1.0 -0.0774585724
C  C140  1  0.47200000  0.82360000  0.12660000  1.0 -0.0774585724
C  C141  1  0.47200000  0.12660000  0.57780000  1.0 -0.0774585724
C  C142  1  0.57780000  0.82360000  0.47200000  1.0 -0.0774585724
C  C143  1  0.82360000  0.57780000  0.12660000  1.0 -0.0774585724
C  C144  1  0.12660000  0.47200000  0.82360000  1.0 -0.0774585724
C  C145  1  0.42220000  0.52800000  0.17640000  1.0 -0.0774585724
C  C146  1  0.52800000  0.42220000  0.87340000  1.0 -0.0774585724
C  C147  1  0.87340000  0.17640000  0.52800000  1.0 -0.0774585724
C  C148  1  0.17640000  0.87340000  0.42220000  1.0 -0.0774585724
C  C149  1  0.87340000  0.42220000  0.17640000  1.0 -0.0774585724
C  C150  1  0.17640000  0.52800000  0.87340000  1.0 -0.0774585724
C  C151  1  0.42220000  0.87340000  0.52800000  1.0 -0.0774585724
C  C152  1  0.52800000  0.17640000  0.42220000  1.0 -0.0774585724
C  C153  1  0.52800000  0.87340000  0.17640000  1.0 -0.0774585724
C  C154  1  0.42220000  0.17640000  0.87340000  1.0 -0.0774585724
C  C155  1  0.17640000  0.42220000  0.52800000  1.0 -0.0774585724
C  C156  1  0.87340000  0.52800000  0.42220000  1.0 -0.0774585724
C  C157  1  0.42220000  0.52800000  0.87340000  1.0 -0.0774585724
C  C158  1  0.52800000  0.42220000  0.17640000  1.0 -0.0774585724
C  C159  1  0.87340000  0.17640000  0.42220000  1.0 -0.0774585724
C  C160  1  0.17640000  0.87340000  0.52800000  1.0 -0.0774585724
C  C161  1  0.87340000  0.42220000  0.52800000  1.0 -0.0774585724
C  C162  1  0.17640000  0.52800000  0.42220000  1.0 -0.0774585724
C  C163  1  0.42220000  0.87340000  0.17640000  1.0 -0.0774585724
C  C164  1  0.52800000  0.17640000  0.87340000  1.0 -0.0774585724
C  C165  1  0.52800000  0.87340000  0.42220000  1.0 -0.0774585724
C  C166  1  0.42220000  0.17640000  0.52800000  1.0 -0.0774585724
C  C167  1  0.17640000  0.42220000  0.87340000  1.0 -0.0774585724
C  C168  1  0.87340000  0.52800000  0.17640000  1.0 -0.0774585724
C  C169  1  0.57780000  0.47200000  0.82360000  1.0 -0.0774585724
C  C170  1  0.47200000  0.57780000  0.12660000  1.0 -0.0774585724
C  C171  1  0.12660000  0.82360000  0.47200000  1.0 -0.0774585724
C  C172  1  0.82360000  0.12660000  0.57780000  1.0 -0.0774585724
C  C173  1  0.12660000  0.57780000  0.82360000  1.0 -0.0774585724
C  C174  1  0.82360000  0.47200000  0.12660000  1.0 -0.0774585724
C  C175  1  0.57780000  0.12660000  0.47200000  1.0 -0.0774585724
C  C176  1  0.47200000  0.82360000  0.57780000  1.0 -0.0774585724
C  C177  1  0.47200000  0.12660000  0.82360000  1.0 -0.0774585724
C  C178  1  0.57780000  0.82360000  0.12660000  1.0 -0.0774585724
C  C179  1  0.82360000  0.57780000  0.47200000  1.0 -0.0774585724
C  C180  1  0.12660000  0.47200000  0.57780000  1.0 -0.0774585724
C  C181  1  0.57570000  0.47270000  0.05330000  1.0 -0.0589346508
C  C182  1  0.47270000  0.57570000  0.89830000  1.0 -0.0589346508
C  C183  1  0.05330000  0.89830000  0.57570000  1.0 -0.0589346508
C  C184  1  0.89830000  0.05330000  0.47270000  1.0 -0.0589346508
C  C185  1  0.05330000  0.57570000  0.47270000  1.0 -0.0589346508
C  C186  1  0.89830000  0.47270000  0.57570000  1.0 -0.0589346508
C  C187  1  0.57570000  0.05330000  0.89830000  1.0 -0.0589346508
C  C188  1  0.47270000  0.89830000  0.05330000  1.0 -0.0589346508
C  C189  1  0.47270000  0.05330000  0.57570000  1.0 -0.0589346508
C  C190  1  0.57570000  0.89830000  0.47270000  1.0 -0.0589346508
C  C191  1  0.89830000  0.57570000  0.05330000  1.0 -0.0589346508
C  C192  1  0.05330000  0.47270000  0.89830000  1.0 -0.0589346508
C  C193  1  0.42430000  0.52730000  0.10170000  1.0 -0.0589346508
C  C194  1  0.52730000  0.42430000  0.94670000  1.0 -0.0589346508
C  C195  1  0.94670000  0.10170000  0.52730000  1.0 -0.0589346508
C  C196  1  0.10170000  0.94670000  0.42430000  1.0 -0.0589346508
C  C197  1  0.94670000  0.42430000  0.10170000  1.0 -0.0589346508
C  C198  1  0.10170000  0.52730000  0.94670000  1.0 -0.0589346508
C  C199  1  0.42430000  0.94670000  0.52730000  1.0 -0.0589346508
C  C200  1  0.52730000  0.10170000  0.42430000  1.0 -0.0589346508
C  C201  1  0.52730000  0.94670000  0.10170000  1.0 -0.0589346508
C  C202  1  0.42430000  0.10170000  0.94670000  1.0 -0.0589346508
C  C203  1  0.10170000  0.42430000  0.52730000  1.0 -0.0589346508
C  C204  1  0.94670000  0.52730000  0.42430000  1.0 -0.0589346508
C  C205  1  0.42430000  0.52730000  0.94670000  1.0 -0.0589346508
C  C206  1  0.52730000  0.42430000  0.10170000  1.0 -0.0589346508
C  C207  1  0.94670000  0.10170000  0.42430000  1.0 -0.0589346508
C  C208  1  0.10170000  0.94670000  0.52730000  1.0 -0.0589346508
C  C209  1  0.94670000  0.42430000  0.52730000  1.0 -0.0589346508
C  C210  1  0.10170000  0.52730000  0.42430000  1.0 -0.0589346508
C  C211  1  0.42430000  0.94670000  0.10170000  1.0 -0.0589346508
C  C212  1  0.52730000  0.10170000  0.94670000  1.0 -0.0589346508
C  C213  1  0.52730000  0.94670000  0.42430000  1.0 -0.0589346508
C  C214  1  0.42430000  0.10170000  0.52730000  1.0 -0.0589346508
C  C215  1  0.10170000  0.42430000  0.94670000  1.0 -0.0589346508
C  C216  1  0.94670000  0.52730000  0.10170000  1.0 -0.0589346508
C  C217  1  0.57570000  0.47270000  0.89830000  1.0 -0.0589346508
C  C218  1  0.47270000  0.57570000  0.05330000  1.0 -0.0589346508
C  C219  1  0.05330000  0.89830000  0.47270000  1.0 -0.0589346508
C  C220  1  0.89830000  0.05330000  0.57570000  1.0 -0.0589346508
C  C221  1  0.05330000  0.57570000  0.89830000  1.0 -0.0589346508
C  C222  1  0.89830000  0.47270000  0.05330000  1.0 -0.0589346508
C  C223  1  0.57570000  0.05330000  0.47270000  1.0 -0.0589346508
C  C224  1  0.47270000  0.89830000  0.57570000  1.0 -0.0589346508
C  C225  1  0.47270000  0.05330000  0.89830000  1.0 -0.0589346508
C  C226  1  0.57570000  0.89830000  0.05330000  1.0 -0.0589346508
C  C227  1  0.89830000  0.57570000  0.47270000  1.0 -0.0589346508
C  C228  1  0.05330000  0.47270000  0.57570000  1.0 -0.0589346508
Cl  Cl1  1  0.62380000  0.34000000  0.21220000  1.0 -0.0031323027
Cl  Cl2  1  0.34000000  0.62380000  0.82400000  1.0 -0.0031323027
Cl  Cl3  1  0.21220000  0.82400000  0.62380000  1.0 -0.0031323027
Cl  Cl4  1  0.82400000  0.21220000  0.34000000  1.0 -0.0031323027
Cl  Cl5  1  0.21220000  0.62380000  0.34000000  1.0 -0.0031323027
Cl  Cl6  1  0.82400000  0.34000000  0.62380000  1.0 -0.0031323027
Cl  Cl7  1  0.62380000  0.21220000  0.82400000  1.0 -0.0031323027
Cl  Cl8  1  0.34000000  0.82400000  0.21220000  1.0 -0.0031323027
Cl  Cl9  1  0.34000000  0.21220000  0.62380000  1.0 -0.0031323027
Cl  Cl10  1  0.62380000  0.82400000  0.34000000  1.0 -0.0031323027
Cl  Cl11  1  0.82400000  0.62380000  0.21220000  1.0 -0.0031323027
Cl  Cl12  1  0.21220000  0.34000000  0.82400000  1.0 -0.0031323027
Cl  Cl13  1  0.37620000  0.66000000  0.17600000  1.0 -0.0031323027
Cl  Cl14  1  0.66000000  0.37620000  0.78780000  1.0 -0.0031323027
Cl  Cl15  1  0.78780000  0.17600000  0.66000000  1.0 -0.0031323027
Cl  Cl16  1  0.17600000  0.78780000  0.37620000  1.0 -0.0031323027
Cl  Cl17  1  0.78780000  0.37620000  0.17600000  1.0 -0.0031323027
Cl  Cl18  1  0.17600000  0.66000000  0.78780000  1.0 -0.0031323027
Cl  Cl19  1  0.37620000  0.78780000  0.66000000  1.0 -0.0031323027
Cl  Cl20  1  0.66000000  0.17600000  0.37620000  1.0 -0.0031323027
Cl  Cl21  1  0.66000000  0.78780000  0.17600000  1.0 -0.0031323027
Cl  Cl22  1  0.37620000  0.17600000  0.78780000  1.0 -0.0031323027
Cl  Cl23  1  0.17600000  0.37620000  0.66000000  1.0 -0.0031323027
Cl  Cl24  1  0.78780000  0.66000000  0.37620000  1.0 -0.0031323027
Cl  Cl25  1  0.37620000  0.66000000  0.78780000  1.0 -0.0031323027
Cl  Cl26  1  0.66000000  0.37620000  0.17600000  1.0 -0.0031323027
Cl  Cl27  1  0.78780000  0.17600000  0.37620000  1.0 -0.0031323027
Cl  Cl28  1  0.17600000  0.78780000  0.66000000  1.0 -0.0031323027
Cl  Cl29  1  0.78780000  0.37620000  0.66000000  1.0 -0.0031323027
Cl  Cl30  1  0.17600000  0.66000000  0.37620000  1.0 -0.0031323027
Cl  Cl31  1  0.37620000  0.78780000  0.17600000  1.0 -0.0031323027
Cl  Cl32  1  0.66000000  0.17600000  0.78780000  1.0 -0.0031323027
Cl  Cl33  1  0.66000000  0.78780000  0.37620000  1.0 -0.0031323027
Cl  Cl34  1  0.37620000  0.17600000  0.66000000  1.0 -0.0031323027
Cl  Cl35  1  0.17600000  0.37620000  0.78780000  1.0 -0.0031323027
Cl  Cl36  1  0.78780000  0.66000000  0.17600000  1.0 -0.0031323027
Cl  Cl37  1  0.62380000  0.34000000  0.82400000  1.0 -0.0031323027
Cl  Cl38  1  0.34000000  0.62380000  0.21220000  1.0 -0.0031323027
Cl  Cl39  1  0.21220000  0.82400000  0.34000000  1.0 -0.0031323027
Cl  Cl40  1  0.82400000  0.21220000  0.62380000  1.0 -0.0031323027
Cl  Cl41  1  0.21220000  0.62380000  0.82400000  1.0 -0.0031323027
Cl  Cl42  1  0.82400000  0.34000000  0.21220000  1.0 -0.0031323027
Cl  Cl43  1  0.62380000  0.21220000  0.34000000  1.0 -0.0031323027
Cl  Cl44  1  0.34000000  0.82400000  0.62380000  1.0 -0.0031323027
Cl  Cl45  1  0.34000000  0.21220000  0.82400000  1.0 -0.0031323027
Cl  Cl46  1  0.62380000  0.82400000  0.21220000  1.0 -0.0031323027
Cl  Cl47  1  0.82400000  0.62380000  0.34000000  1.0 -0.0031323027
Cl  Cl48  1  0.21220000  0.34000000  0.62380000  1.0 -0.0031323027
Cl  Cl49  1  0.68710000  0.43270000  0.12390000  1.0 -0.0589346508
Cl  Cl50  1  0.43270000  0.68710000  0.75630000  1.0 -0.0589346508
Cl  Cl51  1  0.12390000  0.75630000  0.68710000  1.0 -0.0589346508
Cl  Cl52  1  0.75630000  0.12390000  0.43270000  1.0 -0.0589346508
Cl  Cl53  1  0.12390000  0.68710000  0.43270000  1.0 -0.0589346508
Cl  Cl54  1  0.75630000  0.43270000  0.68710000  1.0 -0.0589346508
Cl  Cl55  1  0.68710000  0.12390000  0.75630000  1.0 -0.0589346508
Cl  Cl56  1  0.43270000  0.75630000  0.12390000  1.0 -0.0589346508
Cl  Cl57  1  0.43270000  0.12390000  0.68710000  1.0 -0.0589346508
Cl  Cl58  1  0.68710000  0.75630000  0.43270000  1.0 -0.0589346508
Cl  Cl59  1  0.75630000  0.68710000  0.12390000  1.0 -0.0589346508
Cl  Cl60  1  0.12390000  0.43270000  0.75630000  1.0 -0.0589346508
Cl  Cl61  1  0.31290000  0.56730000  0.24370000  1.0 -0.0589346508
Cl  Cl62  1  0.56730000  0.31290000  0.87610000  1.0 -0.0589346508
Cl  Cl63  1  0.87610000  0.24370000  0.56730000  1.0 -0.0589346508
Cl  Cl64  1  0.24370000  0.87610000  0.31290000  1.0 -0.0589346508
Cl  Cl65  1  0.87610000  0.31290000  0.24370000  1.0 -0.0589346508
Cl  Cl66  1  0.24370000  0.56730000  0.87610000  1.0 -0.0589346508
Cl  Cl67  1  0.31290000  0.87610000  0.56730000  1.0 -0.0589346508
Cl  Cl68  1  0.56730000  0.24370000  0.31290000  1.0 -0.0589346508
Cl  Cl69  1  0.56730000  0.87610000  0.24370000  1.0 -0.0589346508
Cl  Cl70  1  0.31290000  0.24370000  0.87610000  1.0 -0.0589346508
Cl  Cl71  1  0.24370000  0.31290000  0.56730000  1.0 -0.0589346508
Cl  Cl72  1  0.87610000  0.56730000  0.31290000  1.0 -0.0589346508
Cl  Cl73  1  0.31290000  0.56730000  0.87610000  1.0 -0.0589346508
Cl  Cl74  1  0.56730000  0.31290000  0.24370000  1.0 -0.0589346508
Cl  Cl75  1  0.87610000  0.24370000  0.31290000  1.0 -0.0589346508
Cl  Cl76  1  0.24370000  0.87610000  0.56730000  1.0 -0.0589346508
Cl  Cl77  1  0.87610000  0.31290000  0.56730000  1.0 -0.0589346508
Cl  Cl78  1  0.24370000  0.56730000  0.31290000  1.0 -0.0589346508
Cl  Cl79  1  0.31290000  0.87610000  0.24370000  1.0 -0.0589346508
Cl  Cl80  1  0.56730000  0.24370000  0.87610000  1.0 -0.0589346508
Cl  Cl81  1  0.56730000  0.87610000  0.31290000  1.0 -0.0589346508
Cl  Cl82  1  0.31290000  0.24370000  0.56730000  1.0 -0.0589346508
Cl  Cl83  1  0.24370000  0.31290000  0.87610000  1.0 -0.0589346508
Cl  Cl84  1  0.87610000  0.56730000  0.24370000  1.0 -0.0589346508
Cl  Cl85  1  0.68710000  0.43270000  0.75630000  1.0 -0.0589346508
Cl  Cl86  1  0.43270000  0.68710000  0.12390000  1.0 -0.0589346508
Cl  Cl87  1  0.12390000  0.75630000  0.43270000  1.0 -0.0589346508
Cl  Cl88  1  0.75630000  0.12390000  0.68710000  1.0 -0.0589346508
Cl  Cl89  1  0.12390000  0.68710000  0.75630000  1.0 -0.0589346508
Cl  Cl90  1  0.75630000  0.43270000  0.12390000  1.0 -0.0589346508
Cl  Cl91  1  0.68710000  0.12390000  0.43270000  1.0 -0.0589346508
Cl  Cl92  1  0.43270000  0.75630000  0.68710000  1.0 -0.0589346508
Cl  Cl93  1  0.43270000  0.12390000  0.75630000  1.0 -0.0589346508
Cl  Cl94  1  0.68710000  0.75630000  0.12390000  1.0 -0.0589346508
Cl  Cl95  1  0.75630000  0.68710000  0.43270000  1.0 -0.0589346508
Cl  Cl96  1  0.12390000  0.43270000  0.68710000  1.0 -0.0589346508
O  O1  1  0.61880000  0.46040000  0.46040000  1.0 -0.323650172
O  O2  1  0.46040000  0.61880000  0.46040000  1.0 -0.323650172
O  O3  1  0.46040000  0.46040000  0.61880000  1.0 -0.323650172
O  O4  1  0.46040000  0.46040000  0.46040000  1.0 -0.323650172
O  O5  1  0.38120000  0.53960000  0.53960000  1.0 -0.323650172
O  O6  1  0.53960000  0.38120000  0.53960000  1.0 -0.323650172
O  O7  1  0.53960000  0.53960000  0.53960000  1.0 -0.323650172
O  O8  1  0.53960000  0.53960000  0.38120000  1.0 -0.323650172
O  O9  1  0.56075000  0.43925000  0.29521000  1.0 -0.5252261143
O  O10  1  0.43925000  0.56075000  0.70479000  1.0 -0.5243161064
O  O11  1  0.29521000  0.70479000  0.56075000  1.0 -0.5252261143
O  O12  1  0.70479000  0.29521000  0.43925000  1.0 -0.5243161064
O  O13  1  0.29521000  0.56075000  0.43925000  1.0 -0.5252261143
O  O14  1  0.70479000  0.43925000  0.56075000  1.0 -0.5243161064
O  O15  1  0.56075000  0.29521000  0.70479000  1.0 -0.5243161064
O  O16  1  0.43925000  0.70479000  0.29521000  1.0 -0.5243161064
O  O17  1  0.43925000  0.29521000  0.56075000  1.0 -0.5243161064
O  O18  1  0.56075000  0.70479000  0.43925000  1.0 -0.5252261143
O  O19  1  0.70479000  0.56075000  0.29521000  1.0 -0.5243161064
O  O20  1  0.29521000  0.43925000  0.70479000  1.0 -0.5243161064
O  O21  1  0.43925000  0.56075000  0.29521000  1.0 -0.5252261143
O  O22  1  0.56075000  0.43925000  0.70479000  1.0 -0.5243161064
O  O23  1  0.70479000  0.29521000  0.56075000  1.0 -0.5243161064
O  O24  1  0.29521000  0.70479000  0.43925000  1.0 -0.5252261143
O  O25  1  0.70479000  0.43925000  0.29521000  1.0 -0.5243161064
O  O26  1  0.29521000  0.56075000  0.70479000  1.0 -0.5243161064
O  O27  1  0.43925000  0.70479000  0.56075000  1.0 -0.5252261143
O  O28  1  0.56075000  0.29521000  0.43925000  1.0 -0.5243161064
O  O29  1  0.56075000  0.70479000  0.29521000  1.0 -0.5243161064
O  O30  1  0.43925000  0.29521000  0.70479000  1.0 -0.5243161064
O  O31  1  0.29521000  0.43925000  0.56075000  1.0 -0.5252261143
O  O32  1  0.70479000  0.56075000  0.43925000  1.0 -0.5252261143
O  O33  1  0.65840000  0.44720000  0.44720000  1.0 -0.2524443641
O  O34  1  0.44720000  0.65840000  0.44720000  1.0 -0.2524443641
O  O35  1  0.44720000  0.44720000  0.65840000  1.0 -0.2524443641
O  O36  1  0.44720000  0.44720000  0.44720000  1.0 -0.2524443641
O  O37  1  0.34160000  0.55280000  0.55280000  1.0 -0.2524443641
O  O38  1  0.55280000  0.34160000  0.55280000  1.0 -0.2524443641
O  O39  1  0.55280000  0.55280000  0.55280000  1.0 -0.2524443641
O  O40  1  0.55280000  0.55280000  0.34160000  1.0 -0.2524443641
