# DDEC6 charges by PACMAN v1.1 (https://github.com/mtap-research/PACMAN-charge/)
data_ISEQIH_ASR_pacman
_symmetry_space_group_name_H-M   'P 1'
_cell_length_a   5.94660000
_cell_length_b   10.22470000
_cell_length_c   16.64960000
_cell_angle_alpha   72.21300000
_cell_angle_beta   79.71800000
_cell_angle_gamma   89.79100000
_symmetry_Int_Tables_number   1
_chemical_formula_structural   Ca3H10(C6O7)2
_chemical_formula_sum   'Ca6 H20 C24 O28'
_cell_volume   947.06224713
_cell_formula_units_Z   2
loop_
 _symmetry_equiv_pos_site_id
 _symmetry_equiv_pos_as_xyz
  1  'x, y, z'
loop_
 _atom_site_type_symbol
 _atom_site_label
 _atom_site_symmetry_multiplicity
 _atom_site_fract_x
 _atom_site_fract_y
 _atom_site_fract_z
 _atom_site_occupancy
 _atom_site_charge
Ca  Ca1  1  0.25053000  0.10945000  0.00262000  1.0 1.3554434199
Ca  Ca2  1  0.74947000  0.89055000  0.99738000  1.0 1.3554434199
Ca  Ca3  1  0.94700000  0.79987000  0.61603000  1.0 1.3770804821
Ca  Ca4  1  0.05300000  0.20013000  0.38397000  1.0 1.374467494
Ca  Ca5  1  0.45591000  0.57650000  0.60681000  1.0 1.3770804821
Ca  Ca6  1  0.54409000  0.42350000  0.39319000  1.0 1.3770804821
H  H1  1  0.29133000  0.34578000  0.75770000  1.0 0.3474631925
H  H2  1  0.70867000  0.65422000  0.24230000  1.0 0.3474631925
H  H3  1  0.14811000  0.97374000  0.36482000  1.0 0.3253068943
H  H4  1  0.85189000  0.02626000  0.63518000  1.0 0.3253068943
H  H5  1  0.74204000  0.24773000  0.79626000  1.0 0.14816151
H  H6  1  0.25796000  0.75227000  0.20374000  1.0 0.14816151
H  H7  1  0.91580000  0.11834000  0.77306000  1.0 0.1385634411
H  H8  1  0.08420000  0.88166000  0.22694000  1.0 0.1385634411
H  H9  1  0.02749000  0.17657000  0.63470000  1.0 0.1158885379
H  H10  1  0.97251000  0.82343000  0.36530000  1.0 0.1158885379
H  H11  1  0.83196000  0.30957000  0.61038000  1.0 0.14816151
H  H12  1  0.16804000  0.69043000  0.38962000  1.0 0.14816151
H  H13  1  0.49791000  0.80648000  0.36810000  1.0 0.1385634411
H  H14  1  0.50209000  0.19352000  0.63190000  1.0 0.1385634411
H  H15  1  0.67902000  0.91818000  0.39467000  1.0 0.14816151
H  H16  1  0.32098000  0.08182000  0.60533000  1.0 0.14816151
H  H17  1  0.75465000  0.03743000  0.20600000  1.0 0.14816151
H  H18  1  0.24535000  0.96257000  0.79400000  1.0 0.14816151
H  H19  1  0.57620000  0.88714000  0.23225000  1.0 0.1308021416
H  H20  1  0.42380000  0.11286000  0.76775000  1.0 0.1308021416
C  C1  1  0.02453000  0.20448000  0.86165000  1.0 0.679600201
C  C2  1  0.97547000  0.79552000  0.13835000  1.0 0.679600201
C  C3  1  0.92307000  0.22132000  0.78203000  1.0 -0.3893435057
C  C4  1  0.07693000  0.77868000  0.21797000  1.0 -0.3893435057
C  C5  1  0.04118000  0.33108000  0.69926000  1.0 0.2440151442
C  C6  1  0.95882000  0.66892000  0.30074000  1.0 0.2440151442
C  C7  1  0.00918000  0.28867000  0.62117000  1.0 -0.3762864451
C  C8  1  0.99082000  0.71133000  0.37883000  1.0 -0.3762864451
C  C9  1  0.16278000  0.35993000  0.53585000  1.0 0.6868196745
C  C10  1  0.83722000  0.64007000  0.46415000  1.0 0.6868196745
C  C11  1  0.92301000  0.46769000  0.69152000  1.0 0.5700775404
C  C12  1  0.07699000  0.53231000  0.30848000  1.0 0.5700775404
C  C13  1  0.34013000  0.89139000  0.46646000  1.0 0.679600201
C  C14  1  0.65987000  0.10861000  0.53354000  1.0 0.679600201
C  C15  1  0.50473000  0.90492000  0.38267000  1.0 -0.3893435057
C  C16  1  0.49527000  0.09508000  0.61733000  1.0 -0.3893435057
C  C17  1  0.46267000  0.02599000  0.30568000  1.0 0.2330846508
C  C18  1  0.53733000  0.97401000  0.69432000  1.0 0.2330846508
C  C19  1  0.57206000  0.99947000  0.22203000  1.0 -0.3609513621
C  C20  1  0.42794000  0.00053000  0.77797000  1.0 -0.3609513621
C  C21  1  0.47118000  0.05759000  0.14149000  1.0 0.679600201
C  C22  1  0.52882000  0.94241000  0.85851000  1.0 0.679600201
C  C23  1  0.57737000  0.15691000  0.31243000  1.0 0.58270544
C  C24  1  0.42263000  0.84309000  0.68757000  1.0 0.58270544
O  O1  1  0.18913000  0.28335000  0.86357000  1.0 -0.5869570951
O  O2  1  0.81087000  0.71665000  0.13643000  1.0 -0.5869570951
O  O3  1  0.94068000  0.10341000  0.92869000  1.0 -0.6949613075
O  O4  1  0.05932000  0.89659000  0.07131000  1.0 -0.6949613075
O  O5  1  0.18163000  0.29670000  0.47952000  1.0 -0.6693546753
O  O6  1  0.81837000  0.70330000  0.52048000  1.0 -0.6693546753
O  O7  1  0.26773000  0.47555000  0.52071000  1.0 -0.630226491
O  O8  1  0.73227000  0.52445000  0.47929000  1.0 -0.630226491
O  O9  1  0.05236000  0.57542000  0.67597000  1.0 -0.6455832701
O  O10  1  0.94764000  0.42458000  0.32403000  1.0 -0.6455832701
O  O11  1  0.70814000  0.46130000  0.69805000  1.0 -0.5953361969
O  O12  1  0.29186000  0.53870000  0.30195000  1.0 -0.5953361969
O  O13  1  0.28169000  0.34859000  0.69755000  1.0 -0.5602703075
O  O14  1  0.71831000  0.65141000  0.30245000  1.0 -0.5602703075
O  O15  1  0.22182000  0.99180000  0.47563000  1.0 -0.6399056296
O  O16  1  0.77818000  0.00820000  0.52437000  1.0 -0.6399056296
O  O17  1  0.31776000  0.77509000  0.52454000  1.0 -0.6562587004
O  O18  1  0.68224000  0.22491000  0.47546000  1.0 -0.6562587004
O  O19  1  0.55092000  0.00544000  0.08050000  1.0 -0.7247792463
O  O20  1  0.44908000  0.99456000  0.91950000  1.0 -0.7247792463
O  O21  1  0.32190000  0.14685000  0.13142000  1.0 -0.584222434
O  O22  1  0.67810000  0.85315000  0.86858000  1.0 -0.584222434
O  O23  1  0.45218000  0.25136000  0.32681000  1.0 -0.6399056296
O  O24  1  0.54782000  0.74864000  0.67319000  1.0 -0.6399056296
O  O25  1  0.79201000  0.15373000  0.30645000  1.0 -0.5953361969
O  O26  1  0.20799000  0.84627000  0.69355000  1.0 -0.5953361969
O  O27  1  0.21846000  0.03685000  0.30900000  1.0 -0.5140126328
O  O28  1  0.78154000  0.96315000  0.69100000  1.0 -0.5140126328
