# DDEC6 charges by PACMAN v1.1 (https://github.com/mtap-research/PACMAN-charge/)
data_ISIYER_ASR_pacman
_symmetry_space_group_name_H-M   'P 1'
_cell_length_a   19.29360000
_cell_length_b   25.64620000
_cell_length_c   26.13880000
_cell_angle_alpha   90.00000000
_cell_angle_beta   90.14400000
_cell_angle_gamma   90.00000000
_symmetry_Int_Tables_number   1
_chemical_formula_structural   Ce5Mn3Mo18H99C84(N4O29)2
_chemical_formula_sum   'Ce10 Mn6 Mo36 H198 C168 N16 O116'
_cell_volume   12933.63406864
_cell_formula_units_Z   2
loop_
 _symmetry_equiv_pos_site_id
 _symmetry_equiv_pos_as_xyz
  1  'x, y, z'
loop_
 _atom_site_type_symbol
 _atom_site_label
 _atom_site_symmetry_multiplicity
 _atom_site_fract_x
 _atom_site_fract_y
 _atom_site_fract_z
 _atom_site_occupancy
 _atom_site_charge
Ce  Ce1  1  0.81233000  0.31123000  0.31706000  1.0 1.7190935041
Ce  Ce2  1  0.79249000  0.92125000  0.80804000  1.0 1.6001380707
Ce  Ce3  1  0.36893000  0.87067000  0.12079000  1.0 1.5473048116
Ce  Ce4  1  0.51131000  0.88929000  0.24302000  1.0 1.8077702548
Ce  Ce5  1  0.38271000  0.33774000  0.62417000  1.0 1.624805751
Ce  Ce6  1  0.18767000  0.81123000  0.68294000  1.0 1.7411522295
Ce  Ce7  1  0.20751000  0.42125000  0.19196000  1.0 1.6001380707
Ce  Ce8  1  0.63107000  0.37067000  0.87921000  1.0 1.5683423306
Ce  Ce9  1  0.48869000  0.38929000  0.75698000  1.0 1.8077702548
Ce  Ce10  1  0.61729000  0.83774000  0.37583000  1.0 1.6265710022
Mn  Mn1  1  0.95772000  0.10818000  0.45651000  1.0 0.8768190171
Mn  Mn2  1  0.04583000  0.61191000  0.04872000  1.0 0.8593121793
Mn  Mn3  1  0.49789000  0.85901000  0.74600000  1.0 0.8731082703
Mn  Mn4  1  0.04228000  0.60818000  0.54349000  1.0 0.8768190171
Mn  Mn5  1  0.95417000  0.11191000  0.95128000  1.0 0.8593121793
Mn  Mn6  1  0.50211000  0.35901000  0.25400000  1.0 0.8731082703
Mo  Mo1  1  0.95811000  0.19865000  0.36445000  1.0 2.0273754026
Mo  Mo2  1  0.06732000  0.21010000  0.46368000  1.0 1.1539557602
Mo  Mo3  1  0.06818000  0.11724000  0.55438000  1.0 1.3101153399
Mo  Mo4  1  0.95929000  0.01487000  0.54575000  1.0 1.4687199022
Mo  Mo5  1  0.84550000  0.00756000  0.44925000  1.0 1.2491652395
Mo  Mo6  1  0.84546000  0.09942000  0.35940000  1.0 1.2550533439
Mo  Mo7  1  0.09035000  0.55326000  0.15828000  1.0 1.562061372
Mo  Mo8  1  0.16153000  0.66666667  0.12924000  1.0 1.2651259329
Mo  Mo9  1  0.11430000  0.72530000  0.01838000  1.0 1.389912429
Mo  Mo10  1  0.99950000  0.67190000  0.94097000  1.0 1.3524162199
Mo  Mo11  1  0.93040000  0.55760000  0.97148000  1.0 1.3297222282
Mo  Mo12  1  0.97564000  0.49775000  0.08332000  1.0 1.1624907281
Mo  Mo13  1  0.37430000  0.89084000  0.66278000  1.0 2.0779272939
Mo  Mo14  1  0.33486000  0.86738000  0.78431000  1.0 2.003742161
Mo  Mo15  1  0.45750000  0.83589000  0.86880000  1.0 1.4413422968
Mo  Mo16  1  0.62119000  0.82788000  0.82892000  1.0 2.0547522928
Mo  Mo17  1  0.66110000  0.84941000  0.70684000  1.0 1.9038041856
Mo  Mo18  1  0.53783000  0.88192000  0.62315000  1.0 1.133890691
Mo  Mo19  1  0.04189000  0.69865000  0.63555000  1.0 2.0125624563
Mo  Mo20  1  0.93268000  0.71010000  0.53632000  1.0 1.1539557602
Mo  Mo21  1  0.93182000  0.61724000  0.44562000  1.0 1.3101153399
Mo  Mo22  1  0.04071000  0.51487000  0.45425000  1.0 1.4687199022
Mo  Mo23  1  0.15450000  0.50756000  0.55075000  1.0 1.2410303976
Mo  Mo24  1  0.15454000  0.59942000  0.64060000  1.0 1.2491652395
Mo  Mo25  1  0.90965000  0.05326000  0.84172000  1.0 1.5683423306
Mo  Mo26  1  0.83847000  0.16673000  0.87076000  1.0 1.2839795973
Mo  Mo27  1  0.88570000  0.22530000  0.98162000  1.0 1.3967707779
Mo  Mo28  1  0.00050000  0.17190000  0.05903000  1.0 1.3524162199
Mo  Mo29  1  0.06960000  0.05760000  0.02852000  1.0 1.3218904163
Mo  Mo30  1  0.02436000  0.99775000  0.91668000  1.0 1.1624907281
Mo  Mo31  1  0.62570000  0.39084000  0.33722000  1.0 2.0779272939
Mo  Mo32  1  0.66514000  0.36738000  0.21569000  1.0 2.0125624563
Mo  Mo33  1  0.54250000  0.33589000  0.13120000  1.0 1.4413422968
Mo  Mo34  1  0.37881000  0.32788000  0.17108000  1.0 2.0624741937
Mo  Mo35  1  0.33890000  0.34941000  0.29316000  1.0 1.9038041856
Mo  Mo36  1  0.46217000  0.38192000  0.37685000  1.0 1.1375190641
H  H1  1  0.14301000  0.04024000  0.34635000  1.0 0.2192552438
H  H2  1  0.76774000  0.17636000  0.56269000  1.0 0.2105077083
H  H3  1  0.83565000  0.69274000  0.11077000  1.0 0.2105077083
H  H4  1  0.22638000  0.50053000  0.98848000  1.0 0.2192552438
H  H5  1  0.06866000  0.11204000  0.34658000  1.0 0.0808091116
H  H6  1  0.12061000  0.11567000  0.39410000  1.0 0.0904766918
H  H7  1  0.11933000  0.04424000  0.46089000  1.0 0.0904766918
H  H8  1  0.06405000  0.99819000  0.45594000  1.0 0.0709450708
H  H9  1  0.98394000  0.99334000  0.37868000  1.0 0.0709450708
H  H10  1  0.98328000  0.04067000  0.33887000  1.0 0.0808091116
H  H11  1  0.12442000  0.95580000  0.40223000  1.0 0.0808091116
H  H12  1  0.07502000  0.95235000  0.35264000  1.0 0.0808091116
H  H13  1  0.13492000  0.91262000  0.27819000  1.0 0.0990993138
H  H14  1  0.23694000  0.89560000  0.22979000  1.0 0.0990993138
H  H15  1  0.34794000  0.98222000  0.33204000  1.0 0.108835422
H  H16  1  0.24950000  0.00186000  0.37765000  1.0 0.0990993138
H  H17  1  0.92852000  0.22643000  0.52760000  1.0 0.0808091116
H  H18  1  0.92746000  0.18285000  0.57125000  1.0 0.0808091116
H  H19  1  0.79576000  0.10141000  0.52364000  1.0 0.0904766918
H  H20  1  0.85247000  0.10564000  0.56815000  1.0 0.0904766918
H  H21  1  0.84241000  0.21713000  0.45384000  1.0 0.0808091116
H  H22  1  0.79365000  0.16680000  0.45456000  1.0 0.0808091116
H  H23  1  0.83956000  0.26407000  0.56239000  1.0 0.0808091116
H  H24  1  0.79578000  0.26306000  0.51029000  1.0 0.0808091116
H  H25  1  0.66828000  0.22468000  0.53826000  1.0 0.0990993138
H  H26  1  0.56539000  0.26061000  0.57487000  1.0 0.108835422
H  H27  1  0.68820000  0.34693000  0.66559000  1.0 0.0990993138
H  H28  1  0.78429000  0.31347000  0.62482000  1.0 0.0990993138
H  H29  1  0.97445000  0.63928000  0.17575000  1.0 0.0585557792
H  H30  1  0.00775000  0.69345000  0.15765000  1.0 0.0709450708
H  H31  1  0.97034000  0.73574000  0.07302000  1.0 0.0808091116
H  H32  1  0.91439000  0.70752000  0.03715000  1.0 0.0709450708
H  H33  1  0.85919000  0.61713000  0.06975000  1.0 0.0709450708
H  H34  1  0.89191000  0.59047000  0.11944000  1.0 0.0585557792
H  H35  1  0.88055000  0.68179000  0.20233000  1.0 0.0709450708
H  H36  1  0.91152000  0.73571000  0.18112000  1.0 0.0709450708
H  H37  1  0.77551000  0.68512000  0.24135000  1.0 0.0990993138
H  H38  1  0.67952000  0.73431000  0.26697000  1.0 0.0990993138
H  H39  1  0.72559000  0.84341000  0.16015000  1.0 0.0990993138
H  H40  1  0.82157000  0.79422000  0.13453000  1.0 0.0904766918
H  H41  1  0.22794000  0.60288000  0.02907000  1.0 0.0904766918
H  H42  1  0.19334000  0.62827000  0.97960000  1.0 0.0709450708
H  H43  1  0.13110000  0.59291000  0.93233000  1.0 0.0808091116
H  H44  1  0.09763000  0.53674000  0.94016000  1.0 0.0808091116
H  H45  1  0.12796000  0.49267000  0.02360000  1.0 0.0808091116
H  H46  1  0.18088000  0.52356000  0.05924000  1.0 0.0904766918
H  H47  1  0.20708000  0.52597000  0.90431000  1.0 0.0904766918
H  H48  1  0.24836000  0.57345000  0.92843000  1.0 0.0808091116
H  H49  1  0.26671000  0.44347000  0.88715000  1.0 0.0904766918
H  H50  1  0.37260000  0.40189000  0.87178000  1.0 0.108835422
H  H51  1  0.47497000  0.52827000  0.92641000  1.0 0.0990993138
H  H52  1  0.36907000  0.56987000  0.94173000  1.0 0.0990993138
H  H53  1  0.48007000  0.66710000  0.73896000  1.0 0.2105077083
H  H54  1  0.56461000  0.03934000  0.78037000  1.0 0.0904766918
H  H55  1  0.37464000  0.75754000  0.74198000  1.0 0.0904766918
H  H56  1  0.38932000  0.76595000  0.68237000  1.0 0.0904766918
H  H57  1  0.55135000  0.73050000  0.78120000  1.0 0.0904766918
H  H58  1  0.47304000  0.73036000  0.80063000  1.0 0.0904766918
H  H59  1  0.51800000  0.76112000  0.64949000  1.0 0.0709450708
H  H60  1  0.57901000  0.74727000  0.68853000  1.0 0.0808091116
H  H61  1  0.40017000  0.68983000  0.65780000  1.0 0.0808091116
H  H62  1  0.47808000  0.68262000  0.63816000  1.0 0.0904766918
H  H63  1  0.53645000  0.59341000  0.67849000  1.0 0.108835422
H  H64  1  0.51525000  0.50152000  0.67702000  1.0 0.0990993138
H  H65  1  0.31740000  0.52787000  0.63608000  1.0 0.108835422
H  H66  1  0.33263000  0.61667000  0.64747000  1.0 0.0904766918
H  H67  1  0.41648000  0.97113000  0.80275000  1.0 0.0904766918
H  H68  1  0.47690000  0.95716000  0.84235000  1.0 0.0808091116
H  H69  1  0.59865000  0.95063000  0.81529000  1.0 0.0808091116
H  H70  1  0.62064000  0.96300000  0.75761000  1.0 0.0808091116
H  H71  1  0.52312000  0.98677000  0.69026000  1.0 0.0808091116
H  H72  1  0.44422000  0.98767000  0.70875000  1.0 0.0808091116
H  H73  1  0.42845000  0.05739000  0.75955000  1.0 0.0808091116
H  H74  1  0.43513000  0.04624000  0.81976000  1.0 0.0709450708
H  H75  1  0.57314000  0.10149000  0.83661000  1.0 0.0709450708
H  H76  1  0.60473000  0.18919000  0.84482000  1.0 0.0709450708
H  H77  1  0.43040000  0.23203000  0.76888000  1.0 0.0709450708
H  H78  1  0.39881000  0.14433000  0.76066000  1.0 0.0585557792
H  H79  1  0.41692000  0.26124000  0.48436000  1.0 0.2192552438
H  H80  1  0.25642000  0.21827000  0.43791000  1.0 0.0585557792
H  H81  1  0.33736000  0.20548000  0.43347000  1.0 0.0365280888
H  H82  1  0.31039000  0.26395000  0.42566000  1.0 0.0365280888
H  H83  1  0.21233000  0.21319000  0.48868000  1.0 0.0292845021
H  H84  1  0.21996000  0.24706000  0.53981000  1.0 0.0709450708
H  H85  1  0.24936000  0.18874000  0.53800000  1.0 0.0904766918
H  H86  1  0.49026000  0.04210000  0.79682000  1.0 0.0904766918
H  H87  1  0.62741000  0.04267000  0.77992000  1.0 0.0502081862
H  H88  1  0.59163000  0.05232000  0.72523000  1.0 0.0904766918
H  H89  1  0.48561000  0.12282000  0.73524000  1.0 0.0808091116
H  H90  1  0.47000000  0.21073000  0.75623000  1.0 0.0808091116
H  H91  1  0.64548000  0.20722000  0.84172000  1.0 0.0808091116
H  H92  1  0.66110000  0.11931000  0.82073000  1.0 0.0709450708
H  H93  1  0.33437000  0.27109000  0.50873000  1.0 0.2105077083
H  H94  1  0.39902000  0.18799000  0.40526000  1.0 0.0502081862
H  H95  1  0.35665000  0.24148000  0.40911000  1.0 0.0043214166
H  H96  1  0.33138000  0.19137000  0.44042000  1.0 0.0502081862
H  H97  1  0.47566000  0.17724000  0.42915000  1.0 0.0709450708
H  H98  1  0.47890000  0.16507000  0.48915000  1.0 0.0990993138
H  H99  1  0.51985000  0.21407000  0.46636000  1.0 0.0808091116
H  H100  1  0.85699000  0.54024000  0.65365000  1.0 0.2192552438
H  H101  1  0.23226000  0.67636000  0.43731000  1.0 0.2105077083
H  H102  1  0.16435000  0.19274000  0.88923000  1.0 0.2105077083
H  H103  1  0.77362000  0.00053000  0.01152000  1.0 0.2192552438
H  H104  1  0.93134000  0.61204000  0.65342000  1.0 0.0808091116
H  H105  1  0.87939000  0.61567000  0.60590000  1.0 0.0904766918
H  H106  1  0.88067000  0.54424000  0.53911000  1.0 0.0904766918
H  H107  1  0.93595000  0.49819000  0.54406000  1.0 0.0709450708
H  H108  1  0.01606000  0.49334000  0.62132000  1.0 0.0709450708
H  H109  1  0.01672000  0.54067000  0.66113000  1.0 0.0808091116
H  H110  1  0.87558000  0.45580000  0.59777000  1.0 0.0808091116
H  H111  1  0.92498000  0.45235000  0.64736000  1.0 0.0808091116
H  H112  1  0.86508000  0.41262000  0.72181000  1.0 0.0990993138
H  H113  1  0.76306000  0.39560000  0.77021000  1.0 0.0990993138
H  H114  1  0.65206000  0.48222000  0.66796000  1.0 0.108835422
H  H115  1  0.75050000  0.50186000  0.62235000  1.0 0.0990993138
H  H116  1  0.07148000  0.72643000  0.47240000  1.0 0.0808091116
H  H117  1  0.07254000  0.68285000  0.42875000  1.0 0.0808091116
H  H118  1  0.20424000  0.60141000  0.47636000  1.0 0.0904766918
H  H119  1  0.14753000  0.60564000  0.43185000  1.0 0.0904766918
H  H120  1  0.15759000  0.71713000  0.54616000  1.0 0.0808091116
H  H121  1  0.20635000  0.66680000  0.54544000  1.0 0.0808091116
H  H122  1  0.16044000  0.76407000  0.43761000  1.0 0.0808091116
H  H123  1  0.20422000  0.76306000  0.48971000  1.0 0.0808091116
H  H124  1  0.33172000  0.72468000  0.46174000  1.0 0.0990993138
H  H125  1  0.43461000  0.76061000  0.42513000  1.0 0.108835422
H  H126  1  0.31180000  0.84693000  0.33441000  1.0 0.0990993138
H  H127  1  0.21571000  0.81347000  0.37518000  1.0 0.0990993138
H  H128  1  0.02555000  0.13928000  0.82425000  1.0 0.0585557792
H  H129  1  0.99225000  0.19345000  0.84235000  1.0 0.0709450708
H  H130  1  0.02966000  0.23574000  0.92698000  1.0 0.0709450708
H  H131  1  0.08561000  0.20752000  0.96285000  1.0 0.0585557792
H  H132  1  0.14081000  0.11713000  0.93025000  1.0 0.0709450708
H  H133  1  0.10809000  0.09047000  0.88056000  1.0 0.0585557792
H  H134  1  0.11945000  0.18179000  0.79767000  1.0 0.0709450708
H  H135  1  0.08848000  0.23571000  0.81888000  1.0 0.0808091116
H  H136  1  0.22449000  0.18512000  0.75865000  1.0 0.0990993138
H  H137  1  0.32048000  0.23431000  0.73303000  1.0 0.0990993138
H  H138  1  0.27441000  0.34341000  0.83985000  1.0 0.0990993138
H  H139  1  0.17843000  0.29422000  0.86547000  1.0 0.0904766918
H  H140  1  0.77206000  0.10288000  0.97093000  1.0 0.0904766918
H  H141  1  0.80666000  0.12827000  0.02040000  1.0 0.0709450708
H  H142  1  0.86890000  0.09291000  0.06767000  1.0 0.0808091116
H  H143  1  0.90237000  0.03674000  0.05984000  1.0 0.0808091116
H  H144  1  0.87204000  0.99267000  0.97640000  1.0 0.0808091116
H  H145  1  0.81912000  0.02356000  0.94076000  1.0 0.0904766918
H  H146  1  0.79292000  0.02597000  0.09569000  1.0 0.0904766918
H  H147  1  0.75164000  0.07345000  0.07157000  1.0 0.0808091116
H  H148  1  0.73329000  0.94347000  0.11285000  1.0 0.0990993138
H  H149  1  0.62740000  0.90189000  0.12822000  1.0 0.108835422
H  H150  1  0.52503000  0.02827000  0.07359000  1.0 0.0990993138
H  H151  1  0.63093000  0.06987000  0.05827000  1.0 0.0990993138
H  H152  1  0.51993000  0.16710000  0.26104000  1.0 0.2105077083
H  H153  1  0.43539000  0.53934000  0.21963000  1.0 0.0904766918
H  H154  1  0.62536000  0.25754000  0.25802000  1.0 0.0904766918
H  H155  1  0.61068000  0.26595000  0.31763000  1.0 0.0904766918
H  H156  1  0.44865000  0.23050000  0.21880000  1.0 0.0904766918
H  H157  1  0.52696000  0.23036000  0.19937000  1.0 0.0904766918
H  H158  1  0.48200000  0.26112000  0.35051000  1.0 0.0709450708
H  H159  1  0.42099000  0.24727000  0.31147000  1.0 0.0808091116
H  H160  1  0.59983000  0.18983000  0.34220000  1.0 0.0808091116
H  H161  1  0.52192000  0.18262000  0.36184000  1.0 0.0904766918
H  H162  1  0.46355000  0.09341000  0.32151000  1.0 0.108835422
H  H163  1  0.48475000  0.00152000  0.32298000  1.0 0.0990993138
H  H164  1  0.68260000  0.02787000  0.36392000  1.0 0.108835422
H  H165  1  0.66737000  0.11667000  0.35253000  1.0 0.0904766918
H  H166  1  0.58352000  0.47113000  0.19725000  1.0 0.0904766918
H  H167  1  0.52310000  0.45716000  0.15765000  1.0 0.0808091116
H  H168  1  0.40135000  0.45063000  0.18471000  1.0 0.0808091116
H  H169  1  0.37936000  0.46300000  0.24239000  1.0 0.0808091116
H  H170  1  0.47688000  0.48677000  0.30974000  1.0 0.0808091116
H  H171  1  0.55578000  0.48767000  0.29125000  1.0 0.0808091116
H  H172  1  0.57155000  0.55739000  0.24045000  1.0 0.0808091116
H  H173  1  0.56487000  0.54624000  0.18024000  1.0 0.0709450708
H  H174  1  0.42686000  0.60149000  0.16339000  1.0 0.0709450708
H  H175  1  0.39527000  0.68919000  0.15518000  1.0 0.0709450708
H  H176  1  0.56960000  0.73203000  0.23112000  1.0 0.0709450708
H  H177  1  0.60119000  0.64433000  0.23934000  1.0 0.0502081862
H  H178  1  0.58308000  0.76124000  0.51564000  1.0 0.2192552438
H  H179  1  0.74358000  0.71827000  0.56209000  1.0 0.0585557792
H  H180  1  0.66264000  0.70548000  0.56653000  1.0 0.0365280888
H  H181  1  0.68961000  0.76395000  0.57434000  1.0 0.0365280888
H  H182  1  0.78767000  0.71319000  0.51132000  1.0 0.0292845021
H  H183  1  0.78004000  0.74706000  0.46019000  1.0 0.0709450708
H  H184  1  0.75064000  0.68874000  0.46200000  1.0 0.0904766918
H  H185  1  0.50974000  0.54210000  0.20318000  1.0 0.0904766918
H  H186  1  0.37259000  0.54267000  0.22008000  1.0 0.0502081862
H  H187  1  0.40837000  0.55232000  0.27477000  1.0 0.0904766918
H  H188  1  0.51439000  0.62282000  0.26476000  1.0 0.0808091116
H  H189  1  0.53000000  0.71073000  0.24377000  1.0 0.0808091116
H  H190  1  0.35452000  0.70722000  0.15828000  1.0 0.0808091116
H  H191  1  0.33890000  0.61931000  0.17927000  1.0 0.0709450708
H  H192  1  0.66563000  0.77109000  0.49127000  1.0 0.2105077083
H  H193  1  0.60098000  0.68799000  0.59474000  1.0 0.0502081862
H  H194  1  0.64335000  0.74148000  0.59089000  1.0 0.0043214166
H  H195  1  0.66862000  0.69137000  0.55958000  1.0 0.0502081862
H  H196  1  0.52434000  0.67724000  0.57085000  1.0 0.0709450708
H  H197  1  0.52110000  0.66507000  0.51085000  1.0 0.0990993138
H  H198  1  0.48015000  0.71407000  0.53364000  1.0 0.0808091116
C  C1  1  0.05910000  0.05020000  0.39620000  1.0 0.1380316566
C  C2  1  0.07240000  0.10710000  0.38400000  1.0 -0.11935189
C  C3  1  0.07060000  0.03620000  0.45190000  1.0 -0.1087979475
C  C4  1  0.98690000  0.03180000  0.37560000  1.0 -0.11935189
C  C5  1  0.11780000  0.96820000  0.36670000  1.0 -0.1600899969
C  C6  1  0.18290000  0.95320000  0.33240000  1.0 -0.0076763955
C  C7  1  0.17840000  0.92570000  0.28940000  1.0 -0.2105216259
C  C8  1  0.23950000  0.91600000  0.26000000  1.0 -0.1294704526
C  C9  1  0.30130000  0.93620000  0.27570000  1.0 -0.0516142406
C  C10  1  0.30450000  0.96840000  0.32150000  1.0 -0.11935189
C  C11  1  0.24810000  0.97910000  0.34900000  1.0 -0.1990591645
C  C12  1  0.36760000  0.92700000  0.24520000  1.0 0.5620421098
C  C13  1  0.85870000  0.17070000  0.51570000  1.0 0.1165796186
C  C14  1  0.92500000  0.18840000  0.53380000  1.0 -0.1386440586
C  C15  1  0.84480000  0.11000000  0.53090000  1.0 -0.0988129739
C  C16  1  0.84150000  0.17920000  0.46080000  1.0 -0.11935189
C  C17  1  0.79680000  0.25050000  0.54610000  1.0 -0.1600899969
C  C18  1  0.73510000  0.27150000  0.57390000  1.0 0.0585557792
C  C19  1  0.67180000  0.25190000  0.56280000  1.0 -0.2105216259
C  C20  1  0.61010000  0.27070000  0.58660000  1.0 -0.11935189
C  C21  1  0.61830000  0.30350000  0.62670000  1.0 -0.0405908369
C  C22  1  0.68280000  0.32170000  0.63930000  1.0 -0.1386440586
C  C23  1  0.73960000  0.30310000  0.61350000  1.0 -0.1916559373
C  C24  1  0.55910000  0.32260000  0.65810000  1.0 0.5620421098
C  C25  1  0.93400000  0.66490000  0.10530000  1.0 0.1522820841
C  C26  1  0.99250000  0.65860000  0.14580000  1.0 -0.1472959887
C  C27  1  0.95530000  0.70160000  0.05940000  1.0 -0.1294704526
C  C28  1  0.90320000  0.61080000  0.08830000  1.0 -0.1472959887
C  C29  1  0.87350000  0.71010000  0.17710000  1.0 -0.1386440586
C  C30  1  0.76540000  0.71730000  0.22490000  1.0 -0.1826467637
C  C31  1  0.70840000  0.74650000  0.24010000  1.0 -0.1600899969
C  C32  1  0.69350000  0.79350000  0.21600000  1.0 -0.0405908369
C  C33  1  0.73570000  0.81130000  0.17660000  1.0 -0.11935189
C  C34  1  0.79270000  0.78210000  0.16140000  1.0 -0.1990591645
C  C35  1  0.80760000  0.73500000  0.18550000  1.0 -0.0076763955
C  C36  1  0.64240000  0.83140000  0.23860000  1.0 0.519190463
C  C37  1  0.15950000  0.55820000  0.99540000  1.0 0.1165796186
C  C38  1  0.18340000  0.60780000  0.01090000  1.0 -0.1826467637
C  C39  1  0.10930000  0.56970000  0.95790000  1.0 -0.2293196444
C  C40  1  0.13980000  0.52770000  0.03690000  1.0 -0.1694926237
C  C41  1  0.24110000  0.53530000  0.93120000  1.0 -0.0704154161
C  C42  1  0.30800000  0.51060000  0.91580000  1.0 -0.0594510121
C  C43  1  0.30900000  0.46070000  0.89510000  1.0 -0.1990591645
C  C44  1  0.37190000  0.43600000  0.88600000  1.0 -0.11935189
C  C45  1  0.43370000  0.46120000  0.89770000  1.0 -0.0594510121
C  C46  1  0.43270000  0.51110000  0.91840000  1.0 -0.0988129739
C  C47  1  0.36980000  0.53580000  0.92750000  1.0 -0.1990591645
C  C48  1  0.50290000  0.43700000  0.88380000  1.0 0.5734236564
C  C49  1  0.48130000  0.74630000  0.72360000  1.0 0.1829390253
C  C50  1  0.40720000  0.77330000  0.71720000  1.0 -0.0988129739
C  C51  1  0.50660000  0.74920000  0.77880000  1.0 -0.1294704526
C  C52  1  0.53570000  0.76760000  0.68450000  1.0 -0.1386440586
C  C53  1  0.44480000  0.67230000  0.66510000  1.0 -0.1694926237
C  C54  1  0.43440000  0.61410000  0.66300000  1.0 0.0709450708
C  C55  1  0.49150000  0.58010000  0.67160000  1.0 -0.1990591645
C  C56  1  0.47900000  0.52540000  0.66940000  1.0 -0.11935189
C  C57  1  0.41300000  0.50690000  0.65580000  1.0 -0.0516142406
C  C58  1  0.36140000  0.54070000  0.64650000  1.0 -0.11935189
C  C59  1  0.37100000  0.59390000  0.65180000  1.0 -0.1916559373
C  C60  1  0.39990000  0.44830000  0.65220000  1.0 0.5620421098
C  C61  1  0.51350000  0.97030000  0.76910000  1.0 0.1165796186
C  C62  1  0.45960000  0.95060000  0.80720000  1.0 -0.1087979475
C  C63  1  0.58570000  0.94510000  0.77900000  1.0 -0.11935189
C  C64  1  0.48860000  0.96850000  0.71170000  1.0 -0.0988129739
C  C65  1  0.46020000  0.05910000  0.78930000  1.0 -0.243667138
C  C66  1  0.48300000  0.11470000  0.79790000  1.0 -0.0594510121
C  C67  1  0.54420000  0.12800000  0.82290000  1.0 -0.0888611947
C  C68  1  0.56290000  0.18010000  0.82770000  1.0 -0.0516142406
C  C69  1  0.52050000  0.21890000  0.80760000  1.0 -0.0165922728
C  C70  1  0.45940000  0.20550000  0.78260000  1.0 -0.1600899969
C  C71  1  0.44060000  0.15340000  0.77770000  1.0 -0.0988129739
C  C72  1  0.54370000  0.27710000  0.81090000  1.0 0.4305923011
C  C73  1  0.38170000  0.26080000  0.50970000  1.0 0.1913661387
C  C74  1  0.30300000  0.23140000  0.44460000  1.0 -0.1990591645
C  C75  1  0.24200000  0.22100000  0.51820000  1.0 -0.3597507004
C  C76  1  0.58500000  0.05610000  0.76260000  1.0 -0.2460228924
C  C77  1  0.57480000  0.11280000  0.77600000  1.0 -0.0594510121
C  C78  1  0.51810000  0.14000000  0.75690000  1.0 -0.1087979475
C  C79  1  0.50880000  0.19220000  0.76930000  1.0 -0.0704154161
C  C80  1  0.55630000  0.21720000  0.80090000  1.0 -0.0076763955
C  C81  1  0.61300000  0.19010000  0.82010000  1.0 -0.1386440586
C  C82  1  0.62230000  0.13790000  0.80760000  1.0 -0.1087979475
C  C83  1  0.37200000  0.21100000  0.42800000  1.0 -0.2105216259
C  C84  1  0.47800000  0.19300000  0.46300000  1.0 -0.3851232503
C  C85  1  0.94090000  0.55020000  0.60380000  1.0 0.1380316566
C  C86  1  0.92760000  0.60710000  0.61600000  1.0 -0.11935189
C  C87  1  0.92940000  0.53620000  0.54810000  1.0 -0.1087979475
C  C88  1  0.01310000  0.53180000  0.62440000  1.0 -0.11935189
C  C89  1  0.88220000  0.46820000  0.63330000  1.0 -0.1600899969
C  C90  1  0.81710000  0.45320000  0.66760000  1.0 -0.0076763955
C  C91  1  0.82160000  0.42570000  0.71060000  1.0 -0.2105216259
C  C92  1  0.76050000  0.41600000  0.74000000  1.0 -0.1294704526
C  C93  1  0.69870000  0.43620000  0.72430000  1.0 -0.0594510121
C  C94  1  0.69550000  0.46840000  0.67850000  1.0 -0.11935189
C  C95  1  0.75190000  0.47910000  0.65100000  1.0 -0.1990591645
C  C96  1  0.63240000  0.42700000  0.75480000  1.0 0.5620421098
C  C97  1  0.14130000  0.67070000  0.48430000  1.0 0.1165796186
C  C98  1  0.07500000  0.68840000  0.46620000  1.0 -0.1386440586
C  C99  1  0.15520000  0.61000000  0.46910000  1.0 -0.0988129739
C  C100  1  0.15850000  0.67920000  0.53920000  1.0 -0.11935189
C  C101  1  0.20320000  0.75050000  0.45390000  1.0 -0.1600899969
C  C102  1  0.26490000  0.77150000  0.42610000  1.0 0.0585557792
C  C103  1  0.32820000  0.75190000  0.43720000  1.0 -0.2196988997
C  C104  1  0.38990000  0.77070000  0.41340000  1.0 -0.11935189
C  C105  1  0.38170000  0.80350000  0.37330000  1.0 -0.0405908369
C  C106  1  0.31720000  0.82170000  0.36070000  1.0 -0.1386440586
C  C107  1  0.26040000  0.80310000  0.38650000  1.0 -0.1916559373
C  C108  1  0.44090000  0.82260000  0.34190000  1.0 0.5620421098
C  C109  1  0.06600000  0.16490000  0.89470000  1.0 0.1522820841
C  C110  1  0.00750000  0.15860000  0.85420000  1.0 -0.1472959887
C  C111  1  0.04470000  0.20160000  0.94060000  1.0 -0.1294704526
C  C112  1  0.09680000  0.11080000  0.91170000  1.0 -0.1472959887
C  C113  1  0.12650000  0.21010000  0.82290000  1.0 -0.1472959887
C  C114  1  0.23460000  0.21730000  0.77510000  1.0 -0.1826467637
C  C115  1  0.29160000  0.24650000  0.75990000  1.0 -0.1600899969
C  C116  1  0.30650000  0.29350000  0.78400000  1.0 -0.0405908369
C  C117  1  0.26430000  0.31130000  0.82340000  1.0 -0.11935189
C  C118  1  0.20730000  0.28210000  0.83860000  1.0 -0.1990591645
C  C119  1  0.19240000  0.23500000  0.81450000  1.0 -0.0076763955
C  C120  1  0.35760000  0.33140000  0.76140000  1.0 0.519190463
C  C121  1  0.84050000  0.05820000  0.00460000  1.0 0.108835422
C  C122  1  0.81660000  0.10780000  0.98910000  1.0 -0.1826467637
C  C123  1  0.89070000  0.06970000  0.04210000  1.0 -0.2293196444
C  C124  1  0.86020000  0.02770000  0.96310000  1.0 -0.1694926237
C  C125  1  0.75890000  0.03530000  0.06880000  1.0 -0.0704154161
C  C126  1  0.69200000  0.01060000  0.08420000  1.0 -0.0594510121
C  C127  1  0.69100000  0.96070000  0.10490000  1.0 -0.1990591645
C  C128  1  0.62810000  0.93600000  0.11400000  1.0 -0.11935189
C  C129  1  0.56630000  0.96120000  0.10230000  1.0 -0.0594510121
C  C130  1  0.56730000  0.01110000  0.08160000  1.0 -0.0988129739
C  C131  1  0.63020000  0.03580000  0.07250000  1.0 -0.1990591645
C  C132  1  0.49710000  0.93700000  0.11620000  1.0 0.5734236564
C  C133  1  0.51870000  0.24630000  0.27640000  1.0 0.1829390253
C  C134  1  0.59280000  0.27330000  0.28280000  1.0 -0.0988129739
C  C135  1  0.49340000  0.24920000  0.22120000  1.0 -0.1294704526
C  C136  1  0.46430000  0.26760000  0.31550000  1.0 -0.1386440586
C  C137  1  0.55520000  0.17230000  0.33490000  1.0 -0.1694926237
C  C138  1  0.56560000  0.11410000  0.33700000  1.0 0.0709450708
C  C139  1  0.50850000  0.08010000  0.32840000  1.0 -0.1990591645
C  C140  1  0.52100000  0.02540000  0.33060000  1.0 -0.11935189
C  C141  1  0.58700000  0.00690000  0.34420000  1.0 -0.0516142406
C  C142  1  0.63860000  0.04070000  0.35350000  1.0 -0.11935189
C  C143  1  0.62900000  0.09390000  0.34820000  1.0 -0.1916559373
C  C144  1  0.60010000  0.94830000  0.34780000  1.0 0.5620421098
C  C145  1  0.48650000  0.47030000  0.23090000  1.0 0.1165796186
C  C146  1  0.54040000  0.45060000  0.19280000  1.0 -0.1087979475
C  C147  1  0.41430000  0.44510000  0.22100000  1.0 -0.1087979475
C  C148  1  0.51140000  0.46850000  0.28830000  1.0 -0.0988129739
C  C149  1  0.53980000  0.55910000  0.21070000  1.0 -0.243667138
C  C150  1  0.51700000  0.61470000  0.20210000  1.0 -0.0594510121
C  C151  1  0.45580000  0.62800000  0.17710000  1.0 -0.0888611947
C  C152  1  0.43710000  0.68010000  0.17230000  1.0 -0.0516142406
C  C153  1  0.47950000  0.71890000  0.19240000  1.0 -0.0165922728
C  C154  1  0.54060000  0.70550000  0.21740000  1.0 -0.1600899969
C  C155  1  0.55940000  0.65340000  0.22230000  1.0 -0.0988129739
C  C156  1  0.45630000  0.77710000  0.18910000  1.0 0.4305923011
C  C157  1  0.61830000  0.76080000  0.49030000  1.0 0.1913661387
C  C158  1  0.69700000  0.73140000  0.55540000  1.0 -0.2105216259
C  C159  1  0.75800000  0.72100000  0.48180000  1.0 -0.3597507004
C  C160  1  0.41500000  0.55610000  0.23740000  1.0 -0.2460228924
C  C161  1  0.42520000  0.61280000  0.22400000  1.0 -0.0594510121
C  C162  1  0.48190000  0.64000000  0.24310000  1.0 -0.1087979475
C  C163  1  0.49120000  0.69220000  0.23070000  1.0 -0.0704154161
C  C164  1  0.44370000  0.71720000  0.19910000  1.0 -0.0076763955
C  C165  1  0.38700000  0.69010000  0.17990000  1.0 -0.1386440586
C  C166  1  0.37770000  0.63790000  0.19240000  1.0 -0.1087979475
C  C167  1  0.62800000  0.71100000  0.57200000  1.0 -0.2105216259
C  C168  1  0.52200000  0.69300000  0.53700000  1.0 -0.3794781481
N  N1  1  0.11380000  0.02230000  0.36520000  1.0 -0.3723209102
N  N2  1  0.79860000  0.19530000  0.54630000  1.0 -0.3794781481
N  N3  1  0.87390000  0.69020000  0.12900000  1.0 -0.3723209102
N  N4  1  0.21260000  0.52820000  0.97140000  1.0 -0.2712377433
N  N5  1  0.47080000  0.68980000  0.71470000  1.0 -0.4134507452
N  N6  1  0.52280000  0.02570000  0.77970000  1.0 -0.1472959887
N  N7  1  0.31170000  0.24120000  0.49960000  1.0 -0.2293196444
N  N8  1  0.41500000  0.22650000  0.47170000  1.0 -0.2196988997
N  N9  1  0.88620000  0.52230000  0.63480000  1.0 -0.3723209102
N  N10  1  0.20140000  0.69530000  0.45370000  1.0 -0.3794781481
N  N11  1  0.12610000  0.19020000  0.87100000  1.0 -0.3723209102
N  N12  1  0.78740000  0.02820000  0.02860000  1.0 -0.2712377433
N  N13  1  0.52920000  0.18980000  0.28530000  1.0 -0.4134507452
N  N14  1  0.47720000  0.52570000  0.22030000  1.0 -0.1472959887
N  N15  1  0.68830000  0.74120000  0.50040000  1.0 -0.2196988997
N  N16  1  0.58500000  0.72650000  0.52830000  1.0 -0.2196988997
O  O1  1  0.02670000  0.14320000  0.40860000  1.0 -0.6482394114
O  O2  1  0.02710000  0.06200000  0.48690000  1.0 -0.6323098366
O  O3  1  0.92970000  0.05450000  0.40210000  1.0 -0.6388013583
O  O4  1  0.37010000  0.89060000  0.21370000  1.0 -0.7016202385
O  O5  1  0.42040000  0.95420000  0.25530000  1.0 -0.6388013583
O  O6  1  0.98370000  0.16320000  0.51040000  1.0 -0.6388013583
O  O7  1  0.88780000  0.07430000  0.50440000  1.0 -0.6388013583
O  O8  1  0.88810000  0.15310000  0.42470000  1.0 -0.6388013583
O  O9  1  0.56380000  0.35090000  0.69170000  1.0 -0.5011315916
O  O10  1  0.49700000  0.30720000  0.63900000  1.0 -0.7016202385
O  O11  1  0.05090000  0.63080000  0.12440000  1.0 -0.6705530558
O  O12  1  0.00970000  0.67970000  0.02970000  1.0 -0.657259263
O  O13  1  0.94740000  0.57960000  0.05640000  1.0 -0.624005494
O  O14  1  0.61610000  0.82700000  0.27910000  1.0 -0.5857134436
O  O15  1  0.62820000  0.87300000  0.21050000  1.0 -0.6323098366
O  O16  1  0.13770000  0.64000000  0.04410000  1.0 -0.6388013583
O  O17  1  0.03910000  0.59590000  0.97500000  1.0 -0.6323098366
O  O18  1  0.08150000  0.54520000  0.06940000  1.0 -0.5264205907
O  O19  1  0.50450000  0.40270000  0.85000000  1.0 -0.6913221453
O  O20  1  0.55440000  0.44740000  0.90760000  1.0 -0.5705463861
O  O21  1  0.98540000  0.23270000  0.42660000  1.0 -0.9078511868
O  O22  1  0.11040000  0.15220000  0.49700000  1.0 -0.8592698251
O  O23  1  0.98750000  0.07880000  0.57740000  1.0 -0.9391311501
O  O24  1  0.92730000  0.98390000  0.48460000  1.0 -0.9026577149
O  O25  1  0.80180000  0.06630000  0.41610000  1.0 -0.872685867
O  O26  1  0.92760000  0.13480000  0.33490000  1.0 -0.9391311501
O  O27  1  0.89270000  0.24040000  0.34840000  1.0 -0.9766040419
O  O28  1  0.16910000  0.59550000  0.13850000  1.0 -0.8221679006
O  O29  1  0.11960000  0.72140000  0.09130000  1.0 -0.872685867
O  O30  1  0.08230000  0.69700000  0.95860000  1.0 -0.7361958001
O  O31  1  0.94020000  0.62100000  0.95550000  1.0 -0.5199329768
O  O32  1  0.96020000  0.50720000  0.02160000  1.0 -0.5857134436
O  O33  1  0.04650000  0.51650000  0.13090000  1.0 -0.3794781481
O  O34  1  0.12850000  0.49400000  0.16210000  1.0 -0.7016202385
O  O35  1  0.51590000  0.80030000  0.79950000  1.0 -0.657259263
O  O36  1  0.40840000  0.82840000  0.72480000  1.0 -0.6388013583
O  O37  1  0.55220000  0.82170000  0.68900000  1.0 -0.6323098366
O  O38  1  0.34770000  0.43300000  0.63020000  1.0 -0.6132050131
O  O39  1  0.44520000  0.41880000  0.67360000  1.0 -0.7223599528
O  O40  1  0.44330000  0.89690000  0.80250000  1.0 -0.6482394114
O  O41  1  0.58760000  0.88960000  0.76800000  1.0 -0.657259263
O  O42  1  0.47920000  0.91730000  0.69250000  1.0 -0.6388013583
O  O43  1  0.50920000  0.30570000  0.79010000  1.0 -0.5199329768
O  O44  1  0.59490000  0.28970000  0.83700000  1.0 -0.549079207
O  O45  1  0.34770000  0.91550000  0.72900000  1.0 -0.9710696484
O  O46  1  0.37810000  0.81780000  0.82900000  1.0 -0.9517372225
O  O47  1  0.55110000  0.86290000  0.86780000  1.0 -0.9710696484
O  O48  1  0.64740000  0.80250000  0.76280000  1.0 -0.9517372225
O  O49  1  0.61930000  0.90000000  0.66340000  1.0 -0.872685867
O  O50  1  0.44260000  0.85480000  0.62510000  1.0 -0.8783133601
O  O51  1  0.30140000  0.85250000  0.64990000  1.0 -0.9710696484
O  O52  1  0.27020000  0.82880000  0.75930000  1.0 -0.9026577149
O  O53  1  0.69150000  0.86820000  0.84060000  1.0 -0.9391311501
O  O54  1  0.72910000  0.88560000  0.73140000  1.0 -0.8905467663
O  O55  1  0.39190000  0.27790000  0.55680000  1.0 -0.1990591645
O  O56  1  0.36640000  0.24080000  0.65590000  1.0 0.0502081862
O  O57  1  0.42840000  0.27580000  0.54650000  1.0 -0.1990591645
O  O58  1  0.33600000  0.24380000  0.62860000  1.0 -0.1600899969
O  O59  1  0.97330000  0.64320000  0.59140000  1.0 -0.6388013583
O  O60  1  0.97290000  0.56200000  0.51310000  1.0 -0.6323098366
O  O61  1  0.07030000  0.55450000  0.59790000  1.0 -0.6323098366
O  O62  1  0.62990000  0.39060000  0.78630000  1.0 -0.7016202385
O  O63  1  0.57960000  0.45420000  0.74470000  1.0 -0.6388013583
O  O64  1  0.01630000  0.66320000  0.48960000  1.0 -0.6388013583
O  O65  1  0.11220000  0.57430000  0.49560000  1.0 -0.6388013583
O  O66  1  0.11190000  0.65310000  0.57530000  1.0 -0.6388013583
O  O67  1  0.43620000  0.85090000  0.30830000  1.0 -0.5011315916
O  O68  1  0.50300000  0.80720000  0.36100000  1.0 -0.7016202385
O  O69  1  0.94910000  0.13080000  0.87560000  1.0 -0.6705530558
O  O70  1  0.99030000  0.17970000  0.97030000  1.0 -0.657259263
O  O71  1  0.05260000  0.07960000  0.94360000  1.0 -0.624005494
O  O72  1  0.38390000  0.32700000  0.72090000  1.0 -0.5857134436
O  O73  1  0.37180000  0.37300000  0.78950000  1.0 -0.6323098366
O  O74  1  0.86230000  0.14000000  0.95590000  1.0 -0.6388013583
O  O75  1  0.96090000  0.09590000  0.02500000  1.0 -0.6323098366
O  O76  1  0.91850000  0.04520000  0.93060000  1.0 -0.5199329768
O  O77  1  0.49550000  0.90270000  0.15000000  1.0 -0.6913221453
O  O78  1  0.44560000  0.94740000  0.09240000  1.0 -0.5705463861
O  O79  1  0.01460000  0.73270000  0.57340000  1.0 -0.9078511868
O  O80  1  0.88960000  0.65220000  0.50300000  1.0 -0.8592698251
O  O81  1  0.01250000  0.57880000  0.42260000  1.0 -0.9517372225
O  O82  1  0.07270000  0.48390000  0.51540000  1.0 -0.9026577149
O  O83  1  0.19820000  0.56630000  0.58390000  1.0 -0.872685867
O  O84  1  0.07240000  0.63480000  0.66510000  1.0 -0.9391311501
O  O85  1  0.10730000  0.74040000  0.65160000  1.0 -0.9710696484
O  O86  1  0.83090000  0.09550000  0.86150000  1.0 -0.8221679006
O  O87  1  0.88040000  0.22140000  0.90870000  1.0 -0.872685867
O  O88  1  0.91770000  0.19700000  0.04140000  1.0 -0.7361958001
O  O89  1  0.05980000  0.12100000  0.04450000  1.0 -0.5199329768
O  O90  1  0.03980000  0.00720000  0.97840000  1.0 -0.5813831662
O  O91  1  0.95350000  0.01650000  0.86910000  1.0 -0.3794781481
O  O92  1  0.87150000  0.99400000  0.83790000  1.0 -0.7016202385
O  O93  1  0.48410000  0.30030000  0.20050000  1.0 -0.657259263
O  O94  1  0.59160000  0.32840000  0.27520000  1.0 -0.6388013583
O  O95  1  0.44780000  0.32170000  0.31100000  1.0 -0.6388013583
O  O96  1  0.65230000  0.93300000  0.36980000  1.0 -0.6132050131
O  O97  1  0.55480000  0.91880000  0.32640000  1.0 -0.7223599528
O  O98  1  0.55670000  0.39690000  0.19750000  1.0 -0.6482394114
O  O99  1  0.41240000  0.38960000  0.23200000  1.0 -0.657259263
O  O100  1  0.52080000  0.41730000  0.30750000  1.0 -0.6388013583
O  O101  1  0.49080000  0.80570000  0.20990000  1.0 -0.5199329768
O  O102  1  0.40510000  0.78970000  0.16300000  1.0 -0.549079207
O  O103  1  0.65230000  0.41550000  0.27100000  1.0 -0.9710696484
O  O104  1  0.62190000  0.31780000  0.17100000  1.0 -0.9517372225
O  O105  1  0.44890000  0.36290000  0.13220000  1.0 -0.9710696484
O  O106  1  0.35260000  0.30250000  0.23720000  1.0 -0.9517372225
O  O107  1  0.38070000  0.40000000  0.33660000  1.0 -0.872685867
O  O108  1  0.55740000  0.35480000  0.37490000  1.0 -0.8783133601
O  O109  1  0.69860000  0.35250000  0.35010000  1.0 -0.9710696484
O  O110  1  0.72980000  0.32880000  0.24070000  1.0 -0.9026577149
O  O111  1  0.30850000  0.36820000  0.15940000  1.0 -0.9391311501
O  O112  1  0.27090000  0.38560000  0.26860000  1.0 -0.8905467663
O  O113  1  0.60810000  0.77790000  0.44320000  1.0 -0.1916559373
O  O114  1  0.63360000  0.74080000  0.34410000  1.0 0.0502081862
O  O115  1  0.57160000  0.77580000  0.45350000  1.0 -0.1990591645
O  O116  1  0.66400000  0.74380000  0.37140000  1.0 -0.1694926237
