# DDEC6 charges by PACMAN v1.1 (https://github.com/mtap-research/PACMAN-charge/)
data_ISIYER_FSR_pacman
_symmetry_space_group_name_H-M   'P 1'
_cell_length_a   19.29360000
_cell_length_b   25.64620000
_cell_length_c   26.13880000
_cell_angle_alpha   90.00000000
_cell_angle_beta   90.14400000
_cell_angle_gamma   90.00000000
_symmetry_Int_Tables_number   1
_chemical_formula_structural   Ce5Mn3Mo18H182C119N19O108
_chemical_formula_sum   'Ce10 Mn6 Mo36 H364 C238 N38 O216'
_cell_volume   12933.63406864
_cell_formula_units_Z   2
loop_
 _symmetry_equiv_pos_site_id
 _symmetry_equiv_pos_as_xyz
  1  'x, y, z'
loop_
 _atom_site_type_symbol
 _atom_site_label
 _atom_site_symmetry_multiplicity
 _atom_site_fract_x
 _atom_site_fract_y
 _atom_site_fract_z
 _atom_site_occupancy
 _atom_site_charge
Ce  Ce1  1  0.81233000  0.31123000  0.31706000  1.0 1.9930918229
Ce  Ce2  1  0.79249000  0.92125000  0.80804000  1.0 1.9833089721
Ce  Ce3  1  0.36893000  0.87067000  0.12079000  1.0 2.0871418726
Ce  Ce4  1  0.51131000  0.88929000  0.24302000  1.0 1.9346699727
Ce  Ce5  1  0.38271000  0.33774000  0.62417000  1.0 1.7986109269
Ce  Ce6  1  0.18767000  0.81123000  0.68294000  1.0 2.0018515003
Ce  Ce7  1  0.20751000  0.42125000  0.19196000  1.0 1.9833089721
Ce  Ce8  1  0.63107000  0.37067000  0.87921000  1.0 2.0871418726
Ce  Ce9  1  0.48869000  0.38929000  0.75698000  1.0 1.9346699727
Ce  Ce10  1  0.61729000  0.83774000  0.37583000  1.0 1.7986109269
Mn  Mn1  1  0.95772000  0.10818000  0.45651000  1.0 0.9465490592
Mn  Mn2  1  0.04583000  0.61191000  0.04872000  1.0 0.9224637461
Mn  Mn3  1  0.49789000  0.85901000  0.74600000  1.0 0.9340004933
Mn  Mn4  1  0.04228000  0.60818000  0.54349000  1.0 0.9444885862
Mn  Mn5  1  0.95417000  0.11191000  0.95128000  1.0 0.9224637461
Mn  Mn6  1  0.50211000  0.35901000  0.25400000  1.0 0.9340004933
Mo  Mo1  1  0.95811000  0.19865000  0.36445000  1.0 2.0779510034
Mo  Mo2  1  0.06732000  0.21010000  0.46368000  1.0 2.0018515003
Mo  Mo3  1  0.06818000  0.11724000  0.55438000  1.0 2.0297961247
Mo  Mo4  1  0.95929000  0.01487000  0.54575000  1.0 2.0241985333
Mo  Mo5  1  0.84550000  0.00756000  0.44925000  1.0 2.049566747
Mo  Mo6  1  0.84546000  0.09942000  0.35940000  1.0 2.0241985333
Mo  Mo7  1  0.09035000  0.55326000  0.15828000  1.0 1.825958134
Mo  Mo8  1  0.16153000  0.66666667  0.12924000  1.0 2.0413110268
Mo  Mo9  1  0.11430000  0.72530000  0.01838000  1.0 1.9564706695
Mo  Mo10  1  0.99950000  0.67190000  0.94097000  1.0 1.9388631595
Mo  Mo11  1  0.93040000  0.55760000  0.97148000  1.0 1.9053822768
Mo  Mo12  1  0.97564000  0.49775000  0.08332000  1.0 1.8130859745
Mo  Mo13  1  0.37430000  0.89084000  0.66278000  1.0 2.0779510034
Mo  Mo14  1  0.33486000  0.86738000  0.78431000  1.0 2.0733800742
Mo  Mo15  1  0.45750000  0.83589000  0.86880000  1.0 2.0413110268
Mo  Mo16  1  0.62119000  0.82788000  0.82892000  1.0 2.0779510034
Mo  Mo17  1  0.66110000  0.84941000  0.70684000  1.0 2.0576498521
Mo  Mo18  1  0.53783000  0.88192000  0.62315000  1.0 2.0018515003
Mo  Mo19  1  0.04189000  0.69865000  0.63555000  1.0 2.0733800742
Mo  Mo20  1  0.93268000  0.71010000  0.53632000  1.0 2.0018515003
Mo  Mo21  1  0.93182000  0.61724000  0.44562000  1.0 2.0297961247
Mo  Mo22  1  0.04071000  0.51487000  0.45425000  1.0 2.0297961247
Mo  Mo23  1  0.15450000  0.50756000  0.55075000  1.0 2.049566747
Mo  Mo24  1  0.15454000  0.59942000  0.64060000  1.0 2.0241985333
Mo  Mo25  1  0.90965000  0.05326000  0.84172000  1.0 1.825958134
Mo  Mo26  1  0.83847000  0.16673000  0.87076000  1.0 2.0413110268
Mo  Mo27  1  0.88570000  0.22530000  0.98162000  1.0 1.9564706695
Mo  Mo28  1  0.00050000  0.17190000  0.05903000  1.0 1.9388631595
Mo  Mo29  1  0.06960000  0.05760000  0.02852000  1.0 1.9039844287
Mo  Mo30  1  0.02436000  0.99775000  0.91668000  1.0 1.8130859745
Mo  Mo31  1  0.62570000  0.39084000  0.33722000  1.0 2.0779510034
Mo  Mo32  1  0.66514000  0.36738000  0.21569000  1.0 2.0733800742
Mo  Mo33  1  0.54250000  0.33589000  0.13120000  1.0 2.0413110268
Mo  Mo34  1  0.37881000  0.32788000  0.17108000  1.0 2.0779510034
Mo  Mo35  1  0.33890000  0.34941000  0.29316000  1.0 2.0576498521
Mo  Mo36  1  0.46217000  0.38192000  0.37685000  1.0 2.0065715325
H  H1  1  0.78320000  0.46089000  0.26199000  1.0 0.1394988294
H  H2  1  0.79885000  0.48843000  0.41028000  1.0 0.1394988294
H  H3  1  0.85536000  0.44922000  0.38740000  1.0 0.1394988294
H  H4  1  0.77683000  0.43050000  0.39433000  1.0 0.1302530646
H  H5  1  0.76178000  0.54325000  0.37087000  1.0 0.1394988294
H  H6  1  0.70799000  0.52780000  0.32670000  1.0 0.1302530646
H  H7  1  0.78006000  0.55490000  0.31229000  1.0 0.1197434855
H  H8  1  0.89991000  0.97135000  0.69795000  1.0 0.1111617884
H  H9  1  0.07515000  0.95067000  0.76471000  1.0 0.1302530646
H  H10  1  0.02502000  0.90096000  0.76344000  1.0 0.1394988294
H  H11  1  0.00829000  0.94877000  0.80077000  1.0 0.1197434855
H  H12  1  0.06955000  0.00687000  0.69969000  1.0 0.1394988294
H  H13  1  0.99810000  0.03845000  0.69690000  1.0 0.1586454449
H  H14  1  0.01422000  0.99385000  0.65580000  1.0 0.1394988294
H  H15  1  0.76252000  0.79608000  0.82457000  1.0 0.1197434855
H  H16  1  0.93640000  0.70477000  0.80315000  1.0 0.1197434855
H  H17  1  0.94583000  0.76437000  0.81991000  1.0 0.0518782114
H  H18  1  0.91885000  0.75055000  0.76358000  1.0 0.1111617884
H  H19  1  0.83317000  0.66135000  0.82963000  1.0 0.1302530646
H  H20  1  0.76787000  0.68560000  0.80020000  1.0 0.1197434855
H  H21  1  0.77586000  0.69340000  0.86067000  1.0 0.1302530646
H  H22  1  0.71654000  0.04939000  0.85706000  1.0 0.1197434855
H  H23  1  0.59539000  0.98615000  0.96800000  1.0 0.1197434855
H  H24  1  0.66542000  0.95564000  0.95471000  1.0 0.1302530646
H  H25  1  0.60132000  0.95392000  0.91577000  1.0 0.1586454449
H  H26  1  0.65763000  0.09980000  0.91298000  1.0 0.1302530646
H  H27  1  0.65308000  0.07670000  0.96975000  1.0 0.1197434855
H  H28  1  0.58544000  0.07812000  0.93421000  1.0 0.1394988294
H  H29  1  0.71095000  0.96848000  0.69176000  1.0 0.1111617884
H  H30  1  0.73607000  0.06190000  0.59451000  1.0 0.1197434855
H  H31  1  0.66930000  0.03676000  0.62105000  1.0 0.1302530646
H  H32  1  0.72810000  0.99987000  0.59762000  1.0 0.1394988294
H  H33  1  0.81003000  0.09505000  0.64261000  1.0 0.1197434855
H  H34  1  0.85232000  0.05560000  0.67841000  1.0 0.1394988294
H  H35  1  0.79496000  0.09316000  0.70276000  1.0 0.1394988294
H  H36  1  0.14301000  0.04024000  0.34635000  1.0 0.25133443
H  H37  1  0.76774000  0.17636000  0.56269000  1.0 0.25133443
H  H38  1  0.83565000  0.69274000  0.11077000  1.0 0.2433585537
H  H39  1  0.22638000  0.50053000  0.98848000  1.0 0.2748198224
H  H40  1  0.06866000  0.11204000  0.34658000  1.0 0.1197434855
H  H41  1  0.12061000  0.11567000  0.39410000  1.0 0.1197434855
H  H42  1  0.11933000  0.04424000  0.46089000  1.0 0.1111617884
H  H43  1  0.06405000  0.99819000  0.45594000  1.0 0.1016566521
H  H44  1  0.98394000  0.99334000  0.37868000  1.0 0.1111617884
H  H45  1  0.98328000  0.04067000  0.33887000  1.0 0.1197434855
H  H46  1  0.12442000  0.95580000  0.40223000  1.0 0.1111617884
H  H47  1  0.07502000  0.95235000  0.35264000  1.0 0.1197434855
H  H48  1  0.13492000  0.91262000  0.27819000  1.0 0.1197434855
H  H49  1  0.23694000  0.89560000  0.22979000  1.0 0.1302530646
H  H50  1  0.34794000  0.98222000  0.33204000  1.0 0.1197434855
H  H51  1  0.24950000  0.00186000  0.37765000  1.0 0.1197434855
H  H52  1  0.92852000  0.22643000  0.52760000  1.0 0.1016566521
H  H53  1  0.92746000  0.18285000  0.57125000  1.0 0.1197434855
H  H54  1  0.79576000  0.10141000  0.52364000  1.0 0.1111617884
H  H55  1  0.85247000  0.10564000  0.56815000  1.0 0.1111617884
H  H56  1  0.84241000  0.21713000  0.45384000  1.0 0.1111617884
H  H57  1  0.79365000  0.16680000  0.45456000  1.0 0.1197434855
H  H58  1  0.83956000  0.26407000  0.56239000  1.0 0.1111617884
H  H59  1  0.79578000  0.26306000  0.51029000  1.0 0.1197434855
H  H60  1  0.66828000  0.22468000  0.53826000  1.0 0.1302530646
H  H61  1  0.56539000  0.26061000  0.57487000  1.0 0.1302530646
H  H62  1  0.68820000  0.34693000  0.66559000  1.0 0.1302530646
H  H63  1  0.78429000  0.31347000  0.62482000  1.0 0.1302530646
H  H64  1  0.97445000  0.63928000  0.17575000  1.0 0.0904732686
H  H65  1  0.00775000  0.69345000  0.15765000  1.0 0.1111617884
H  H66  1  0.97034000  0.73574000  0.07302000  1.0 0.1111617884
H  H67  1  0.91439000  0.70752000  0.03715000  1.0 0.1016566521
H  H68  1  0.85919000  0.61713000  0.06975000  1.0 0.1197434855
H  H69  1  0.89191000  0.59047000  0.11944000  1.0 0.1016566521
H  H70  1  0.88055000  0.68179000  0.20233000  1.0 0.1197434855
H  H71  1  0.91152000  0.73571000  0.18112000  1.0 0.1197434855
H  H72  1  0.77551000  0.68512000  0.24135000  1.0 0.1302530646
H  H73  1  0.67952000  0.73431000  0.26697000  1.0 0.1197434855
H  H74  1  0.72559000  0.84341000  0.16015000  1.0 0.1302530646
H  H75  1  0.82157000  0.79422000  0.13453000  1.0 0.1197434855
H  H76  1  0.22794000  0.60288000  0.02907000  1.0 0.1197434855
H  H77  1  0.19334000  0.62827000  0.97960000  1.0 0.1111617884
H  H78  1  0.13110000  0.59291000  0.93233000  1.0 0.1197434855
H  H79  1  0.09763000  0.53674000  0.94016000  1.0 0.1302530646
H  H80  1  0.12796000  0.49267000  0.02360000  1.0 0.1302530646
H  H81  1  0.18088000  0.52356000  0.05924000  1.0 0.1197434855
H  H82  1  0.20708000  0.52597000  0.90431000  1.0 0.1111617884
H  H83  1  0.24836000  0.57345000  0.92843000  1.0 0.1111617884
H  H84  1  0.26671000  0.44347000  0.88715000  1.0 0.1197434855
H  H85  1  0.37260000  0.40189000  0.87178000  1.0 0.1302530646
H  H86  1  0.47497000  0.52827000  0.92641000  1.0 0.1197434855
H  H87  1  0.36907000  0.56987000  0.94173000  1.0 0.1111617884
H  H88  1  0.48007000  0.66710000  0.73896000  1.0 0.25133443
H  H89  1  0.56461000  0.03934000  0.78037000  1.0 0.1197434855
H  H90  1  0.37464000  0.75754000  0.74198000  1.0 0.1111617884
H  H91  1  0.38932000  0.76595000  0.68237000  1.0 0.1111617884
H  H92  1  0.55135000  0.73050000  0.78120000  1.0 0.1302530646
H  H93  1  0.47304000  0.73036000  0.80063000  1.0 0.1302530646
H  H94  1  0.51800000  0.76112000  0.64949000  1.0 0.1111617884
H  H95  1  0.57901000  0.74727000  0.68853000  1.0 0.1111617884
H  H96  1  0.40017000  0.68983000  0.65780000  1.0 0.1197434855
H  H97  1  0.47808000  0.68262000  0.63816000  1.0 0.1111617884
H  H98  1  0.53645000  0.59341000  0.67849000  1.0 0.1197434855
H  H99  1  0.51525000  0.50152000  0.67702000  1.0 0.1111617884
H  H100  1  0.31740000  0.52787000  0.63608000  1.0 0.1484923431
H  H101  1  0.33263000  0.61667000  0.64747000  1.0 0.1302530646
H  H102  1  0.41648000  0.97113000  0.80275000  1.0 0.1197434855
H  H103  1  0.47690000  0.95716000  0.84235000  1.0 0.1197434855
H  H104  1  0.59865000  0.95063000  0.81529000  1.0 0.1111617884
H  H105  1  0.62064000  0.96300000  0.75761000  1.0 0.1016566521
H  H106  1  0.52312000  0.98677000  0.69026000  1.0 0.1111617884
H  H107  1  0.44422000  0.98767000  0.70875000  1.0 0.1197434855
H  H108  1  0.42845000  0.05739000  0.75955000  1.0 0.1111617884
H  H109  1  0.43513000  0.04624000  0.81976000  1.0 0.1016566521
H  H110  1  0.57314000  0.10149000  0.83661000  1.0 0.1016566521
H  H111  1  0.60473000  0.18919000  0.84482000  1.0 0.1016566521
H  H112  1  0.43040000  0.23203000  0.76888000  1.0 0.1111617884
H  H113  1  0.39881000  0.14433000  0.76066000  1.0 0.0904732686
H  H114  1  0.41692000  0.26124000  0.48436000  1.0 0.2198011887
H  H115  1  0.25642000  0.21827000  0.43791000  1.0 0.1111617884
H  H116  1  0.33736000  0.20548000  0.43347000  1.0 0.0605353328
H  H117  1  0.31039000  0.26395000  0.42566000  1.0 0.0904732686
H  H118  1  0.21233000  0.21319000  0.48868000  1.0 0.1111617884
H  H119  1  0.21996000  0.24706000  0.53981000  1.0 0.1016566521
H  H120  1  0.24936000  0.18874000  0.53800000  1.0 0.1302530646
H  H121  1  0.21098000  0.38432000  0.62910000  1.0 0.1394988294
H  H122  1  0.09683000  0.26040000  0.62363000  1.0 0.1484923431
H  H123  1  0.14907000  0.26541000  0.67103000  1.0 0.1197434855
H  H124  1  0.17818000  0.25177000  0.61534000  1.0 0.1302530646
H  H125  1  0.09146000  0.38820000  0.60130000  1.0 0.1586454449
H  H126  1  0.04607000  0.34878000  0.63484000  1.0 0.1394988294
H  H127  1  0.06225000  0.33567000  0.57621000  1.0 0.1484923431
H  H128  1  0.34453000  0.39504000  0.50133000  1.0 0.1111617884
H  H129  1  0.14403000  0.35665000  0.46499000  1.0 0.1197434855
H  H130  1  0.15948000  0.37759000  0.52155000  1.0 0.1197434855
H  H131  1  0.17960000  0.31910000  0.50630000  1.0 0.1302530646
H  H132  1  0.21030000  0.39440000  0.41104000  1.0 0.1302530646
H  H133  1  0.29259000  0.38672000  0.40966000  1.0 0.1302530646
H  H134  1  0.26006000  0.43758000  0.43571000  1.0 0.1394988294
H  H135  1  0.49240000  0.35622000  0.50573000  1.0 0.1016566521
H  H136  1  0.63054000  0.45060000  0.56713000  1.0 0.1302530646
H  H137  1  0.58026000  0.42083000  0.60601000  1.0 0.1394988294
H  H138  1  0.55114000  0.46790000  0.57200000  1.0 0.1484923431
H  H139  1  0.59564000  0.36795000  0.46699000  1.0 0.1484923431
H  H140  1  0.63185000  0.42288000  0.47845000  1.0 0.1586454449
H  H141  1  0.65513000  0.37205000  0.50958000  1.0 0.1302530646
H  H142  1  0.99411000  0.30897000  0.29185000  1.0 0.1197434855
H  H143  1  0.09638000  0.37836000  0.40196000  1.0 0.1197434855
H  H144  1  0.02286000  0.35354000  0.41636000  1.0 0.1302530646
H  H145  1  0.02636000  0.40641000  0.38394000  1.0 0.1302530646
H  H146  1  0.15305000  0.33730000  0.35038000  1.0 0.1394988294
H  H147  1  0.12478000  0.33417000  0.29285000  1.0 0.1394988294
H  H148  1  0.11584000  0.28535000  0.33040000  1.0 0.1586454449
H  H149  1  0.91479000  0.30959000  0.42924000  1.0 0.1111617884
H  H150  1  0.84730000  0.41218000  0.53344000  1.0 0.1197434855
H  H151  1  0.78592000  0.37981000  0.50712000  1.0 0.1302530646
H  H152  1  0.82407000  0.42522000  0.47603000  1.0 0.1484923431
H  H153  1  0.94089000  0.37924000  0.54234000  1.0 0.1394988294
H  H154  1  0.98526000  0.36824000  0.49183000  1.0 0.1484923431
H  H155  1  0.95402000  0.32058000  0.52387000  1.0 0.1394988294
H  H156  1  0.99851000  0.28102000  0.13868000  1.0 0.0605353328
H  H157  1  0.93241000  0.25378000  0.16412000  1.0 0.1394988294
H  H158  1  0.98573000  0.28588000  0.19897000  1.0 0.0904732686
H  H159  1  0.94332000  0.38017000  0.09939000  1.0 0.0904732686
H  H160  1  0.91734000  0.40875000  0.15028000  1.0 0.0904732686
H  H161  1  0.86315000  0.37821000  0.11482000  1.0 0.1394988294
H  H162  1  0.49026000  0.04210000  0.79682000  1.0 0.1111617884
H  H163  1  0.62741000  0.04267000  0.77992000  1.0 0.0904732686
H  H164  1  0.59163000  0.05232000  0.72523000  1.0 0.1197434855
H  H165  1  0.48561000  0.12282000  0.73524000  1.0 0.1016566521
H  H166  1  0.47000000  0.21073000  0.75623000  1.0 0.1016566521
H  H167  1  0.64548000  0.20722000  0.84172000  1.0 0.1302530646
H  H168  1  0.66110000  0.11931000  0.82073000  1.0 0.1016566521
H  H169  1  0.83159000  0.35069000  0.19291000  1.0 0.1111617884
H  H170  1  0.00112000  0.32820000  0.10715000  1.0 0.1197434855
H  H171  1  0.01135000  0.29060000  0.15546000  1.0 0.0273835131
H  H172  1  0.02250000  0.35213000  0.16149000  1.0 0.1197434855
H  H173  1  0.92064000  0.34316000  0.08165000  1.0 0.1197434855
H  H174  1  0.86677000  0.37834000  0.11279000  1.0 0.1394988294
H  H175  1  0.85110000  0.31776000  0.10372000  1.0 0.1302530646
H  H176  1  0.33437000  0.27109000  0.50873000  1.0 0.1998846543
H  H177  1  0.39902000  0.18799000  0.40526000  1.0 0.0904732686
H  H178  1  0.35665000  0.24148000  0.40911000  1.0 0.0691325006
H  H179  1  0.33138000  0.19137000  0.44042000  1.0 0.0806539804
H  H180  1  0.47566000  0.17724000  0.42915000  1.0 0.1016566521
H  H181  1  0.47890000  0.16507000  0.48915000  1.0 0.1302530646
H  H182  1  0.51985000  0.21407000  0.46636000  1.0 0.1197434855
H  H183  1  0.21680000  0.96089000  0.73801000  1.0 0.1394988294
H  H184  1  0.20115000  0.98843000  0.58972000  1.0 0.1394988294
H  H185  1  0.14464000  0.94922000  0.61260000  1.0 0.1394988294
H  H186  1  0.22317000  0.93050000  0.60567000  1.0 0.1302530646
H  H187  1  0.23822000  0.04325000  0.62913000  1.0 0.1394988294
H  H188  1  0.29201000  0.02780000  0.67330000  1.0 0.1302530646
H  H189  1  0.21994000  0.05490000  0.68771000  1.0 0.1197434855
H  H190  1  0.10009000  0.47135000  0.30205000  1.0 0.1111617884
H  H191  1  0.92485000  0.45067000  0.23529000  1.0 0.1302530646
H  H192  1  0.97498000  0.40096000  0.23656000  1.0 0.1302530646
H  H193  1  0.99171000  0.44877000  0.19923000  1.0 0.1197434855
H  H194  1  0.93045000  0.50687000  0.30031000  1.0 0.1394988294
H  H195  1  0.00190000  0.53845000  0.30310000  1.0 0.1586454449
H  H196  1  0.98578000  0.49385000  0.34420000  1.0 0.1394988294
H  H197  1  0.23748000  0.29608000  0.17543000  1.0 0.1197434855
H  H198  1  0.06360000  0.20477000  0.19685000  1.0 0.1197434855
H  H199  1  0.05417000  0.26437000  0.18009000  1.0 0.0605353328
H  H200  1  0.08115000  0.25055000  0.23642000  1.0 0.1111617884
H  H201  1  0.16683000  0.16135000  0.17037000  1.0 0.1302530646
H  H202  1  0.23213000  0.18560000  0.19980000  1.0 0.1302530646
H  H203  1  0.22414000  0.19340000  0.13933000  1.0 0.1302530646
H  H204  1  0.28346000  0.54939000  0.14294000  1.0 0.1197434855
H  H205  1  0.40461000  0.48615000  0.03200000  1.0 0.1197434855
H  H206  1  0.33458000  0.45564000  0.04529000  1.0 0.1302530646
H  H207  1  0.39868000  0.45392000  0.08423000  1.0 0.1586454449
H  H208  1  0.34237000  0.59980000  0.08702000  1.0 0.1302530646
H  H209  1  0.34692000  0.57670000  0.03025000  1.0 0.1197434855
H  H210  1  0.41456000  0.57812000  0.06579000  1.0 0.1394988294
H  H211  1  0.28905000  0.46848000  0.30824000  1.0 0.1111617884
H  H212  1  0.26393000  0.56190000  0.40549000  1.0 0.1197434855
H  H213  1  0.33070000  0.53676000  0.37895000  1.0 0.1302530646
H  H214  1  0.27190000  0.49987000  0.40238000  1.0 0.1394988294
H  H215  1  0.18997000  0.59505000  0.35739000  1.0 0.1197434855
H  H216  1  0.14768000  0.55560000  0.32159000  1.0 0.1394988294
H  H217  1  0.20504000  0.59316000  0.29724000  1.0 0.1394988294
H  H218  1  0.85699000  0.54024000  0.65365000  1.0 0.25133443
H  H219  1  0.23226000  0.67636000  0.43731000  1.0 0.25133443
H  H220  1  0.16435000  0.19274000  0.88923000  1.0 0.2433585537
H  H221  1  0.77362000  0.00053000  0.01152000  1.0 0.2790013743
H  H222  1  0.93134000  0.61204000  0.65342000  1.0 0.1197434855
H  H223  1  0.87939000  0.61567000  0.60590000  1.0 0.1197434855
H  H224  1  0.88067000  0.54424000  0.53911000  1.0 0.1111617884
H  H225  1  0.93595000  0.49819000  0.54406000  1.0 0.1016566521
H  H226  1  0.01606000  0.49334000  0.62132000  1.0 0.1111617884
H  H227  1  0.01672000  0.54067000  0.66113000  1.0 0.1197434855
H  H228  1  0.87558000  0.45580000  0.59777000  1.0 0.1111617884
H  H229  1  0.92498000  0.45235000  0.64736000  1.0 0.1197434855
H  H230  1  0.86508000  0.41262000  0.72181000  1.0 0.1197434855
H  H231  1  0.76306000  0.39560000  0.77021000  1.0 0.1302530646
H  H232  1  0.65206000  0.48222000  0.66796000  1.0 0.1197434855
H  H233  1  0.75050000  0.50186000  0.62235000  1.0 0.1197434855
H  H234  1  0.07148000  0.72643000  0.47240000  1.0 0.1016566521
H  H235  1  0.07254000  0.68285000  0.42875000  1.0 0.1197434855
H  H236  1  0.20424000  0.60141000  0.47636000  1.0 0.1111617884
H  H237  1  0.14753000  0.60564000  0.43185000  1.0 0.1111617884
H  H238  1  0.15759000  0.71713000  0.54616000  1.0 0.1111617884
H  H239  1  0.20635000  0.66680000  0.54544000  1.0 0.1197434855
H  H240  1  0.16044000  0.76407000  0.43761000  1.0 0.1111617884
H  H241  1  0.20422000  0.76306000  0.48971000  1.0 0.1197434855
H  H242  1  0.33172000  0.72468000  0.46174000  1.0 0.1302530646
H  H243  1  0.43461000  0.76061000  0.42513000  1.0 0.1302530646
H  H244  1  0.31180000  0.84693000  0.33441000  1.0 0.1302530646
H  H245  1  0.21571000  0.81347000  0.37518000  1.0 0.1302530646
H  H246  1  0.02555000  0.13928000  0.82425000  1.0 0.0904732686
H  H247  1  0.99225000  0.19345000  0.84235000  1.0 0.1111617884
H  H248  1  0.02966000  0.23574000  0.92698000  1.0 0.1111617884
H  H249  1  0.08561000  0.20752000  0.96285000  1.0 0.1016566521
H  H250  1  0.14081000  0.11713000  0.93025000  1.0 0.1197434855
H  H251  1  0.10809000  0.09047000  0.88056000  1.0 0.1016566521
H  H252  1  0.11945000  0.18179000  0.79767000  1.0 0.1197434855
H  H253  1  0.08848000  0.23571000  0.81888000  1.0 0.1197434855
H  H254  1  0.22449000  0.18512000  0.75865000  1.0 0.1302530646
H  H255  1  0.32048000  0.23431000  0.73303000  1.0 0.1197434855
H  H256  1  0.27441000  0.34341000  0.83985000  1.0 0.1302530646
H  H257  1  0.17843000  0.29422000  0.86547000  1.0 0.1197434855
H  H258  1  0.77206000  0.10288000  0.97093000  1.0 0.1111617884
H  H259  1  0.80666000  0.12827000  0.02040000  1.0 0.1111617884
H  H260  1  0.86890000  0.09291000  0.06767000  1.0 0.1197434855
H  H261  1  0.90237000  0.03674000  0.05984000  1.0 0.1302530646
H  H262  1  0.87204000  0.99267000  0.97640000  1.0 0.1302530646
H  H263  1  0.81912000  0.02356000  0.94076000  1.0 0.1197434855
H  H264  1  0.79292000  0.02597000  0.09569000  1.0 0.1111617884
H  H265  1  0.75164000  0.07345000  0.07157000  1.0 0.1111617884
H  H266  1  0.73329000  0.94347000  0.11285000  1.0 0.1197434855
H  H267  1  0.62740000  0.90189000  0.12822000  1.0 0.1197434855
H  H268  1  0.52503000  0.02827000  0.07359000  1.0 0.1197434855
H  H269  1  0.63093000  0.06987000  0.05827000  1.0 0.1197434855
H  H270  1  0.51993000  0.16710000  0.26104000  1.0 0.25133443
H  H271  1  0.43539000  0.53934000  0.21963000  1.0 0.1197434855
H  H272  1  0.62536000  0.25754000  0.25802000  1.0 0.1111617884
H  H273  1  0.61068000  0.26595000  0.31763000  1.0 0.1111617884
H  H274  1  0.44865000  0.23050000  0.21880000  1.0 0.1302530646
H  H275  1  0.52696000  0.23036000  0.19937000  1.0 0.1302530646
H  H276  1  0.48200000  0.26112000  0.35051000  1.0 0.1111617884
H  H277  1  0.42099000  0.24727000  0.31147000  1.0 0.1111617884
H  H278  1  0.59983000  0.18983000  0.34220000  1.0 0.1197434855
H  H279  1  0.52192000  0.18262000  0.36184000  1.0 0.1111617884
H  H280  1  0.46355000  0.09341000  0.32151000  1.0 0.1197434855
H  H281  1  0.48475000  0.00152000  0.32298000  1.0 0.1111617884
H  H282  1  0.68260000  0.02787000  0.36392000  1.0 0.1484923431
H  H283  1  0.66737000  0.11667000  0.35253000  1.0 0.1302530646
H  H284  1  0.58352000  0.47113000  0.19725000  1.0 0.1197434855
H  H285  1  0.52310000  0.45716000  0.15765000  1.0 0.1197434855
H  H286  1  0.40135000  0.45063000  0.18471000  1.0 0.1111617884
H  H287  1  0.37936000  0.46300000  0.24239000  1.0 0.1016566521
H  H288  1  0.47688000  0.48677000  0.30974000  1.0 0.1111617884
H  H289  1  0.55578000  0.48767000  0.29125000  1.0 0.1197434855
H  H290  1  0.57155000  0.55739000  0.24045000  1.0 0.1111617884
H  H291  1  0.56487000  0.54624000  0.18024000  1.0 0.1016566521
H  H292  1  0.42686000  0.60149000  0.16339000  1.0 0.1016566521
H  H293  1  0.39527000  0.68919000  0.15518000  1.0 0.1016566521
H  H294  1  0.56960000  0.73203000  0.23112000  1.0 0.1111617884
H  H295  1  0.60119000  0.64433000  0.23934000  1.0 0.0904732686
H  H296  1  0.58308000  0.76124000  0.51564000  1.0 0.2198011887
H  H297  1  0.74358000  0.71827000  0.56209000  1.0 0.1111617884
H  H298  1  0.66264000  0.70548000  0.56653000  1.0 0.0605353328
H  H299  1  0.68961000  0.76395000  0.57434000  1.0 0.0904732686
H  H300  1  0.78767000  0.71319000  0.51132000  1.0 0.1111617884
H  H301  1  0.78004000  0.74706000  0.46019000  1.0 0.1016566521
H  H302  1  0.75064000  0.68874000  0.46200000  1.0 0.1302530646
H  H303  1  0.78902000  0.88432000  0.37090000  1.0 0.1394988294
H  H304  1  0.90317000  0.76040000  0.37637000  1.0 0.1484923431
H  H305  1  0.85093000  0.76541000  0.32897000  1.0 0.1197434855
H  H306  1  0.82182000  0.75177000  0.38466000  1.0 0.1302530646
H  H307  1  0.90854000  0.88820000  0.39870000  1.0 0.1586454449
H  H308  1  0.95393000  0.84878000  0.36516000  1.0 0.1394988294
H  H309  1  0.93775000  0.83567000  0.42379000  1.0 0.1484923431
H  H310  1  0.65547000  0.89504000  0.49867000  1.0 0.1111617884
H  H311  1  0.85597000  0.85665000  0.53501000  1.0 0.1197434855
H  H312  1  0.84052000  0.87759000  0.47845000  1.0 0.1197434855
H  H313  1  0.82040000  0.81910000  0.49370000  1.0 0.1302530646
H  H314  1  0.78970000  0.89440000  0.58896000  1.0 0.1302530646
H  H315  1  0.70741000  0.88672000  0.59034000  1.0 0.1302530646
H  H316  1  0.73994000  0.93758000  0.56429000  1.0 0.1394988294
H  H317  1  0.50760000  0.85622000  0.49427000  1.0 0.1016566521
H  H318  1  0.36946000  0.95060000  0.43287000  1.0 0.1302530646
H  H319  1  0.41974000  0.92083000  0.39399000  1.0 0.1394988294
H  H320  1  0.44886000  0.96790000  0.42800000  1.0 0.1484923431
H  H321  1  0.40436000  0.86795000  0.53301000  1.0 0.1484923431
H  H322  1  0.36815000  0.92288000  0.52155000  1.0 0.1586454449
H  H323  1  0.34487000  0.87205000  0.49042000  1.0 0.1302530646
H  H324  1  0.00589000  0.80897000  0.70815000  1.0 0.1197434855
H  H325  1  0.90362000  0.87836000  0.59804000  1.0 0.1197434855
H  H326  1  0.97714000  0.85354000  0.58364000  1.0 0.1302530646
H  H327  1  0.97364000  0.90641000  0.61606000  1.0 0.1302530646
H  H328  1  0.84695000  0.83730000  0.64962000  1.0 0.1394988294
H  H329  1  0.87522000  0.83417000  0.70715000  1.0 0.1394988294
H  H330  1  0.88416000  0.78535000  0.66960000  1.0 0.1586454449
H  H331  1  0.08521000  0.80959000  0.57076000  1.0 0.1111617884
H  H332  1  0.15270000  0.91218000  0.46656000  1.0 0.1197434855
H  H333  1  0.21408000  0.87981000  0.49288000  1.0 0.1302530646
H  H334  1  0.17593000  0.92522000  0.52397000  1.0 0.1484923431
H  H335  1  0.05911000  0.87924000  0.45766000  1.0 0.1394988294
H  H336  1  0.01474000  0.86824000  0.50817000  1.0 0.1484923431
H  H337  1  0.04598000  0.82058000  0.47613000  1.0 0.1394988294
H  H338  1  0.00149000  0.78102000  0.86132000  1.0 0.0605353328
H  H339  1  0.06759000  0.75378000  0.83588000  1.0 0.1394988294
H  H340  1  0.01427000  0.78588000  0.80103000  1.0 0.0904732686
H  H341  1  0.05668000  0.88017000  0.90061000  1.0 0.0904732686
H  H342  1  0.08266000  0.90875000  0.84972000  1.0 0.0904732686
H  H343  1  0.13685000  0.87821000  0.88518000  1.0 0.1394988294
H  H344  1  0.50974000  0.54210000  0.20318000  1.0 0.1111617884
H  H345  1  0.37259000  0.54267000  0.22008000  1.0 0.0904732686
H  H346  1  0.40837000  0.55232000  0.27477000  1.0 0.1197434855
H  H347  1  0.51439000  0.62282000  0.26476000  1.0 0.1016566521
H  H348  1  0.53000000  0.71073000  0.24377000  1.0 0.1016566521
H  H349  1  0.35452000  0.70722000  0.15828000  1.0 0.1302530646
H  H350  1  0.33890000  0.61931000  0.17927000  1.0 0.1016566521
H  H351  1  0.16841000  0.85069000  0.80709000  1.0 0.1111617884
H  H352  1  0.99888000  0.82820000  0.89285000  1.0 0.1197434855
H  H353  1  0.98865000  0.79060000  0.84454000  1.0 0.0273835131
H  H354  1  0.97750000  0.85213000  0.83851000  1.0 0.1197434855
H  H355  1  0.07936000  0.84316000  0.91835000  1.0 0.1197434855
H  H356  1  0.13323000  0.87834000  0.88721000  1.0 0.1394988294
H  H357  1  0.14890000  0.81776000  0.89628000  1.0 0.1302530646
H  H358  1  0.66563000  0.77109000  0.49127000  1.0 0.1998846543
H  H359  1  0.60098000  0.68799000  0.59474000  1.0 0.0904732686
H  H360  1  0.64335000  0.74148000  0.59089000  1.0 0.0691325006
H  H361  1  0.66862000  0.69137000  0.55958000  1.0 0.0806539804
H  H362  1  0.52434000  0.67724000  0.57085000  1.0 0.1016566521
H  H363  1  0.52110000  0.66507000  0.51085000  1.0 0.1302530646
H  H364  1  0.48015000  0.71407000  0.53364000  1.0 0.1197434855
C  C1  1  0.79660000  0.44830000  0.29470000  1.0 0.3131786299
C  C2  1  0.80670000  0.46010000  0.38580000  1.0 -0.3289689906
C  C3  1  0.75720000  0.53050000  0.33570000  1.0 -0.3117848126
C  C4  1  0.92480000  0.95360000  0.72410000  1.0 0.3194052172
C  C5  1  0.02690000  0.93890000  0.76730000  1.0 -0.3598000544
C  C6  1  0.02000000  0.00440000  0.69160000  1.0 -0.3676671821
C  C7  1  0.80980000  0.79470000  0.81470000  1.0 0.3131786299
C  C8  1  0.91770000  0.74010000  0.79960000  1.0 -0.2955428647
C  C9  1  0.80100000  0.69090000  0.82800000  1.0 -0.3397284113
C  C10  1  0.70040000  0.01810000  0.87240000  1.0 0.2433585537
C  C11  1  0.62670000  0.97560000  0.94040000  1.0 -0.3289689906
C  C12  1  0.63600000  0.07330000  0.93500000  1.0 -0.3598000544
C  C13  1  0.74150000  0.99570000  0.70170000  1.0 0.2790013743
C  C14  1  0.71920000  0.03280000  0.61540000  1.0 -0.3289689906
C  C15  1  0.80730000  0.07230000  0.67270000  1.0 -0.3117848126
C  C16  1  0.05910000  0.05020000  0.39620000  1.0 0.180173741
C  C17  1  0.07240000  0.10710000  0.38400000  1.0 -0.0508060249
C  C18  1  0.07060000  0.03620000  0.45190000  1.0 -0.0508060249
C  C19  1  0.98690000  0.03180000  0.37560000  1.0 -0.0408491871
C  C20  1  0.11780000  0.96820000  0.36670000  1.0 -0.1284360967
C  C21  1  0.18290000  0.95320000  0.33240000  1.0 0.0691325006
C  C22  1  0.17840000  0.92570000  0.28940000  1.0 -0.1811955318
C  C23  1  0.23950000  0.91600000  0.26000000  1.0 -0.0803199307
C  C24  1  0.30130000  0.93620000  0.27570000  1.0 -0.0101289918
C  C25  1  0.30450000  0.96840000  0.32150000  1.0 -0.0803199307
C  C26  1  0.24810000  0.97910000  0.34900000  1.0 -0.1811955318
C  C27  1  0.36760000  0.92700000  0.24520000  1.0 0.5798210365
C  C28  1  0.85870000  0.17070000  0.51570000  1.0 0.1696583194
C  C29  1  0.92500000  0.18840000  0.53380000  1.0 -0.0803199307
C  C30  1  0.84480000  0.11000000  0.53090000  1.0 -0.0408491871
C  C31  1  0.84150000  0.17920000  0.46080000  1.0 -0.0508060249
C  C32  1  0.79680000  0.25050000  0.54610000  1.0 -0.1284360967
C  C33  1  0.73510000  0.27150000  0.57390000  1.0 0.0806539804
C  C34  1  0.67180000  0.25190000  0.56280000  1.0 -0.1683977855
C  C35  1  0.61010000  0.27070000  0.58660000  1.0 -0.0913433452
C  C36  1  0.61830000  0.30350000  0.62670000  1.0 -0.0194744977
C  C37  1  0.68280000  0.32170000  0.63930000  1.0 -0.0995837852
C  C38  1  0.73960000  0.30310000  0.61350000  1.0 -0.1577622003
C  C39  1  0.55910000  0.32260000  0.65810000  1.0 0.5856104505
C  C40  1  0.93400000  0.66490000  0.10530000  1.0 0.1865744603
C  C41  1  0.99250000  0.65860000  0.14580000  1.0 -0.0601232865
C  C42  1  0.95530000  0.70160000  0.05940000  1.0 -0.0508060249
C  C43  1  0.90320000  0.61080000  0.08830000  1.0 -0.0701779664
C  C44  1  0.87350000  0.71010000  0.17710000  1.0 -0.1108619335
C  C45  1  0.76540000  0.71730000  0.22490000  1.0 -0.1577622003
C  C46  1  0.70840000  0.74650000  0.24010000  1.0 -0.1284360967
C  C47  1  0.69350000  0.79350000  0.21600000  1.0 -0.0101289918
C  C48  1  0.73570000  0.81130000  0.17660000  1.0 -0.0995837852
C  C49  1  0.79270000  0.78210000  0.16140000  1.0 -0.1577622003
C  C50  1  0.80760000  0.73500000  0.18550000  1.0 0.0387983831
C  C51  1  0.64240000  0.83140000  0.23860000  1.0 0.5446470392
C  C52  1  0.15950000  0.55820000  0.99540000  1.0 0.1484923431
C  C53  1  0.18340000  0.60780000  0.01090000  1.0 -0.1185192218
C  C54  1  0.10930000  0.56970000  0.95790000  1.0 -0.1521619434
C  C55  1  0.13980000  0.52770000  0.03690000  1.0 -0.1108619335
C  C56  1  0.24110000  0.53530000  0.93120000  1.0 -0.0408491871
C  C57  1  0.30800000  0.51060000  0.91580000  1.0 0.0211043497
C  C58  1  0.30900000  0.46070000  0.89510000  1.0 -0.1811955318
C  C59  1  0.37190000  0.43600000  0.88600000  1.0 -0.0803199307
C  C60  1  0.43370000  0.46120000  0.89770000  1.0 -0.0101289918
C  C61  1  0.43270000  0.51110000  0.91840000  1.0 -0.0913433452
C  C62  1  0.36980000  0.53580000  0.92750000  1.0 -0.1683977855
C  C63  1  0.50290000  0.43700000  0.88380000  1.0 0.5647505534
C  C64  1  0.48130000  0.74630000  0.72360000  1.0 0.1998846543
C  C65  1  0.40720000  0.77330000  0.71720000  1.0 -0.0508060249
C  C66  1  0.50660000  0.74920000  0.77880000  1.0 -0.0508060249
C  C67  1  0.53570000  0.76760000  0.68450000  1.0 -0.0601232865
C  C68  1  0.44480000  0.67230000  0.66510000  1.0 -0.1431766885
C  C69  1  0.43440000  0.61410000  0.66300000  1.0 0.0904732686
C  C70  1  0.49150000  0.58010000  0.67160000  1.0 -0.1811955318
C  C71  1  0.47900000  0.52540000  0.66940000  1.0 -0.0995837852
C  C72  1  0.41300000  0.50690000  0.65580000  1.0 -0.0194744977
C  C73  1  0.36140000  0.54070000  0.64650000  1.0 -0.0803199307
C  C74  1  0.37100000  0.59390000  0.65180000  1.0 -0.1431766885
C  C75  1  0.39990000  0.44830000  0.65220000  1.0 0.5798210365
C  C76  1  0.51350000  0.97030000  0.76910000  1.0 0.1696583194
C  C77  1  0.45960000  0.95060000  0.80720000  1.0 -0.0601232865
C  C78  1  0.58570000  0.94510000  0.77900000  1.0 -0.0803199307
C  C79  1  0.48860000  0.96850000  0.71170000  1.0 -0.0408491871
C  C80  1  0.46020000  0.05910000  0.78930000  1.0 -0.2088280953
C  C81  1  0.48300000  0.11470000  0.79790000  1.0 -0.0194744977
C  C82  1  0.54420000  0.12800000  0.82290000  1.0 -0.0803199307
C  C83  1  0.56290000  0.18010000  0.82770000  1.0 -0.025659248
C  C84  1  0.52050000  0.21890000  0.80760000  1.0 0.0104633307
C  C85  1  0.45940000  0.20550000  0.78260000  1.0 -0.1185192218
C  C86  1  0.44060000  0.15340000  0.77770000  1.0 -0.0701779664
C  C87  1  0.54370000  0.27710000  0.81090000  1.0 0.4522587371
C  C88  1  0.38170000  0.26080000  0.50970000  1.0 0.2267865998
C  C89  1  0.30300000  0.23140000  0.44460000  1.0 -0.1683977855
C  C90  1  0.24200000  0.22100000  0.51820000  1.0 -0.3813453602
C  C91  1  0.21180000  0.34790000  0.63590000  1.0 0.2790013743
C  C92  1  0.14300000  0.27160000  0.63400000  1.0 -0.2088280953
C  C93  1  0.08070000  0.35140000  0.60760000  1.0 -0.3958534586
C  C94  1  0.30430000  0.37570000  0.51020000  1.0 0.3131786299
C  C95  1  0.17630000  0.35510000  0.49390000  1.0 -0.3676671821
C  C96  1  0.25370000  0.40020000  0.42980000  1.0 -0.2955428647
C  C97  1  0.50260000  0.38010000  0.53250000  1.0 0.2938604963
C  C98  1  0.58310000  0.43820000  0.57270000  1.0 -0.3289689906
C  C99  1  0.61580000  0.39010000  0.49370000  1.0 -0.3397284113
C  C100  1  0.99120000  0.33090000  0.32110000  1.0 0.3194052172
C  C101  1  0.04870000  0.37270000  0.39020000  1.0 -0.3117848126
C  C102  1  0.11630000  0.32350000  0.32830000  1.0 -0.3397284113
C  C103  1  0.87670000  0.33080000  0.43900000  1.0 0.3194052172
C  C104  1  0.83030000  0.39730000  0.50120000  1.0 -0.3397284113
C  C105  1  0.94590000  0.35650000  0.51250000  1.0 -0.3598000544
C  C106  1  0.87380000  0.33210000  0.19730000  1.0 0.1998846543
C  C107  1  0.96300000  0.28400000  0.16500000  1.0 -0.1521619434
C  C108  1  0.91100000  0.37800000  0.12800000  1.0 -0.1855216213
C  C109  1  0.58500000  0.05610000  0.76260000  1.0 -0.2177834052
C  C110  1  0.57480000  0.11280000  0.77600000  1.0 -0.0101289918
C  C111  1  0.51810000  0.14000000  0.75690000  1.0 -0.0701779664
C  C112  1  0.50880000  0.19220000  0.76930000  1.0 -0.0408491871
C  C113  1  0.55630000  0.21720000  0.80090000  1.0 0.0211043497
C  C114  1  0.61300000  0.19010000  0.82010000  1.0 -0.0913433452
C  C115  1  0.62230000  0.13790000  0.80760000  1.0 -0.0701779664
C  C116  1  0.99500000  0.32500000  0.14400000  1.0 -0.1577622003
C  C117  1  0.88800000  0.34400000  0.11000000  1.0 -0.1811955318
C  C118  1  0.37200000  0.21100000  0.42800000  1.0 -0.1521619434
C  C119  1  0.47800000  0.19300000  0.46300000  1.0 -0.3289689906
C  C120  1  0.20340000  0.94830000  0.70530000  1.0 0.3131786299
C  C121  1  0.19330000  0.96010000  0.61420000  1.0 -0.3289689906
C  C122  1  0.24280000  0.03050000  0.66430000  1.0 -0.3117848126
C  C123  1  0.07520000  0.45360000  0.27590000  1.0 0.3131786299
C  C124  1  0.97310000  0.43890000  0.23270000  1.0 -0.3598000544
C  C125  1  0.98000000  0.50440000  0.30840000  1.0 -0.3676671821
C  C126  1  0.19020000  0.29470000  0.18530000  1.0 0.3131786299
C  C127  1  0.08230000  0.24010000  0.20040000  1.0 -0.2955428647
C  C128  1  0.19900000  0.19090000  0.17200000  1.0 -0.3397284113
C  C129  1  0.29960000  0.51810000  0.12760000  1.0 0.2433585537
C  C130  1  0.37330000  0.47560000  0.05960000  1.0 -0.3289689906
C  C131  1  0.36400000  0.57330000  0.06500000  1.0 -0.3598000544
C  C132  1  0.25850000  0.49570000  0.29830000  1.0 0.2790013743
C  C133  1  0.28080000  0.53280000  0.38460000  1.0 -0.3289689906
C  C134  1  0.19270000  0.57230000  0.32730000  1.0 -0.3117848126
C  C135  1  0.94090000  0.55020000  0.60380000  1.0 0.180173741
C  C136  1  0.92760000  0.60710000  0.61600000  1.0 -0.0508060249
C  C137  1  0.92940000  0.53620000  0.54810000  1.0 -0.0508060249
C  C138  1  0.01310000  0.53180000  0.62440000  1.0 -0.0408491871
C  C139  1  0.88220000  0.46820000  0.63330000  1.0 -0.1284360967
C  C140  1  0.81710000  0.45320000  0.66760000  1.0 0.0691325006
C  C141  1  0.82160000  0.42570000  0.71060000  1.0 -0.1811955318
C  C142  1  0.76050000  0.41600000  0.74000000  1.0 -0.0803199307
C  C143  1  0.69870000  0.43620000  0.72430000  1.0 -0.0101289918
C  C144  1  0.69550000  0.46840000  0.67850000  1.0 -0.0803199307
C  C145  1  0.75190000  0.47910000  0.65100000  1.0 -0.1811955318
C  C146  1  0.63240000  0.42700000  0.75480000  1.0 0.5798210365
C  C147  1  0.14130000  0.67070000  0.48430000  1.0 0.1696583194
C  C148  1  0.07500000  0.68840000  0.46620000  1.0 -0.0803199307
C  C149  1  0.15520000  0.61000000  0.46910000  1.0 -0.0408491871
C  C150  1  0.15850000  0.67920000  0.53920000  1.0 -0.0508060249
C  C151  1  0.20320000  0.75050000  0.45390000  1.0 -0.1284360967
C  C152  1  0.26490000  0.77150000  0.42610000  1.0 0.0806539804
C  C153  1  0.32820000  0.75190000  0.43720000  1.0 -0.1683977855
C  C154  1  0.38990000  0.77070000  0.41340000  1.0 -0.0913433452
C  C155  1  0.38170000  0.80350000  0.37330000  1.0 -0.0194744977
C  C156  1  0.31720000  0.82170000  0.36070000  1.0 -0.0995837852
C  C157  1  0.26040000  0.80310000  0.38650000  1.0 -0.1577622003
C  C158  1  0.44090000  0.82260000  0.34190000  1.0 0.5856104505
C  C159  1  0.06600000  0.16490000  0.89470000  1.0 0.1865744603
C  C160  1  0.00750000  0.15860000  0.85420000  1.0 -0.0601232865
C  C161  1  0.04470000  0.20160000  0.94060000  1.0 -0.0508060249
C  C162  1  0.09680000  0.11080000  0.91170000  1.0 -0.0701779664
C  C163  1  0.12650000  0.21010000  0.82290000  1.0 -0.1108619335
C  C164  1  0.23460000  0.21730000  0.77510000  1.0 -0.1577622003
C  C165  1  0.29160000  0.24650000  0.75990000  1.0 -0.1284360967
C  C166  1  0.30650000  0.29350000  0.78400000  1.0 -0.0101289918
C  C167  1  0.26430000  0.31130000  0.82340000  1.0 -0.0995837852
C  C168  1  0.20730000  0.28210000  0.83860000  1.0 -0.1577622003
C  C169  1  0.19240000  0.23500000  0.81450000  1.0 0.0387983831
C  C170  1  0.35760000  0.33140000  0.76140000  1.0 0.5446470392
C  C171  1  0.84050000  0.05820000  0.00460000  1.0 0.1484923431
C  C172  1  0.81660000  0.10780000  0.98910000  1.0 -0.1185192218
C  C173  1  0.89070000  0.06970000  0.04210000  1.0 -0.1521619434
C  C174  1  0.86020000  0.02770000  0.96310000  1.0 -0.1108619335
C  C175  1  0.75890000  0.03530000  0.06880000  1.0 -0.0408491871
C  C176  1  0.69200000  0.01060000  0.08420000  1.0 0.0211043497
C  C177  1  0.69100000  0.96070000  0.10490000  1.0 -0.1811955318
C  C178  1  0.62810000  0.93600000  0.11400000  1.0 -0.0803199307
C  C179  1  0.56630000  0.96120000  0.10230000  1.0 -0.0101289918
C  C180  1  0.56730000  0.01110000  0.08160000  1.0 -0.0913433452
C  C181  1  0.63020000  0.03580000  0.07250000  1.0 -0.1683977855
C  C182  1  0.49710000  0.93700000  0.11620000  1.0 0.5647505534
C  C183  1  0.51870000  0.24630000  0.27640000  1.0 0.1998846543
C  C184  1  0.59280000  0.27330000  0.28280000  1.0 -0.0508060249
C  C185  1  0.49340000  0.24920000  0.22120000  1.0 -0.0508060249
C  C186  1  0.46430000  0.26760000  0.31550000  1.0 -0.0601232865
C  C187  1  0.55520000  0.17230000  0.33490000  1.0 -0.1431766885
C  C188  1  0.56560000  0.11410000  0.33700000  1.0 0.0904732686
C  C189  1  0.50850000  0.08010000  0.32840000  1.0 -0.1811955318
C  C190  1  0.52100000  0.02540000  0.33060000  1.0 -0.0995837852
C  C191  1  0.58700000  0.00690000  0.34420000  1.0 -0.0194744977
C  C192  1  0.63860000  0.04070000  0.35350000  1.0 -0.0803199307
C  C193  1  0.62900000  0.09390000  0.34820000  1.0 -0.1431766885
C  C194  1  0.60010000  0.94830000  0.34780000  1.0 0.5798210365
C  C195  1  0.48650000  0.47030000  0.23090000  1.0 0.1696583194
C  C196  1  0.54040000  0.45060000  0.19280000  1.0 -0.0601232865
C  C197  1  0.41430000  0.44510000  0.22100000  1.0 -0.0803199307
C  C198  1  0.51140000  0.46850000  0.28830000  1.0 -0.0408491871
C  C199  1  0.53980000  0.55910000  0.21070000  1.0 -0.2088280953
C  C200  1  0.51700000  0.61470000  0.20210000  1.0 -0.0194744977
C  C201  1  0.45580000  0.62800000  0.17710000  1.0 -0.0803199307
C  C202  1  0.43710000  0.68010000  0.17230000  1.0 -0.025659248
C  C203  1  0.47950000  0.71890000  0.19240000  1.0 0.0104633307
C  C204  1  0.54060000  0.70550000  0.21740000  1.0 -0.1185192218
C  C205  1  0.55940000  0.65340000  0.22230000  1.0 -0.0701779664
C  C206  1  0.45630000  0.77710000  0.18910000  1.0 0.4522587371
C  C207  1  0.61830000  0.76080000  0.49030000  1.0 0.2267865998
C  C208  1  0.69700000  0.73140000  0.55540000  1.0 -0.1683977855
C  C209  1  0.75800000  0.72100000  0.48180000  1.0 -0.3813453602
C  C210  1  0.78820000  0.84790000  0.36410000  1.0 0.2790013743
C  C211  1  0.85700000  0.77160000  0.36600000  1.0 -0.2088280953
C  C212  1  0.91930000  0.85140000  0.39240000  1.0 -0.3958534586
C  C213  1  0.69570000  0.87570000  0.48980000  1.0 0.3131786299
C  C214  1  0.82370000  0.85510000  0.50610000  1.0 -0.3676671821
C  C215  1  0.74630000  0.90020000  0.57020000  1.0 -0.2929039883
C  C216  1  0.49740000  0.88010000  0.46750000  1.0 0.2960684908
C  C217  1  0.41690000  0.93820000  0.42730000  1.0 -0.3289689906
C  C218  1  0.38420000  0.89010000  0.50630000  1.0 -0.3397284113
C  C219  1  0.00880000  0.83090000  0.67890000  1.0 0.3194052172
C  C220  1  0.95130000  0.87270000  0.60980000  1.0 -0.3117848126
C  C221  1  0.88370000  0.82350000  0.67170000  1.0 -0.3397284113
C  C222  1  0.12330000  0.83080000  0.56100000  1.0 0.3194052172
C  C223  1  0.16970000  0.89730000  0.49880000  1.0 -0.3397284113
C  C224  1  0.05410000  0.85650000  0.48750000  1.0 -0.3598000544
C  C225  1  0.12620000  0.83210000  0.80270000  1.0 0.1998846543
C  C226  1  0.03700000  0.78400000  0.83500000  1.0 -0.1521619434
C  C227  1  0.08900000  0.87800000  0.87200000  1.0 -0.1811955318
C  C228  1  0.41500000  0.55610000  0.23740000  1.0 -0.2177834052
C  C229  1  0.42520000  0.61280000  0.22400000  1.0 -0.0101289918
C  C230  1  0.48190000  0.64000000  0.24310000  1.0 -0.0701779664
C  C231  1  0.49120000  0.69220000  0.23070000  1.0 -0.0408491871
C  C232  1  0.44370000  0.71720000  0.19910000  1.0 0.0211043497
C  C233  1  0.38700000  0.69010000  0.17990000  1.0 -0.0913433452
C  C234  1  0.37770000  0.63790000  0.19240000  1.0 -0.0701779664
C  C235  1  0.00500000  0.82500000  0.85600000  1.0 -0.1577622003
C  C236  1  0.11200000  0.84400000  0.89000000  1.0 -0.1811955318
C  C237  1  0.62800000  0.71100000  0.57200000  1.0 -0.1521619434
C  C238  1  0.52200000  0.69300000  0.53700000  1.0 -0.3289689906
N  N1  1  0.78970000  0.47930000  0.33140000  1.0 0.0518782114
N  N2  1  0.98570000  0.96350000  0.72690000  1.0 0.0605353328
N  N3  1  0.84160000  0.74120000  0.81910000  1.0 0.0605353328
N  N4  1  0.65280000  0.02120000  0.91500000  1.0 -0.0508060249
N  N5  1  0.75500000  0.03280000  0.66430000  1.0 0.0273835131
N  N6  1  0.11380000  0.02230000  0.36520000  1.0 -0.3184549349
N  N7  1  0.79860000  0.19530000  0.54630000  1.0 -0.3397284113
N  N8  1  0.87390000  0.69020000  0.12900000  1.0 -0.3289689906
N  N9  1  0.21260000  0.52820000  0.97140000  1.0 -0.2088280953
N  N10  1  0.47080000  0.68980000  0.71470000  1.0 -0.3598000544
N  N11  1  0.52280000  0.02570000  0.77970000  1.0 -0.0995837852
N  N12  1  0.31170000  0.24120000  0.49960000  1.0 -0.1811955318
N  N13  1  0.15070000  0.32090000  0.62480000  1.0 0.0605353328
N  N14  1  0.25100000  0.37450000  0.47600000  1.0 0.0518782114
N  N15  1  0.56410000  0.40110000  0.53200000  1.0 0.0387983831
N  N16  1  0.04950000  0.34390000  0.34500000  1.0 0.0605353328
N  N17  1  0.88210000  0.35850000  0.48140000  1.0 0.0387983831
N  N18  1  0.92300000  0.33110000  0.15700000  1.0 0.0806539804
N  N19  1  0.41500000  0.22650000  0.47170000  1.0 -0.1855216213
N  N20  1  0.21030000  0.97930000  0.66860000  1.0 0.0518782114
N  N21  1  0.01430000  0.46350000  0.27310000  1.0 0.0605353328
N  N22  1  0.15840000  0.24120000  0.18090000  1.0 0.0605353328
N  N23  1  0.34720000  0.52120000  0.08500000  1.0 -0.0508060249
N  N24  1  0.24500000  0.53280000  0.33570000  1.0 0.0273835131
N  N25  1  0.88620000  0.52230000  0.63480000  1.0 -0.3184549349
N  N26  1  0.20140000  0.69530000  0.45370000  1.0 -0.3397284113
N  N27  1  0.12610000  0.19020000  0.87100000  1.0 -0.3289689906
N  N28  1  0.78740000  0.02820000  0.02860000  1.0 -0.2088280953
N  N29  1  0.52920000  0.18980000  0.28530000  1.0 -0.3598000544
N  N30  1  0.47720000  0.52570000  0.22030000  1.0 -0.0995837852
N  N31  1  0.68830000  0.74120000  0.50040000  1.0 -0.1811955318
N  N32  1  0.84930000  0.82090000  0.37520000  1.0 0.0605353328
N  N33  1  0.74900000  0.87450000  0.52400000  1.0 0.0518782114
N  N34  1  0.43590000  0.90110000  0.46800000  1.0 0.0387983831
N  N35  1  0.95050000  0.84390000  0.65500000  1.0 0.0518782114
N  N36  1  0.11790000  0.85850000  0.51860000  1.0 0.0387983831
N  N37  1  0.07700000  0.83110000  0.84300000  1.0 0.0806539804
N  N38  1  0.58500000  0.72650000  0.52830000  1.0 -0.1855216213
O  O1  1  0.81850000  0.40450000  0.29650000  1.0 -0.4920118498
O  O2  1  0.89080000  0.92380000  0.75040000  1.0 -0.521233468
O  O3  1  0.82990000  0.83060000  0.80290000  1.0 -0.4100341785
O  O4  1  0.71930000  0.97840000  0.85650000  1.0 -0.4498689907
O  O5  1  0.76400000  0.99320000  0.74720000  1.0 -0.5413583406
O  O6  1  0.83540000  0.89480000  0.89450000  1.0 -0.5807603883
O  O7  1  0.02670000  0.14320000  0.40860000  1.0 -0.6169437515
O  O8  1  0.02710000  0.06200000  0.48690000  1.0 -0.6018380659
O  O9  1  0.92970000  0.05450000  0.40210000  1.0 -0.6169437515
O  O10  1  0.37010000  0.89060000  0.21370000  1.0 -0.6392779338
O  O11  1  0.42040000  0.95420000  0.25530000  1.0 -0.5594618706
O  O12  1  0.98370000  0.16320000  0.51040000  1.0 -0.6169437515
O  O13  1  0.88780000  0.07430000  0.50440000  1.0 -0.6100419476
O  O14  1  0.88810000  0.15310000  0.42470000  1.0 -0.5923725831
O  O15  1  0.56380000  0.35090000  0.69170000  1.0 -0.4920118498
O  O16  1  0.49700000  0.30720000  0.63900000  1.0 -0.6900424945
O  O17  1  0.05090000  0.63080000  0.12440000  1.0 -0.629268645
O  O18  1  0.00970000  0.67970000  0.02970000  1.0 -0.6018380659
O  O19  1  0.94740000  0.57960000  0.05640000  1.0 -0.5594618706
O  O20  1  0.61610000  0.82700000  0.27910000  1.0 -0.5594618706
O  O21  1  0.62820000  0.87300000  0.21050000  1.0 -0.5526515101
O  O22  1  0.13770000  0.64000000  0.04410000  1.0 -0.5923725831
O  O23  1  0.03910000  0.59590000  0.97500000  1.0 -0.5526515101
O  O24  1  0.08150000  0.54520000  0.06940000  1.0 -0.4498689907
O  O25  1  0.50450000  0.40270000  0.85000000  1.0 -0.6100419476
O  O26  1  0.55440000  0.44740000  0.90760000  1.0 -0.5594618706
O  O27  1  0.98540000  0.23270000  0.42660000  1.0 -0.893266915
O  O28  1  0.11040000  0.15220000  0.49700000  1.0 -0.8591598797
O  O29  1  0.98750000  0.07880000  0.57740000  1.0 -0.8591598797
O  O30  1  0.92730000  0.98390000  0.48460000  1.0 -0.8591598797
O  O31  1  0.80180000  0.06630000  0.41610000  1.0 -0.8480819451
O  O32  1  0.92760000  0.13480000  0.33490000  1.0 -0.8401252118
O  O33  1  0.89270000  0.24040000  0.34840000  1.0 -0.7123776424
O  O34  1  0.02300000  0.21340000  0.32310000  1.0 -0.6482923019
O  O35  1  0.06790000  0.25730000  0.50870000  1.0 -0.6588853735
O  O36  1  0.13110000  0.22690000  0.42200000  1.0 -0.629268645
O  O37  1  0.07150000  0.16080000  0.60090000  1.0 -0.6169437515
O  O38  1  0.13350000  0.07520000  0.56630000  1.0 -0.629268645
O  O39  1  0.89720000  0.99730000  0.58860000  1.0 -0.6700430301
O  O40  1  0.02740000  0.97410000  0.55790000  1.0 -0.6700430301
O  O41  1  0.83940000  0.96290000  0.40260000  1.0 -0.629268645
O  O42  1  0.78250000  0.99220000  0.49480000  1.0 -0.7123776424
O  O43  1  0.83930000  0.05370000  0.31350000  1.0 -0.5807603883
O  O44  1  0.78370000  0.14500000  0.34670000  1.0 -0.5095414308
O  O45  1  0.16910000  0.59550000  0.13850000  1.0 -0.8009845006
O  O46  1  0.11960000  0.72140000  0.09130000  1.0 -0.8177272069
O  O47  1  0.08230000  0.69700000  0.95860000  1.0 -0.7123776424
O  O48  1  0.94020000  0.62100000  0.95550000  1.0 -0.5282899824
O  O49  1  0.96020000  0.50720000  0.02160000  1.0 -0.5712317365
O  O50  1  0.04650000  0.51650000  0.13090000  1.0 -0.3397284113
O  O51  1  0.07950000  0.57220000  0.21930000  1.0 -0.6169437515
O  O52  1  0.15430000  0.68870000  0.19430000  1.0 -0.7191631484
O  O53  1  0.24030000  0.67950000  0.11790000  1.0 -0.5282899824
O  O54  1  0.19660000  0.74010000  0.00730000  1.0 -0.5282899824
O  O55  1  0.07210000  0.78200000  0.01340000  1.0 -0.5594618706
O  O56  1  0.95860000  0.73200000  0.93680000  1.0 -0.6169437515
O  O57  1  0.01670000  0.65840000  0.87700000  1.0 -0.6392779338
O  O58  1  0.93940000  0.54680000  0.91210000  1.0 -0.5095414308
O  O59  1  0.84460000  0.54200000  0.97980000  1.0 -0.5923725831
O  O60  1  0.89250000  0.48460000  0.09250000  1.0 -0.5923725831
O  O61  1  0.01870000  0.44230000  0.08940000  1.0 -0.5413583406
O  O62  1  0.12850000  0.49400000  0.16210000  1.0 -0.5021131324
O  O63  1  0.51590000  0.80030000  0.79950000  1.0 -0.6100419476
O  O64  1  0.40840000  0.82840000  0.72480000  1.0 -0.6100419476
O  O65  1  0.55220000  0.82170000  0.68900000  1.0 -0.6169437515
O  O66  1  0.34770000  0.43300000  0.63020000  1.0 -0.5413583406
O  O67  1  0.44520000  0.41880000  0.67360000  1.0 -0.6700430301
O  O68  1  0.44330000  0.89690000  0.80250000  1.0 -0.5923725831
O  O69  1  0.58760000  0.88960000  0.76800000  1.0 -0.6100419476
O  O70  1  0.47920000  0.91730000  0.69250000  1.0 -0.6169437515
O  O71  1  0.50920000  0.30570000  0.79010000  1.0 -0.4701410296
O  O72  1  0.59490000  0.28970000  0.83700000  1.0 -0.5095414308
O  O73  1  0.34770000  0.91550000  0.72900000  1.0 -0.8799851674
O  O74  1  0.37810000  0.81780000  0.82900000  1.0 -0.8401252118
O  O75  1  0.55110000  0.86290000  0.86780000  1.0 -0.8401252118
O  O76  1  0.64740000  0.80250000  0.76280000  1.0 -0.8591598797
O  O77  1  0.61930000  0.90000000  0.66340000  1.0 -0.8799851674
O  O78  1  0.44260000  0.85480000  0.62510000  1.0 -0.8591598797
O  O79  1  0.30140000  0.85250000  0.64990000  1.0 -0.7538840461
O  O80  1  0.36320000  0.94630000  0.62850000  1.0 -0.629268645
O  O81  1  0.27020000  0.82880000  0.75930000  1.0 -0.737360059
O  O82  1  0.29490000  0.90840000  0.82700000  1.0 -0.6482923019
O  O83  1  0.46720000  0.77920000  0.90160000  1.0 -0.5526515101
O  O84  1  0.42510000  0.87950000  0.91100000  1.0 -0.5526515101
O  O85  1  0.69150000  0.86820000  0.84060000  1.0 -0.793520509
O  O86  1  0.63750000  0.77320000  0.86300000  1.0 -0.5807603883
O  O87  1  0.72910000  0.88560000  0.73140000  1.0 -0.793520509
O  O88  1  0.69880000  0.80750000  0.66340000  1.0 -0.629268645
O  O89  1  0.57220000  0.83930000  0.58060000  1.0 -0.6804999399
O  O90  1  0.52800000  0.93830000  0.58930000  1.0 -0.6482923019
O  O91  1  0.39190000  0.27790000  0.55680000  1.0 -0.1521619434
O  O92  1  0.26310000  0.33180000  0.65230000  1.0 -0.4570951449
O  O93  1  0.32000000  0.79630000  0.07190000  1.0 -0.1185192218
O  O94  1  0.57050000  0.97390000  0.22680000  1.0 -0.3928975302
O  O95  1  0.30390000  0.35360000  0.55110000  1.0 -0.4920118498
O  O96  1  0.30280000  0.95340000  0.13340000  1.0 -0.4839398203
O  O97  1  0.45690000  0.38760000  0.56350000  1.0 -0.4839398203
O  O98  1  0.93270000  0.34600000  0.33500000  1.0 -0.521233468
O  O99  1  0.82490000  0.33110000  0.41130000  1.0 -0.4839398203
O  O100  1  0.78660000  0.22930000  0.26610000  1.0 -0.4244004178
O  O101  1  0.45740000  0.83780000  0.05720000  1.0 -0.4701410296
O  O102  1  0.25060000  0.83970000  0.14750000  1.0 -0.5712317365
O  O103  1  0.88420000  0.31070000  0.23510000  1.0 -0.4701410296
O  O104  1  0.73540000  0.24540000  0.36440000  1.0 -0.4701410296
O  O105  1  0.36640000  0.24080000  0.65590000  1.0 0.0211043497
O  O106  1  0.67900000  0.39610000  0.95570000  1.0 -0.6588853735
O  O107  1  0.42840000  0.27580000  0.54650000  1.0 -0.1284360967
O  O108  1  0.33600000  0.24380000  0.62860000  1.0 -0.0913433452
O  O109  1  0.18150000  0.90450000  0.70350000  1.0 -0.4839398203
O  O110  1  0.10920000  0.42380000  0.24960000  1.0 -0.521233468
O  O111  1  0.17010000  0.33060000  0.19710000  1.0 -0.4100341785
O  O112  1  0.28070000  0.47840000  0.14350000  1.0 -0.4498689907
O  O113  1  0.23600000  0.49320000  0.25280000  1.0 -0.5413583406
O  O114  1  0.16460000  0.39480000  0.10550000  1.0 -0.5807603883
O  O115  1  0.97330000  0.64320000  0.59140000  1.0 -0.6169437515
O  O116  1  0.97290000  0.56200000  0.51310000  1.0 -0.6018380659
O  O117  1  0.07030000  0.55450000  0.59790000  1.0 -0.6169437515
O  O118  1  0.62990000  0.39060000  0.78630000  1.0 -0.6392779338
O  O119  1  0.57960000  0.45420000  0.74470000  1.0 -0.5526515101
O  O120  1  0.01630000  0.66320000  0.48960000  1.0 -0.6169437515
O  O121  1  0.11220000  0.57430000  0.49560000  1.0 -0.6100419476
O  O122  1  0.11190000  0.65310000  0.57530000  1.0 -0.5923725831
O  O123  1  0.43620000  0.85090000  0.30830000  1.0 -0.4920118498
O  O124  1  0.50300000  0.80720000  0.36100000  1.0 -0.6900424945
O  O125  1  0.94910000  0.13080000  0.87560000  1.0 -0.629268645
O  O126  1  0.99030000  0.17970000  0.97030000  1.0 -0.6018380659
O  O127  1  0.05260000  0.07960000  0.94360000  1.0 -0.5594618706
O  O128  1  0.38390000  0.32700000  0.72090000  1.0 -0.5594618706
O  O129  1  0.37180000  0.37300000  0.78950000  1.0 -0.5526515101
O  O130  1  0.86230000  0.14000000  0.95590000  1.0 -0.5923725831
O  O131  1  0.96090000  0.09590000  0.02500000  1.0 -0.5526515101
O  O132  1  0.91850000  0.04520000  0.93060000  1.0 -0.4498689907
O  O133  1  0.49550000  0.90270000  0.15000000  1.0 -0.6100419476
O  O134  1  0.44560000  0.94740000  0.09240000  1.0 -0.5594618706
O  O135  1  0.01460000  0.73270000  0.57340000  1.0 -0.8957731711
O  O136  1  0.88960000  0.65220000  0.50300000  1.0 -0.8591598797
O  O137  1  0.01250000  0.57880000  0.42260000  1.0 -0.8591598797
O  O138  1  0.07270000  0.48390000  0.51540000  1.0 -0.8591598797
O  O139  1  0.19820000  0.56630000  0.58390000  1.0 -0.8480819451
O  O140  1  0.07240000  0.63480000  0.66510000  1.0 -0.8401252118
O  O141  1  0.10730000  0.74040000  0.65160000  1.0 -0.7123776424
O  O142  1  0.97700000  0.71340000  0.67690000  1.0 -0.6482923019
O  O143  1  0.93210000  0.75730000  0.49130000  1.0 -0.6588853735
O  O144  1  0.86890000  0.72690000  0.57800000  1.0 -0.629268645
O  O145  1  0.92850000  0.66080000  0.39910000  1.0 -0.6169437515
O  O146  1  0.86650000  0.57520000  0.43370000  1.0 -0.629268645
O  O147  1  0.10280000  0.49730000  0.41140000  1.0 -0.6700430301
O  O148  1  0.97260000  0.47410000  0.44210000  1.0 -0.6700430301
O  O149  1  0.16060000  0.46290000  0.59740000  1.0 -0.629268645
O  O150  1  0.21750000  0.49220000  0.50520000  1.0 -0.7123776424
O  O151  1  0.16070000  0.55370000  0.68650000  1.0 -0.5807603883
O  O152  1  0.21630000  0.64500000  0.65330000  1.0 -0.5095414308
O  O153  1  0.83090000  0.09550000  0.86150000  1.0 -0.8009845006
O  O154  1  0.88040000  0.22140000  0.90870000  1.0 -0.8177272069
O  O155  1  0.91770000  0.19700000  0.04140000  1.0 -0.7037202704
O  O156  1  0.05980000  0.12100000  0.04450000  1.0 -0.5282899824
O  O157  1  0.03980000  0.00720000  0.97840000  1.0 -0.5712317365
O  O158  1  0.95350000  0.01650000  0.86910000  1.0 -0.3397284113
O  O159  1  0.92050000  0.07220000  0.78070000  1.0 -0.6169437515
O  O160  1  0.84570000  0.18870000  0.80570000  1.0 -0.7191631484
O  O161  1  0.75970000  0.17950000  0.88210000  1.0 -0.5282899824
O  O162  1  0.80340000  0.24010000  0.99270000  1.0 -0.5282899824
O  O163  1  0.92790000  0.28200000  0.98660000  1.0 -0.5594618706
O  O164  1  0.04140000  0.23200000  0.06320000  1.0 -0.6100419476
O  O165  1  0.98330000  0.15840000  0.12300000  1.0 -0.6392779338
O  O166  1  0.06060000  0.04680000  0.08790000  1.0 -0.5095414308
O  O167  1  0.15540000  0.04200000  0.02020000  1.0 -0.5923725831
O  O168  1  0.10750000  0.98460000  0.90750000  1.0 -0.5923725831
O  O169  1  0.98130000  0.94230000  0.91060000  1.0 -0.5413583406
O  O170  1  0.87150000  0.99400000  0.83790000  1.0 -0.5021131324
O  O171  1  0.48410000  0.30030000  0.20050000  1.0 -0.6100419476
O  O172  1  0.59160000  0.32840000  0.27520000  1.0 -0.6100419476
O  O173  1  0.44780000  0.32170000  0.31100000  1.0 -0.6169437515
O  O174  1  0.65230000  0.93300000  0.36980000  1.0 -0.5413583406
O  O175  1  0.55480000  0.91880000  0.32640000  1.0 -0.6700430301
O  O176  1  0.55670000  0.39690000  0.19750000  1.0 -0.5923725831
O  O177  1  0.41240000  0.38960000  0.23200000  1.0 -0.6100419476
O  O178  1  0.52080000  0.41730000  0.30750000  1.0 -0.6169437515
O  O179  1  0.49080000  0.80570000  0.20990000  1.0 -0.4701410296
O  O180  1  0.40510000  0.78970000  0.16300000  1.0 -0.5095414308
O  O181  1  0.65230000  0.41550000  0.27100000  1.0 -0.8799851674
O  O182  1  0.62190000  0.31780000  0.17100000  1.0 -0.8401252118
O  O183  1  0.44890000  0.36290000  0.13220000  1.0 -0.8401252118
O  O184  1  0.35260000  0.30250000  0.23720000  1.0 -0.8591598797
O  O185  1  0.38070000  0.40000000  0.33660000  1.0 -0.8799851674
O  O186  1  0.55740000  0.35480000  0.37490000  1.0 -0.8591598797
O  O187  1  0.69860000  0.35250000  0.35010000  1.0 -0.7538840461
O  O188  1  0.63680000  0.44630000  0.37150000  1.0 -0.629268645
O  O189  1  0.72980000  0.32880000  0.24070000  1.0 -0.737360059
O  O190  1  0.70510000  0.40840000  0.17300000  1.0 -0.6482923019
O  O191  1  0.53280000  0.27920000  0.09840000  1.0 -0.5526515101
O  O192  1  0.57490000  0.37950000  0.08900000  1.0 -0.5526515101
O  O193  1  0.30850000  0.36820000  0.15940000  1.0 -0.793520509
O  O194  1  0.36250000  0.27320000  0.13700000  1.0 -0.5807603883
O  O195  1  0.27090000  0.38560000  0.26860000  1.0 -0.793520509
O  O196  1  0.30120000  0.30750000  0.33660000  1.0 -0.629268645
O  O197  1  0.42780000  0.33930000  0.41940000  1.0 -0.6804999399
O  O198  1  0.47200000  0.43830000  0.41070000  1.0 -0.6482923019
O  O199  1  0.60810000  0.77790000  0.44320000  1.0 -0.1521619434
O  O200  1  0.73690000  0.83180000  0.34770000  1.0 -0.4570951449
O  O201  1  0.68000000  0.29630000  0.92810000  1.0 -0.1185192218
O  O202  1  0.42950000  0.47390000  0.77320000  1.0 -0.3928975302
O  O203  1  0.69610000  0.85360000  0.44890000  1.0 -0.4920118498
O  O204  1  0.69720000  0.45340000  0.86660000  1.0 -0.5021131324
O  O205  1  0.54310000  0.88760000  0.43650000  1.0 -0.4839398203
O  O206  1  0.06730000  0.84600000  0.66500000  1.0 -0.521233468
O  O207  1  0.17510000  0.83110000  0.58870000  1.0 -0.4839398203
O  O208  1  0.21340000  0.72930000  0.73390000  1.0 -0.4272845077
O  O209  1  0.54260000  0.33780000  0.94280000  1.0 -0.4701410296
O  O210  1  0.74940000  0.33970000  0.85250000  1.0 -0.5712317365
O  O211  1  0.11580000  0.81070000  0.76490000  1.0 -0.4701410296
O  O212  1  0.26460000  0.74540000  0.63560000  1.0 -0.4701410296
O  O213  1  0.63360000  0.74080000  0.34410000  1.0 0.0211043497
O  O214  1  0.32100000  0.89610000  0.04430000  1.0 -0.6588853735
O  O215  1  0.57160000  0.77580000  0.45350000  1.0 -0.1284360967
O  O216  1  0.66400000  0.74380000  0.37140000  1.0 -0.0995837852
