# DDEC6 charges by PACMAN v1.1 (https://github.com/mtap-research/PACMAN-charge/)
data_ISIYIV_ASR_pacman
_symmetry_space_group_name_H-M   'P 1'
_cell_length_a   19.54350000
_cell_length_b   25.23150000
_cell_length_c   25.34320000
_cell_angle_alpha   90.00000000
_cell_angle_beta   90.37600000
_cell_angle_gamma   90.00000000
_symmetry_Int_Tables_number   1
_chemical_formula_structural   Dy8Mn3Mo18H134C126(N2O17)4
_chemical_formula_sum   'Dy16 Mn6 Mo36 H268 C252 N16 O136'
_cell_volume   12496.76238789
_cell_formula_units_Z   2
loop_
 _symmetry_equiv_pos_site_id
 _symmetry_equiv_pos_as_xyz
  1  'x, y, z'
loop_
 _atom_site_type_symbol
 _atom_site_label
 _atom_site_symmetry_multiplicity
 _atom_site_fract_x
 _atom_site_fract_y
 _atom_site_fract_z
 _atom_site_occupancy
 _atom_site_charge
Dy  Dy1  1  0.79647000  0.54407000  0.55322000  1.0 2.0943268721
Dy  Dy2  1  0.38188000  0.98226000  0.37090000  1.0 1.1453775351
Dy  Dy3  1  0.47270000  0.02620000  0.50190000  1.0 0.5905790065
Dy  Dy4  1  0.51070000  0.97180000  0.49680000  1.0 0.5905790065
Dy  Dy5  1  0.20353000  0.04407000  0.94678000  1.0 2.1009431466
Dy  Dy6  1  0.61812000  0.48226000  0.12910000  1.0 1.1453775351
Dy  Dy7  1  0.52730000  0.52620000  0.99810000  1.0 0.5905790065
Dy  Dy8  1  0.48930000  0.47180000  0.00320000  1.0 0.5905790065
Dy  Dy9  1  0.20353000  0.45593000  0.44678000  1.0 2.1009431466
Dy  Dy10  1  0.61812000  0.01774000  0.62910000  1.0 1.1555707638
Dy  Dy11  1  0.52730000  0.97380000  0.49810000  1.0 0.5905790065
Dy  Dy12  1  0.48930000  0.02820000  0.50320000  1.0 0.5905790065
Dy  Dy13  1  0.79647000  0.95593000  0.05322000  1.0 2.1009431466
Dy  Dy14  1  0.38188000  0.51774000  0.87090000  1.0 1.1444367354
Dy  Dy15  1  0.47270000  0.47380000  0.00190000  1.0 0.5905790065
Dy  Dy16  1  0.51070000  0.52820000  0.99680000  1.0 0.5905790065
Mn  Mn1  1  0.95445000  0.73854000  0.69185000  1.0 0.8747652953
Mn  Mn2  1  0.04555000  0.23854000  0.80815000  1.0 0.8767750566
Mn  Mn3  1  0.04555000  0.26146000  0.30815000  1.0 0.8767750566
Mn  Mn4  1  0.95445000  0.76146000  0.19185000  1.0 0.8767750566
Mn  Mn5  1  0.50000000  0.50000000  0.50000000  1.0 0.8767750566
Mn  Mn6  1  0.50000000  0.00000000  0.00000000  1.0 0.8767750566
Mo  Mo1  1  0.65779000  0.48054000  0.45720000  1.0 2.0750307028
Mo  Mo2  1  0.62288000  0.46688000  0.58420000  1.0 2.0705570563
Mo  Mo3  1  0.46367000  0.48384000  0.62820000  1.0 1.381371129
Mo  Mo4  1  0.95057000  0.64600000  0.59756000  1.0 2.0375155394
Mo  Mo5  1  0.05531000  0.63078000  0.70069000  1.0 1.3233250563
Mo  Mo6  1  0.05892000  0.72470000  0.79515000  1.0 1.4037416164
Mo  Mo7  1  0.96121000  0.83367000  0.78389000  1.0 1.4521441643
Mo  Mo8  1  0.85242000  0.84571000  0.68221000  1.0 1.2170032148
Mo  Mo9  1  0.84825000  0.75255000  0.58894000  1.0 1.0318613832
Mo  Mo10  1  0.34221000  0.98054000  0.04280000  1.0 2.0705570563
Mo  Mo11  1  0.37712000  0.96688000  0.91580000  1.0 2.0705570563
Mo  Mo12  1  0.53633000  0.98384000  0.87180000  1.0 1.381371129
Mo  Mo13  1  0.04943000  0.14600000  0.90244000  1.0 2.0299036686
Mo  Mo14  1  0.94469000  0.13078000  0.79931000  1.0 1.3289285486
Mo  Mo15  1  0.94108000  0.22470000  0.70485000  1.0 1.4104128663
Mo  Mo16  1  0.03879000  0.33367000  0.71611000  1.0 1.4597946986
Mo  Mo17  1  0.14758000  0.34571000  0.81779000  1.0 1.2170032148
Mo  Mo18  1  0.15175000  0.25255000  0.91106000  1.0 1.0318613832
Mo  Mo19  1  0.34221000  0.51946000  0.54280000  1.0 2.0705570563
Mo  Mo20  1  0.37712000  0.53312000  0.41580000  1.0 2.0705570563
Mo  Mo21  1  0.53633000  0.51616000  0.37180000  1.0 1.381371129
Mo  Mo22  1  0.04943000  0.35400000  0.40244000  1.0 2.0299036686
Mo  Mo23  1  0.94469000  0.36922000  0.29931000  1.0 1.3289285486
Mo  Mo24  1  0.94108000  0.27530000  0.20485000  1.0 1.4104128663
Mo  Mo25  1  0.03879000  0.16633000  0.21611000  1.0 1.4597946986
Mo  Mo26  1  0.14758000  0.15429000  0.31779000  1.0 1.2170032148
Mo  Mo27  1  0.15175000  0.24745000  0.41106000  1.0 1.0318613832
Mo  Mo28  1  0.65779000  0.01946000  0.95720000  1.0 2.0705570563
Mo  Mo29  1  0.62288000  0.03312000  0.08420000  1.0 2.0637108271
Mo  Mo30  1  0.46367000  0.01616000  0.12820000  1.0 1.381371129
Mo  Mo31  1  0.95057000  0.85400000  0.09756000  1.0 2.0375155394
Mo  Mo32  1  0.05531000  0.86922000  0.20069000  1.0 1.3233250563
Mo  Mo33  1  0.05892000  0.77530000  0.29515000  1.0 1.4037416164
Mo  Mo34  1  0.96121000  0.66633000  0.28389000  1.0 1.4597946986
Mo  Mo35  1  0.85242000  0.65429000  0.18221000  1.0 1.2170032148
Mo  Mo36  1  0.84825000  0.74745000  0.08894000  1.0 1.0318613832
H  H1  1  0.51270000  0.39301000  0.40592000  1.0 0.0798184731
H  H2  1  0.57061000  0.38009000  0.44873000  1.0 0.0798184731
H  H3  1  0.54261000  0.36788000  0.54228000  1.0 0.0798184731
H  H4  1  0.46578000  0.37461000  0.56236000  1.0 0.0798184731
H  H5  1  0.37111000  0.40081000  0.49909000  1.0 0.0798184731
H  H6  1  0.38693000  0.40862000  0.43775000  1.0 0.0798184731
H  H7  1  0.46420000  0.30739000  0.50227000  1.0 0.2024419789
H  H8  1  0.40051000  0.31859000  0.40508000  1.0 0.0511641243
H  H9  1  0.48156000  0.31534000  0.39253000  1.0 0.0592627113
H  H10  1  0.34759000  0.23407000  0.40689000  1.0 0.0592627113
H  H11  1  0.34912000  0.14147000  0.41010000  1.0 0.0703750332
H  H12  1  0.54501000  0.14518000  0.46284000  1.0 0.0798184731
H  H13  1  0.54347000  0.23778000  0.45971000  1.0 0.0511641243
H  H14  1  0.78689000  0.81546000  0.18362000  1.0 0.088543757
H  H15  1  0.83316000  0.86741000  0.18854000  1.0 0.088543757
H  H16  1  0.84805000  0.75369000  0.30360000  1.0 0.088543757
H  H17  1  0.79395000  0.74533000  0.25690000  1.0 0.088543757
H  H18  1  0.91526000  0.87797000  0.26306000  1.0 0.0798184731
H  H19  1  0.91964000  0.83401000  0.30824000  1.0 0.0798184731
H  H20  1  0.75676000  0.82610000  0.29014000  1.0 0.0703750332
H  H21  1  0.79795000  0.91472000  0.25555000  1.0 0.0798184731
H  H22  1  0.83530000  0.90310000  0.31061000  1.0 0.0703750332
H  H23  1  0.66018000  0.87861000  0.27277000  1.0 0.0703750332
H  H24  1  0.56365000  0.90541000  0.31989000  1.0 0.0798184731
H  H25  1  0.68490000  0.98650000  0.42191000  1.0 0.0798184731
H  H26  1  0.78146000  0.95964000  0.37481000  1.0 0.0511641243
H  H27  1  0.11633000  0.72237000  0.62921000  1.0 0.0798184731
H  H28  1  0.06444000  0.73072000  0.58099000  1.0 0.0798184731
H  H29  1  0.99066000  0.81499000  0.57412000  1.0 0.0798184731
H  H30  1  0.99341000  0.85685000  0.62149000  1.0 0.0798184731
H  H31  1  0.07132000  0.84498000  0.69316000  1.0 0.088543757
H  H32  1  0.12111000  0.79520000  0.69960000  1.0 0.088543757
H  H33  1  0.10352000  0.84284000  0.57724000  1.0 0.147122217
H  H34  1  0.19080000  0.83297000  0.65384000  1.0 0.0703750332
H  H35  1  0.19368000  0.77769000  0.62339000  1.0 0.0703750332
H  H36  1  0.31197000  0.78490000  0.59571000  1.0 0.0798184731
H  H37  1  0.39093000  0.82799000  0.54161000  1.0 0.0511641243
H  H38  1  0.24990000  0.94078000  0.50768000  1.0 0.0979613489
H  H39  1  0.17097000  0.89767000  0.56177000  1.0 0.0511641243
H  H40  1  0.39918000  0.16794000  0.53919000  1.0 0.0798184731
H  H41  1  0.29621000  0.07978000  0.51283000  1.0 0.088543757
H  H42  1  0.24903000  0.12177000  0.48233000  1.0 0.0703750332
H  H43  1  0.23792000  0.11123000  0.54395000  1.0 0.0703750332
H  H44  1  0.24271000  0.19391000  0.52845000  1.0 0.0511641243
H  H45  1  0.31273000  0.21572000  0.50431000  1.0 0.0703750332
H  H46  1  0.30633000  0.20637000  0.56654000  1.0 0.088543757
H  H47  1  0.10198000  0.85359000  0.59278000  1.0 0.147122217
H  H48  1  0.20057000  0.79385000  0.62239000  1.0 0.0592627113
H  H49  1  0.17498000  0.77988000  0.56448000  1.0 0.088543757
H  H50  1  0.26431000  0.79353000  0.51620000  1.0 0.0703750332
H  H51  1  0.34271000  0.85373000  0.48085000  1.0 0.088543757
H  H52  1  0.27672000  0.96639000  0.58252000  1.0 0.0592627113
H  H53  1  0.19831000  0.90619000  0.61787000  1.0 0.0592627113
H  H54  1  0.23509000  0.13612000  0.74045000  1.0 0.088543757
H  H55  1  0.18733000  0.13218000  0.65254000  1.0 0.0703750332
H  H56  1  0.21552000  0.19170000  0.65675000  1.0 0.0798184731
H  H57  1  0.35001000  0.19874000  0.68654000  1.0 0.0798184731
H  H58  1  0.45816000  0.16252000  0.67113000  1.0 0.088543757
H  H59  1  0.36977000  0.02776000  0.61692000  1.0 0.0979613489
H  H60  1  0.26160000  0.06399000  0.63231000  1.0 0.0511641243
H  H61  1  0.48276000  0.30459000  0.49437000  1.0 0.2024419789
H  H62  1  0.41858000  0.33568000  0.39789000  1.0 0.0592627113
H  H63  1  0.36203000  0.32277000  0.44174000  1.0 0.0511641243
H  H64  1  0.31770000  0.25368000  0.38970000  1.0 0.0511641243
H  H65  1  0.30955000  0.16211000  0.37715000  1.0 0.0798184731
H  H66  1  0.50410000  0.14458000  0.43023000  1.0 0.0798184731
H  H67  1  0.51223000  0.23620000  0.44269000  1.0 0.0703750332
H  H68  1  0.48730000  0.89301000  0.09408000  1.0 0.0798184731
H  H69  1  0.42939000  0.88009000  0.05127000  1.0 0.0798184731
H  H70  1  0.45739000  0.86788000  0.95772000  1.0 0.0798184731
H  H71  1  0.53422000  0.87461000  0.93764000  1.0 0.0798184731
H  H72  1  0.62889000  0.90081000  0.00091000  1.0 0.0798184731
H  H73  1  0.61307000  0.90862000  0.06225000  1.0 0.0798184731
H  H74  1  0.53580000  0.80739000  0.99773000  1.0 0.2024419789
H  H75  1  0.59949000  0.81859000  0.09492000  1.0 0.0511641243
H  H76  1  0.51844000  0.81534000  0.10747000  1.0 0.0592627113
H  H77  1  0.65241000  0.73407000  0.09311000  1.0 0.0592627113
H  H78  1  0.65088000  0.64147000  0.08990000  1.0 0.0703750332
H  H79  1  0.45499000  0.64518000  0.03716000  1.0 0.0798184731
H  H80  1  0.45653000  0.73778000  0.04029000  1.0 0.0511641243
H  H81  1  0.21311000  0.31546000  0.31638000  1.0 0.088543757
H  H82  1  0.16684000  0.36741000  0.31146000  1.0 0.088543757
H  H83  1  0.15195000  0.25369000  0.19640000  1.0 0.088543757
H  H84  1  0.20605000  0.24533000  0.24310000  1.0 0.088543757
H  H85  1  0.08474000  0.37797000  0.23694000  1.0 0.0798184731
H  H86  1  0.08036000  0.33401000  0.19176000  1.0 0.0798184731
H  H87  1  0.24324000  0.32610000  0.20986000  1.0 0.0703750332
H  H88  1  0.20205000  0.41472000  0.24445000  1.0 0.0798184731
H  H89  1  0.16470000  0.40310000  0.18939000  1.0 0.0703750332
H  H90  1  0.33982000  0.37861000  0.22723000  1.0 0.0703750332
H  H91  1  0.43635000  0.40541000  0.18011000  1.0 0.0798184731
H  H92  1  0.31510000  0.48650000  0.07809000  1.0 0.0798184731
H  H93  1  0.21854000  0.45964000  0.12519000  1.0 0.0511641243
H  H94  1  0.88367000  0.22237000  0.87079000  1.0 0.0798184731
H  H95  1  0.93556000  0.23072000  0.91901000  1.0 0.0798184731
H  H96  1  0.00934000  0.31499000  0.92588000  1.0 0.0798184731
H  H97  1  0.00659000  0.35685000  0.87851000  1.0 0.0798184731
H  H98  1  0.92868000  0.34498000  0.80684000  1.0 0.088543757
H  H99  1  0.87889000  0.29520000  0.80040000  1.0 0.088543757
H  H100  1  0.89648000  0.34284000  0.92276000  1.0 0.147122217
H  H101  1  0.80920000  0.33297000  0.84616000  1.0 0.0703750332
H  H102  1  0.80632000  0.27769000  0.87661000  1.0 0.0703750332
H  H103  1  0.68803000  0.28490000  0.90429000  1.0 0.0798184731
H  H104  1  0.60907000  0.32799000  0.95839000  1.0 0.0511641243
H  H105  1  0.75010000  0.44078000  0.99232000  1.0 0.0979613489
H  H106  1  0.82903000  0.39767000  0.93823000  1.0 0.0511641243
H  H107  1  0.60082000  0.66794000  0.96081000  1.0 0.0798184731
H  H108  1  0.70379000  0.57978000  0.98717000  1.0 0.088543757
H  H109  1  0.75097000  0.62177000  0.01767000  1.0 0.0703750332
H  H110  1  0.76208000  0.61123000  0.95605000  1.0 0.0703750332
H  H111  1  0.75729000  0.69391000  0.97155000  1.0 0.0511641243
H  H112  1  0.68727000  0.71572000  0.99569000  1.0 0.0703750332
H  H113  1  0.69367000  0.70637000  0.93346000  1.0 0.088543757
H  H114  1  0.89802000  0.35359000  0.90722000  1.0 0.147122217
H  H115  1  0.79943000  0.29385000  0.87761000  1.0 0.0592627113
H  H116  1  0.82502000  0.27988000  0.93552000  1.0 0.088543757
H  H117  1  0.73569000  0.29353000  0.98380000  1.0 0.0703750332
H  H118  1  0.65729000  0.35373000  0.01915000  1.0 0.088543757
H  H119  1  0.72328000  0.46639000  0.91748000  1.0 0.0592627113
H  H120  1  0.80169000  0.40619000  0.88213000  1.0 0.0592627113
H  H121  1  0.76491000  0.63612000  0.75955000  1.0 0.088543757
H  H122  1  0.81267000  0.63218000  0.84746000  1.0 0.0703750332
H  H123  1  0.78448000  0.69170000  0.84325000  1.0 0.0798184731
H  H124  1  0.64999000  0.69874000  0.81346000  1.0 0.0798184731
H  H125  1  0.54184000  0.66252000  0.82887000  1.0 0.0979613489
H  H126  1  0.63023000  0.52776000  0.88308000  1.0 0.0979613489
H  H127  1  0.73840000  0.56399000  0.86769000  1.0 0.0511641243
H  H128  1  0.51724000  0.80459000  0.00563000  1.0 0.2024419789
H  H129  1  0.58142000  0.83568000  0.10211000  1.0 0.0592627113
H  H130  1  0.63797000  0.82277000  0.05826000  1.0 0.0511641243
H  H131  1  0.68230000  0.75368000  0.11030000  1.0 0.0511641243
H  H132  1  0.69045000  0.66211000  0.12285000  1.0 0.0798184731
H  H133  1  0.49590000  0.64458000  0.06977000  1.0 0.0798184731
H  H134  1  0.48777000  0.73620000  0.05731000  1.0 0.0703750332
H  H135  1  0.48730000  0.60699000  0.59408000  1.0 0.0798184731
H  H136  1  0.42939000  0.61991000  0.55127000  1.0 0.0798184731
H  H137  1  0.45739000  0.63212000  0.45772000  1.0 0.0798184731
H  H138  1  0.53422000  0.62539000  0.43764000  1.0 0.0798184731
H  H139  1  0.62889000  0.59919000  0.50091000  1.0 0.0798184731
H  H140  1  0.61307000  0.59138000  0.56225000  1.0 0.0798184731
H  H141  1  0.53580000  0.69261000  0.49773000  1.0 0.2024419789
H  H142  1  0.59949000  0.68141000  0.59492000  1.0 0.0511641243
H  H143  1  0.51844000  0.68466000  0.60747000  1.0 0.0592627113
H  H144  1  0.65241000  0.76593000  0.59311000  1.0 0.0592627113
H  H145  1  0.65088000  0.85853000  0.58990000  1.0 0.0703750332
H  H146  1  0.45499000  0.85482000  0.53716000  1.0 0.0798184731
H  H147  1  0.45653000  0.76222000  0.54029000  1.0 0.0511641243
H  H148  1  0.21311000  0.18454000  0.81638000  1.0 0.088543757
H  H149  1  0.16684000  0.13259000  0.81146000  1.0 0.088543757
H  H150  1  0.15195000  0.24631000  0.69640000  1.0 0.088543757
H  H151  1  0.20605000  0.25467000  0.74310000  1.0 0.088543757
H  H152  1  0.08474000  0.12203000  0.73694000  1.0 0.0798184731
H  H153  1  0.08036000  0.16599000  0.69176000  1.0 0.0798184731
H  H154  1  0.24324000  0.17390000  0.70986000  1.0 0.0798184731
H  H155  1  0.20205000  0.08528000  0.74445000  1.0 0.0798184731
H  H156  1  0.16470000  0.09690000  0.68939000  1.0 0.0703750332
H  H157  1  0.33982000  0.12139000  0.72723000  1.0 0.0703750332
H  H158  1  0.43635000  0.09459000  0.68011000  1.0 0.0798184731
H  H159  1  0.31510000  0.01350000  0.57809000  1.0 0.0798184731
H  H160  1  0.21854000  0.04036000  0.62519000  1.0 0.0511641243
H  H161  1  0.88367000  0.27763000  0.37079000  1.0 0.0798184731
H  H162  1  0.93556000  0.26928000  0.41901000  1.0 0.0798184731
H  H163  1  0.00934000  0.18501000  0.42588000  1.0 0.0798184731
H  H164  1  0.00659000  0.14315000  0.37851000  1.0 0.0798184731
H  H165  1  0.92868000  0.15502000  0.30684000  1.0 0.088543757
H  H166  1  0.87889000  0.20480000  0.30040000  1.0 0.088543757
H  H167  1  0.89648000  0.15716000  0.42276000  1.0 0.147122217
H  H168  1  0.80920000  0.16703000  0.34616000  1.0 0.0592627113
H  H169  1  0.80632000  0.22231000  0.37661000  1.0 0.0703750332
H  H170  1  0.68803000  0.21510000  0.40429000  1.0 0.0798184731
H  H171  1  0.60907000  0.17201000  0.45839000  1.0 0.0511641243
H  H172  1  0.75010000  0.05922000  0.49232000  1.0 0.0979613489
H  H173  1  0.82903000  0.10233000  0.43823000  1.0 0.0511641243
H  H174  1  0.60082000  0.83206000  0.46081000  1.0 0.0798184731
H  H175  1  0.70379000  0.92022000  0.48717000  1.0 0.088543757
H  H176  1  0.75097000  0.87823000  0.51767000  1.0 0.0703750332
H  H177  1  0.76208000  0.88877000  0.45605000  1.0 0.0703750332
H  H178  1  0.75729000  0.80609000  0.47155000  1.0 0.0511641243
H  H179  1  0.68727000  0.78428000  0.49569000  1.0 0.0703750332
H  H180  1  0.69367000  0.79363000  0.43346000  1.0 0.088543757
H  H181  1  0.89802000  0.14641000  0.40722000  1.0 0.147122217
H  H182  1  0.79943000  0.20615000  0.37761000  1.0 0.0592627113
H  H183  1  0.82502000  0.22012000  0.43552000  1.0 0.088543757
H  H184  1  0.73569000  0.20647000  0.48380000  1.0 0.0703750332
H  H185  1  0.65729000  0.14627000  0.51915000  1.0 0.088543757
H  H186  1  0.72328000  0.03361000  0.41748000  1.0 0.0592627113
H  H187  1  0.80169000  0.09381000  0.38213000  1.0 0.0592627113
H  H188  1  0.76491000  0.86388000  0.25955000  1.0 0.088543757
H  H189  1  0.81267000  0.86782000  0.34746000  1.0 0.0703750332
H  H190  1  0.78448000  0.80830000  0.34325000  1.0 0.0798184731
H  H191  1  0.64999000  0.80126000  0.31346000  1.0 0.0798184731
H  H192  1  0.54184000  0.83748000  0.32887000  1.0 0.0979613489
H  H193  1  0.63023000  0.97224000  0.38308000  1.0 0.0979613489
H  H194  1  0.73840000  0.93601000  0.36769000  1.0 0.0511641243
H  H195  1  0.51724000  0.69541000  0.50563000  1.0 0.2024419789
H  H196  1  0.58142000  0.66432000  0.60211000  1.0 0.0592627113
H  H197  1  0.63797000  0.67723000  0.55826000  1.0 0.0511641243
H  H198  1  0.68230000  0.74632000  0.61030000  1.0 0.0511641243
H  H199  1  0.69045000  0.83789000  0.62285000  1.0 0.0798184731
H  H200  1  0.49590000  0.85542000  0.56977000  1.0 0.0798184731
H  H201  1  0.48777000  0.76380000  0.55731000  1.0 0.0703750332
H  H202  1  0.51270000  0.10699000  0.90592000  1.0 0.0798184731
H  H203  1  0.57061000  0.11991000  0.94873000  1.0 0.0798184731
H  H204  1  0.54261000  0.13212000  0.04228000  1.0 0.0798184731
H  H205  1  0.46578000  0.12539000  0.06236000  1.0 0.0798184731
H  H206  1  0.37111000  0.09919000  0.99909000  1.0 0.0798184731
H  H207  1  0.38693000  0.09138000  0.93775000  1.0 0.0798184731
H  H208  1  0.46420000  0.19261000  0.00227000  1.0 0.2024419789
H  H209  1  0.40051000  0.18141000  0.90508000  1.0 0.0511641243
H  H210  1  0.48156000  0.18466000  0.89253000  1.0 0.0592627113
H  H211  1  0.34759000  0.26593000  0.90689000  1.0 0.0592627113
H  H212  1  0.34912000  0.35853000  0.91010000  1.0 0.0703750332
H  H213  1  0.54501000  0.35482000  0.96284000  1.0 0.0798184731
H  H214  1  0.54347000  0.26222000  0.95971000  1.0 0.0511641243
H  H215  1  0.78689000  0.68454000  0.68362000  1.0 0.088543757
H  H216  1  0.83316000  0.63259000  0.68854000  1.0 0.088543757
H  H217  1  0.84805000  0.74631000  0.80360000  1.0 0.088543757
H  H218  1  0.79395000  0.75467000  0.75690000  1.0 0.088543757
H  H219  1  0.91526000  0.62203000  0.76306000  1.0 0.0798184731
H  H220  1  0.91964000  0.66599000  0.80824000  1.0 0.0798184731
H  H221  1  0.75676000  0.67390000  0.79014000  1.0 0.0703750332
H  H222  1  0.79795000  0.58528000  0.75555000  1.0 0.0798184731
H  H223  1  0.83530000  0.59690000  0.81061000  1.0 0.0703750332
H  H224  1  0.66018000  0.62139000  0.77277000  1.0 0.0703750332
H  H225  1  0.56365000  0.59459000  0.81989000  1.0 0.0798184731
H  H226  1  0.68490000  0.51350000  0.92191000  1.0 0.0798184731
H  H227  1  0.78146000  0.54036000  0.87481000  1.0 0.0511641243
H  H228  1  0.11633000  0.77763000  0.12921000  1.0 0.0798184731
H  H229  1  0.06444000  0.76928000  0.08099000  1.0 0.0798184731
H  H230  1  0.99066000  0.68501000  0.07412000  1.0 0.0798184731
H  H231  1  0.99341000  0.64315000  0.12149000  1.0 0.0798184731
H  H232  1  0.07132000  0.65502000  0.19316000  1.0 0.088543757
H  H233  1  0.12111000  0.70480000  0.19960000  1.0 0.088543757
H  H234  1  0.10352000  0.65716000  0.07724000  1.0 0.147122217
H  H235  1  0.19080000  0.66703000  0.15384000  1.0 0.0592627113
H  H236  1  0.19368000  0.72231000  0.12339000  1.0 0.0703750332
H  H237  1  0.31197000  0.71510000  0.09571000  1.0 0.0798184731
H  H238  1  0.39093000  0.67201000  0.04161000  1.0 0.0511641243
H  H239  1  0.24990000  0.55922000  0.00768000  1.0 0.0979613489
H  H240  1  0.17097000  0.60233000  0.06177000  1.0 0.0511641243
H  H241  1  0.39918000  0.33206000  0.03919000  1.0 0.0798184731
H  H242  1  0.29621000  0.42022000  0.01283000  1.0 0.088543757
H  H243  1  0.24903000  0.37823000  0.98233000  1.0 0.0703750332
H  H244  1  0.23792000  0.38877000  0.04395000  1.0 0.0703750332
H  H245  1  0.24271000  0.30609000  0.02845000  1.0 0.0511641243
H  H246  1  0.31273000  0.28428000  0.00431000  1.0 0.0703750332
H  H247  1  0.30633000  0.29363000  0.06654000  1.0 0.088543757
H  H248  1  0.10198000  0.64641000  0.09278000  1.0 0.147122217
H  H249  1  0.20057000  0.70615000  0.12239000  1.0 0.0592627113
H  H250  1  0.17498000  0.72012000  0.06448000  1.0 0.088543757
H  H251  1  0.26431000  0.70647000  0.01620000  1.0 0.0703750332
H  H252  1  0.34271000  0.64627000  0.98085000  1.0 0.088543757
H  H253  1  0.27672000  0.53361000  0.08252000  1.0 0.0592627113
H  H254  1  0.19831000  0.59381000  0.11787000  1.0 0.0592627113
H  H255  1  0.23509000  0.36388000  0.24045000  1.0 0.088543757
H  H256  1  0.18733000  0.36782000  0.15254000  1.0 0.0703750332
H  H257  1  0.21552000  0.30830000  0.15675000  1.0 0.0798184731
H  H258  1  0.35001000  0.30126000  0.18654000  1.0 0.0798184731
H  H259  1  0.45816000  0.33748000  0.17113000  1.0 0.088543757
H  H260  1  0.36977000  0.47224000  0.11692000  1.0 0.0979613489
H  H261  1  0.26160000  0.43601000  0.13231000  1.0 0.0511641243
H  H262  1  0.48276000  0.19541000  0.99437000  1.0 0.2024419789
H  H263  1  0.41858000  0.16432000  0.89789000  1.0 0.0592627113
H  H264  1  0.36203000  0.17723000  0.94174000  1.0 0.0511641243
H  H265  1  0.31770000  0.24632000  0.88970000  1.0 0.0511641243
H  H266  1  0.30955000  0.33789000  0.87715000  1.0 0.0798184731
H  H267  1  0.50410000  0.35542000  0.93023000  1.0 0.0798184731
H  H268  1  0.51223000  0.26380000  0.94269000  1.0 0.0703750332
C  C1  1  0.47470000  0.38700000  0.48130000  1.0 0.0979613489
C  C2  1  0.52950000  0.40200000  0.44170000  1.0 -0.1104842711
C  C3  1  0.50100000  0.39000000  0.53900000  1.0 -0.1104842711
C  C4  1  0.40430000  0.41580000  0.47380000  1.0 -0.1104842711
C  C5  1  0.44560000  0.30640000  0.41840000  1.0 -0.1206577096
C  C6  1  0.44540000  0.24460000  0.43300000  1.0 -0.029613719
C  C7  1  0.38770000  0.21600000  0.41830000  1.0 -0.0399222708
C  C8  1  0.38860000  0.16100000  0.42020000  1.0 -0.0493783691
C  C9  1  0.44720000  0.13460000  0.43680000  1.0 -0.0594797791
C  C10  1  0.50490000  0.16320000  0.45150000  1.0 -0.1298114468
C  C11  1  0.50400000  0.21820000  0.44960000  1.0 -0.1392537899
C  C12  1  0.44300000  0.07960000  0.44730000  1.0 -0.0784767249
C  C13  1  0.84620000  0.81620000  0.25100000  1.0 0.0703750332
C  C14  1  0.83310000  0.82850000  0.19320000  1.0 -0.1298114468
C  C15  1  0.84100000  0.75750000  0.26510000  1.0 -0.1104842711
C  C16  1  0.91560000  0.83930000  0.26960000  1.0 -0.097592736
C  C17  1  0.79390000  0.89530000  0.28930000  1.0 -0.1298114468
C  C18  1  0.72980000  0.91660000  0.31940000  1.0 -0.0493783691
C  C19  1  0.66520000  0.90050000  0.30300000  1.0 -0.1104842711
C  C20  1  0.60790000  0.91640000  0.33100000  1.0 -0.0493783691
C  C21  1  0.61520000  0.94850000  0.37530000  1.0 -0.029613719
C  C22  1  0.67990000  0.96460000  0.39160000  1.0 -0.1469062511
C  C23  1  0.73720000  0.94860000  0.36370000  1.0 -0.1104842711
C  C24  1  0.54900000  0.96660000  0.40540000  1.0 -0.0594797791
C  C25  1  0.06350000  0.79260000  0.63370000  1.0 0.0703750332
C  C26  1  0.06970000  0.73450000  0.61970000  1.0 -0.1206577096
C  C27  1  0.99330000  0.81860000  0.61300000  1.0 -0.1104842711
C  C28  1  0.07420000  0.80600000  0.68930000  1.0 -0.1392537899
C  C29  1  0.18440000  0.81600000  0.61890000  1.0 -0.1206577096
C  C30  1  0.23400000  0.83720000  0.58380000  1.0 0.0077295472
C  C31  1  0.29930000  0.81660000  0.57780000  1.0 -0.181392886
C  C32  1  0.34620000  0.84220000  0.54570000  1.0 -0.1298114468
C  C33  1  0.32780000  0.88850000  0.51960000  1.0 0.0077295472
C  C34  1  0.26250000  0.90910000  0.52550000  1.0 -0.0399222708
C  C35  1  0.21570000  0.88350000  0.55770000  1.0 -0.0715705485
C  C36  1  0.38240000  0.91630000  0.48750000  1.0 0.2764098008
C  C37  1  0.37280000  0.13810000  0.52880000  1.0 0.0379691158
C  C38  1  0.27200000  0.11360000  0.51600000  1.0 -0.2428143959
C  C39  1  0.29270000  0.19320000  0.53170000  1.0 -0.2595905602
C  C40  1  0.17880000  0.80910000  0.59040000  1.0 -0.1206577096
C  C41  1  0.26680000  0.82860000  0.52970000  1.0 -0.0594797791
C  C42  1  0.31340000  0.86440000  0.50870000  1.0 -0.0399222708
C  C43  1  0.31710000  0.91570000  0.52840000  1.0 0.0379691158
C  C44  1  0.27420000  0.93130000  0.56910000  1.0 -0.1392537899
C  C45  1  0.22760000  0.89550000  0.59010000  1.0 -0.1206577096
C  C46  1  0.22390000  0.84420000  0.57040000  1.0 0.0077295472
C  C47  1  0.36500000  0.96080000  0.51010000  1.0 -0.1298114468
C  C48  1  0.22050000  0.15540000  0.67110000  1.0 -0.1206577096
C  C49  1  0.29570000  0.13480000  0.66090000  1.0 -0.0594797791
C  C50  1  0.35400000  0.16400000  0.67240000  1.0 -0.2533392037
C  C51  1  0.41820000  0.14250000  0.66320000  1.0 -0.1469062511
C  C52  1  0.42410000  0.09170000  0.64260000  1.0 -0.0784767249
C  C53  1  0.36580000  0.06250000  0.63100000  1.0 -0.0493783691
C  C54  1  0.30160000  0.08400000  0.64020000  1.0 0.0077295472
C  C55  1  0.49640000  0.06610000  0.63020000  1.0 0.3121423942
C  C56  1  0.40900000  0.31460000  0.42990000  1.0 -0.1392537899
C  C57  1  0.41570000  0.25350000  0.41740000  1.0 -0.016646929
C  C58  1  0.35560000  0.23150000  0.39790000  1.0 -0.1298114468
C  C59  1  0.35070000  0.17710000  0.39050000  1.0 -0.1206577096
C  C60  1  0.40610000  0.14470000  0.40250000  1.0 -0.0493783691
C  C61  1  0.46620000  0.16670000  0.42200000  1.0 -0.0087741598
C  C62  1  0.47100000  0.22110000  0.42940000  1.0 -0.0594797791
C  C63  1  0.39830000  0.08920000  0.39820000  1.0 0.3121423942
C  C64  1  0.52530000  0.88700000  0.01870000  1.0 0.0979613489
C  C65  1  0.47050000  0.90200000  0.05830000  1.0 -0.1104842711
C  C66  1  0.49900000  0.89000000  0.96100000  1.0 -0.1104842711
C  C67  1  0.59570000  0.91580000  0.02620000  1.0 -0.1104842711
C  C68  1  0.55440000  0.80640000  0.08160000  1.0 -0.1206577096
C  C69  1  0.55460000  0.74460000  0.06700000  1.0 -0.029613719
C  C70  1  0.61230000  0.71600000  0.08170000  1.0 -0.0399222708
C  C71  1  0.61140000  0.66100000  0.07980000  1.0 -0.0493783691
C  C72  1  0.55280000  0.63460000  0.06320000  1.0 -0.0594797791
C  C73  1  0.49510000  0.66320000  0.04850000  1.0 -0.1298114468
C  C74  1  0.49600000  0.71820000  0.05040000  1.0 -0.1392537899
C  C75  1  0.55700000  0.57960000  0.05270000  1.0 -0.0784767249
C  C76  1  0.15380000  0.31620000  0.24900000  1.0 0.0703750332
C  C77  1  0.16690000  0.32850000  0.30680000  1.0 -0.1298114468
C  C78  1  0.15900000  0.25750000  0.23490000  1.0 -0.1104842711
C  C79  1  0.08440000  0.33930000  0.23040000  1.0 -0.097592736
C  C80  1  0.20610000  0.39530000  0.21070000  1.0 -0.1298114468
C  C81  1  0.27020000  0.41660000  0.18060000  1.0 -0.0493783691
C  C82  1  0.33480000  0.40050000  0.19700000  1.0 -0.1104842711
C  C83  1  0.39210000  0.41640000  0.16900000  1.0 -0.0493783691
C  C84  1  0.38480000  0.44850000  0.12470000  1.0 -0.029613719
C  C85  1  0.32010000  0.46460000  0.10840000  1.0 -0.1469062511
C  C86  1  0.26280000  0.44860000  0.13630000  1.0 -0.1104842711
C  C87  1  0.45100000  0.46660000  0.09460000  1.0 -0.0594797791
C  C88  1  0.93650000  0.29260000  0.86630000  1.0 0.0703750332
C  C89  1  0.93030000  0.23450000  0.88030000  1.0 -0.1206577096
C  C90  1  0.00670000  0.31860000  0.88700000  1.0 -0.1104842711
C  C91  1  0.92580000  0.30600000  0.81070000  1.0 -0.1392537899
C  C92  1  0.81560000  0.31600000  0.88110000  1.0 -0.1206577096
C  C93  1  0.76600000  0.33720000  0.91620000  1.0 0.0077295472
C  C94  1  0.70070000  0.31660000  0.92220000  1.0 -0.181392886
C  C95  1  0.65380000  0.34220000  0.95430000  1.0 -0.1298114468
C  C96  1  0.67220000  0.38850000  0.98040000  1.0 0.0077295472
C  C97  1  0.73750000  0.40910000  0.97450000  1.0 -0.0399222708
C  C98  1  0.78430000  0.38350000  0.94230000  1.0 -0.0715705485
C  C99  1  0.61760000  0.41630000  0.01250000  1.0 0.2764098008
C  C100  1  0.62720000  0.63810000  0.97120000  1.0 0.0379691158
C  C101  1  0.72800000  0.61360000  0.98400000  1.0 -0.2428143959
C  C102  1  0.70730000  0.69320000  0.96830000  1.0 -0.2595905602
C  C103  1  0.82120000  0.30910000  0.90960000  1.0 -0.1206577096
C  C104  1  0.73320000  0.32860000  0.97030000  1.0 -0.0594797791
C  C105  1  0.68660000  0.36440000  0.99130000  1.0 -0.0399222708
C  C106  1  0.68290000  0.41570000  0.97160000  1.0 0.0379691158
C  C107  1  0.72580000  0.43130000  0.93090000  1.0 -0.1392537899
C  C108  1  0.77240000  0.39550000  0.90990000  1.0 -0.1206577096
C  C109  1  0.77610000  0.34420000  0.92960000  1.0 0.0077295472
C  C110  1  0.63500000  0.46080000  0.98990000  1.0 -0.1298114468
C  C111  1  0.77950000  0.65540000  0.82890000  1.0 -0.1206577096
C  C112  1  0.70430000  0.63480000  0.83910000  1.0 -0.0594797791
C  C113  1  0.64600000  0.66400000  0.82760000  1.0 -0.2533392037
C  C114  1  0.58180000  0.64250000  0.83680000  1.0 -0.1469062511
C  C115  1  0.57590000  0.59170000  0.85740000  1.0 -0.0784767249
C  C116  1  0.63420000  0.56250000  0.86900000  1.0 -0.0493783691
C  C117  1  0.69840000  0.58400000  0.85980000  1.0 0.0077295472
C  C118  1  0.50360000  0.56610000  0.86980000  1.0 0.3121423942
C  C119  1  0.59100000  0.81460000  0.07010000  1.0 -0.1392537899
C  C120  1  0.58430000  0.75350000  0.08260000  1.0 -0.016646929
C  C121  1  0.64440000  0.73150000  0.10210000  1.0 -0.1298114468
C  C122  1  0.64930000  0.67710000  0.10950000  1.0 -0.1206577096
C  C123  1  0.59390000  0.64470000  0.09750000  1.0 -0.0493783691
C  C124  1  0.53380000  0.66666667  0.07800000  1.0 -0.0087741598
C  C125  1  0.52900000  0.72110000  0.07060000  1.0 -0.0594797791
C  C126  1  0.60170000  0.58920000  0.10180000  1.0 0.3121423942
C  C127  1  0.52530000  0.61300000  0.51870000  1.0 0.0979613489
C  C128  1  0.47050000  0.59800000  0.55830000  1.0 -0.1104842711
C  C129  1  0.49900000  0.61000000  0.46100000  1.0 -0.1104842711
C  C130  1  0.59570000  0.58420000  0.52620000  1.0 -0.1104842711
C  C131  1  0.55440000  0.69360000  0.58160000  1.0 -0.1206577096
C  C132  1  0.55460000  0.75540000  0.56700000  1.0 -0.029613719
C  C133  1  0.61230000  0.78400000  0.58170000  1.0 -0.0399222708
C  C134  1  0.61140000  0.83900000  0.57980000  1.0 -0.0493783691
C  C135  1  0.55280000  0.86540000  0.56320000  1.0 -0.0594797791
C  C136  1  0.49510000  0.83680000  0.54850000  1.0 -0.1298114468
C  C137  1  0.49600000  0.78180000  0.55040000  1.0 -0.1392537899
C  C138  1  0.55700000  0.92040000  0.55270000  1.0 -0.0784767249
C  C139  1  0.15380000  0.18380000  0.74900000  1.0 0.0703750332
C  C140  1  0.16690000  0.17150000  0.80680000  1.0 -0.1298114468
C  C141  1  0.15900000  0.24250000  0.73490000  1.0 -0.1104842711
C  C142  1  0.08440000  0.16070000  0.73040000  1.0 -0.097592736
C  C143  1  0.20610000  0.10470000  0.71070000  1.0 -0.1298114468
C  C144  1  0.27020000  0.08340000  0.68060000  1.0 -0.0493783691
C  C145  1  0.33480000  0.09950000  0.69700000  1.0 -0.1104842711
C  C146  1  0.39210000  0.08360000  0.66900000  1.0 -0.0493783691
C  C147  1  0.38480000  0.05150000  0.62470000  1.0 -0.029613719
C  C148  1  0.32010000  0.03540000  0.60840000  1.0 -0.1469062511
C  C149  1  0.26280000  0.05140000  0.63630000  1.0 -0.1104842711
C  C150  1  0.45100000  0.03340000  0.59460000  1.0 -0.0594797791
C  C151  1  0.93650000  0.20740000  0.36630000  1.0 0.0703750332
C  C152  1  0.93030000  0.26550000  0.38030000  1.0 -0.1206577096
C  C153  1  0.00670000  0.18140000  0.38700000  1.0 -0.1104842711
C  C154  1  0.92580000  0.19400000  0.31070000  1.0 -0.1392537899
C  C155  1  0.81560000  0.18400000  0.38110000  1.0 -0.1206577096
C  C156  1  0.76600000  0.16280000  0.41620000  1.0 0.0077295472
C  C157  1  0.70070000  0.18340000  0.42220000  1.0 -0.181392886
C  C158  1  0.65380000  0.15780000  0.45430000  1.0 -0.1298114468
C  C159  1  0.67220000  0.11150000  0.48040000  1.0 0.0077295472
C  C160  1  0.73750000  0.09090000  0.47450000  1.0 -0.0399222708
C  C161  1  0.78430000  0.11650000  0.44230000  1.0 -0.0715705485
C  C162  1  0.61760000  0.08370000  0.51250000  1.0 0.2764098008
C  C163  1  0.62720000  0.86190000  0.47120000  1.0 0.0379691158
C  C164  1  0.72800000  0.88640000  0.48400000  1.0 -0.2428143959
C  C165  1  0.70730000  0.80680000  0.46830000  1.0 -0.2595905602
C  C166  1  0.82120000  0.19090000  0.40960000  1.0 -0.1206577096
C  C167  1  0.73320000  0.17140000  0.47030000  1.0 -0.0594797791
C  C168  1  0.68660000  0.13560000  0.49130000  1.0 -0.0399222708
C  C169  1  0.68290000  0.08430000  0.47160000  1.0 0.0379691158
C  C170  1  0.72580000  0.06870000  0.43090000  1.0 -0.1392537899
C  C171  1  0.77240000  0.10450000  0.40990000  1.0 -0.1206577096
C  C172  1  0.77610000  0.15580000  0.42960000  1.0 0.0077295472
C  C173  1  0.63500000  0.03920000  0.48990000  1.0 -0.1298114468
C  C174  1  0.77950000  0.84460000  0.32890000  1.0 -0.1206577096
C  C175  1  0.70430000  0.86520000  0.33910000  1.0 -0.0594797791
C  C176  1  0.64600000  0.83600000  0.32760000  1.0 -0.2533392037
C  C177  1  0.58180000  0.85750000  0.33680000  1.0 -0.1469062511
C  C178  1  0.57590000  0.90830000  0.35740000  1.0 -0.0784767249
C  C179  1  0.63420000  0.93750000  0.36900000  1.0 -0.0493783691
C  C180  1  0.69840000  0.91600000  0.35980000  1.0 0.0077295472
C  C181  1  0.50360000  0.93390000  0.36980000  1.0 0.3121423942
C  C182  1  0.59100000  0.68540000  0.57010000  1.0 -0.1392537899
C  C183  1  0.58430000  0.74650000  0.58260000  1.0 -0.016646929
C  C184  1  0.64440000  0.76850000  0.60210000  1.0 -0.1298114468
C  C185  1  0.64930000  0.82290000  0.60950000  1.0 -0.1206577096
C  C186  1  0.59390000  0.85530000  0.59750000  1.0 -0.0493783691
C  C187  1  0.53380000  0.83330000  0.57800000  1.0 -0.0087741598
C  C188  1  0.52900000  0.77890000  0.57060000  1.0 -0.0594797791
C  C189  1  0.60170000  0.91080000  0.60180000  1.0 0.3121423942
C  C190  1  0.47470000  0.11300000  0.98130000  1.0 0.0979613489
C  C191  1  0.52950000  0.09800000  0.94170000  1.0 -0.1104842711
C  C192  1  0.50100000  0.11000000  0.03900000  1.0 -0.1104842711
C  C193  1  0.40430000  0.08420000  0.97380000  1.0 -0.1104842711
C  C194  1  0.44560000  0.19360000  0.91840000  1.0 -0.1206577096
C  C195  1  0.44540000  0.25540000  0.93300000  1.0 -0.029613719
C  C196  1  0.38770000  0.28400000  0.91830000  1.0 -0.0399222708
C  C197  1  0.38860000  0.33900000  0.92020000  1.0 -0.0493783691
C  C198  1  0.44720000  0.36540000  0.93680000  1.0 -0.0594797791
C  C199  1  0.50490000  0.33680000  0.95150000  1.0 -0.1298114468
C  C200  1  0.50400000  0.28180000  0.94960000  1.0 -0.1392537899
C  C201  1  0.44300000  0.42040000  0.94730000  1.0 -0.0784767249
C  C202  1  0.84620000  0.68380000  0.75100000  1.0 0.0703750332
C  C203  1  0.83310000  0.67150000  0.69320000  1.0 -0.1298114468
C  C204  1  0.84100000  0.74250000  0.76510000  1.0 -0.1104842711
C  C205  1  0.91560000  0.66070000  0.76960000  1.0 -0.097592736
C  C206  1  0.79390000  0.60470000  0.78930000  1.0 -0.1298114468
C  C207  1  0.72980000  0.58340000  0.81940000  1.0 -0.0493783691
C  C208  1  0.66520000  0.59950000  0.80300000  1.0 -0.1104842711
C  C209  1  0.60790000  0.58360000  0.83100000  1.0 -0.0493783691
C  C210  1  0.61520000  0.55150000  0.87530000  1.0 -0.029613719
C  C211  1  0.67990000  0.53540000  0.89160000  1.0 -0.1469062511
C  C212  1  0.73720000  0.55140000  0.86370000  1.0 -0.1104842711
C  C213  1  0.54900000  0.53340000  0.90540000  1.0 -0.0594797791
C  C214  1  0.06350000  0.70740000  0.13370000  1.0 0.0703750332
C  C215  1  0.06970000  0.76550000  0.11970000  1.0 -0.1206577096
C  C216  1  0.99330000  0.68140000  0.11300000  1.0 -0.1104842711
C  C217  1  0.07420000  0.69400000  0.18930000  1.0 -0.1392537899
C  C218  1  0.18440000  0.68400000  0.11890000  1.0 -0.1206577096
C  C219  1  0.23400000  0.66280000  0.08380000  1.0 0.0077295472
C  C220  1  0.29930000  0.68340000  0.07780000  1.0 -0.181392886
C  C221  1  0.34620000  0.65780000  0.04570000  1.0 -0.1298114468
C  C222  1  0.32780000  0.61150000  0.01960000  1.0 0.0077295472
C  C223  1  0.26250000  0.59090000  0.02550000  1.0 -0.0399222708
C  C224  1  0.21570000  0.61650000  0.05770000  1.0 -0.0715705485
C  C225  1  0.38240000  0.58370000  0.98750000  1.0 0.2764098008
C  C226  1  0.37280000  0.36190000  0.02880000  1.0 0.0379691158
C  C227  1  0.27200000  0.38640000  0.01600000  1.0 -0.2428143959
C  C228  1  0.29270000  0.30680000  0.03170000  1.0 -0.2595905602
C  C229  1  0.17880000  0.69090000  0.09040000  1.0 -0.1206577096
C  C230  1  0.26680000  0.67140000  0.02970000  1.0 -0.0594797791
C  C231  1  0.31340000  0.63560000  0.00870000  1.0 -0.0399222708
C  C232  1  0.31710000  0.58430000  0.02840000  1.0 0.0379691158
C  C233  1  0.27420000  0.56870000  0.06910000  1.0 -0.1392537899
C  C234  1  0.22760000  0.60450000  0.09010000  1.0 -0.1206577096
C  C235  1  0.22390000  0.65580000  0.07040000  1.0 0.0077295472
C  C236  1  0.36500000  0.53920000  0.01010000  1.0 -0.1298114468
C  C237  1  0.22050000  0.34460000  0.17110000  1.0 -0.1206577096
C  C238  1  0.29570000  0.36520000  0.16090000  1.0 -0.0594797791
C  C239  1  0.35400000  0.33600000  0.17240000  1.0 -0.2533392037
C  C240  1  0.41820000  0.35750000  0.16320000  1.0 -0.1392537899
C  C241  1  0.42410000  0.40830000  0.14260000  1.0 -0.0784767249
C  C242  1  0.36580000  0.43750000  0.13100000  1.0 -0.0493783691
C  C243  1  0.30160000  0.41600000  0.14020000  1.0 0.0077295472
C  C244  1  0.49640000  0.43390000  0.13020000  1.0 0.3121423942
C  C245  1  0.40900000  0.18540000  0.92990000  1.0 -0.1392537899
C  C246  1  0.41570000  0.24650000  0.91740000  1.0 -0.016646929
C  C247  1  0.35560000  0.26850000  0.89790000  1.0 -0.1298114468
C  C248  1  0.35070000  0.32290000  0.89050000  1.0 -0.1206577096
C  C249  1  0.40610000  0.35530000  0.90250000  1.0 -0.0493783691
C  C250  1  0.46620000  0.33333333  0.92200000  1.0 -0.0087741598
C  C251  1  0.47100000  0.27890000  0.92940000  1.0 -0.0594797791
C  C252  1  0.39830000  0.41080000  0.89820000  1.0 0.3121423942
N  N1  1  0.46220000  0.32870000  0.47480000  1.0 -0.2533392037
N  N2  1  0.79230000  0.84440000  0.27930000  1.0 -0.1104842711
N  N3  1  0.11530000  0.82210000  0.60370000  1.0 -0.2191473472
N  N4  1  0.31270000  0.14850000  0.52630000  1.0 -0.0493783691
N  N5  1  0.53780000  0.82870000  0.02520000  1.0 -0.2533392037
N  N6  1  0.20770000  0.34440000  0.22070000  1.0 -0.1104842711
N  N7  1  0.88470000  0.32210000  0.89630000  1.0 -0.2191473472
N  N8  1  0.68730000  0.64850000  0.97370000  1.0 -0.0493783691
N  N9  1  0.53780000  0.67130000  0.52520000  1.0 -0.2595905602
N  N10  1  0.20770000  0.15560000  0.72070000  1.0 -0.1104842711
N  N11  1  0.88470000  0.17790000  0.39630000  1.0 -0.2191473472
N  N12  1  0.68730000  0.85150000  0.47370000  1.0 -0.0493783691
N  N13  1  0.46220000  0.17130000  0.97480000  1.0 -0.2533392037
N  N14  1  0.79230000  0.65560000  0.77930000  1.0 -0.1104842711
N  N15  1  0.11530000  0.67790000  0.10370000  1.0 -0.2191473472
N  N16  1  0.31270000  0.35150000  0.02630000  1.0 -0.0493783691
O  O1  1  0.54940000  0.45620000  0.44210000  1.0 -0.6402182694
O  O2  1  0.51680000  0.44290000  0.55720000  1.0 -0.6522820707
O  O3  1  0.40830000  0.47210000  0.48150000  1.0 -0.6402182694
O  O4  1  0.39290000  0.06020000  0.42550000  1.0 -0.0784767249
O  O5  1  0.49110000  0.05530000  0.46870000  1.0 -0.26583045
O  O6  1  0.64340000  0.43530000  0.51720000  1.0 -0.9735054638
O  O7  1  0.55740000  0.50760000  0.62340000  1.0 -0.9335475977
O  O8  1  0.61870000  0.53170000  0.41090000  1.0 -0.9404029439
O  O9  1  0.72760000  0.51540000  0.48020000  1.0 -1.0007714744
O  O10  1  0.69610000  0.50630000  0.59340000  1.0 -1.0240902121
O  O11  1  0.88220000  0.80550000  0.15680000  1.0 -0.5987332727
O  O12  1  0.97290000  0.81800000  0.24610000  1.0 -0.5987332727
O  O13  1  0.88770000  0.72340000  0.23910000  1.0 -0.6099846999
O  O14  1  0.55840000  0.99860000  0.44080000  1.0 -0.2595905602
O  O15  1  0.49200000  0.95380000  0.38870000  1.0 0.0077295472
O  O16  1  0.02210000  0.70110000  0.64430000  1.0 -0.6335804726
O  O17  1  0.02620000  0.78180000  0.72600000  1.0 -0.6402182694
O  O18  1  0.93260000  0.79400000  0.63630000  1.0 -0.6099846999
O  O19  1  0.36410000  0.93120000  0.44240000  1.0 -0.2964622791
O  O20  1  0.44260000  0.90320000  0.50100000  1.0 -0.4958457093
O  O21  1  0.97590000  0.61110000  0.66130000  1.0 -0.9202361818
O  O22  1  0.10240000  0.68830000  0.73720000  1.0 -0.9404029439
O  O23  1  0.98220000  0.76680000  0.81690000  1.0 -0.9497022743
O  O24  1  0.93440000  0.86730000  0.71790000  1.0 -0.9202361818
O  O25  1  0.80660000  0.78830000  0.64770000  1.0 -0.8387042399
O  O26  1  0.92530000  0.71120000  0.56560000  1.0 -0.8608902211
O  O27  1  0.88420000  0.60580000  0.57890000  1.0 -1.0359910146
O  O28  1  0.40860000  0.09930000  0.52140000  1.0 -0.5351815636
O  O29  1  0.39100000  0.99090000  0.54520000  1.0 -0.2964622791
O  O30  1  0.38260000  0.95530000  0.46260000  1.0 -0.2257905084
O  O31  1  0.49610000  0.03640000  0.59300000  1.0 -0.1392537899
O  O32  1  0.54510000  0.08100000  0.65480000  1.0 -0.3740582481
O  O33  1  0.43690000  0.05770000  0.42080000  1.0 -0.1594029817
O  O34  1  0.35020000  0.07060000  0.37210000  1.0 -0.390850086
O  O35  1  0.45060000  0.95620000  0.05790000  1.0 -0.6402182694
O  O36  1  0.48320000  0.94290000  0.94280000  1.0 -0.6522820707
O  O37  1  0.59170000  0.97210000  0.01850000  1.0 -0.6402182694
O  O38  1  0.60710000  0.56020000  0.07450000  1.0 -0.0784767249
O  O39  1  0.50890000  0.55530000  0.03130000  1.0 -0.26583045
O  O40  1  0.35660000  0.93530000  0.98280000  1.0 -0.9735054638
O  O41  1  0.44260000  0.00760000  0.87660000  1.0 -0.9335475977
O  O42  1  0.38130000  0.03170000  0.08910000  1.0 -0.9404029439
O  O43  1  0.27240000  0.01540000  0.01980000  1.0 -1.0007714744
O  O44  1  0.30390000  0.00630000  0.90660000  1.0 -1.0240902121
O  O45  1  0.11780000  0.30550000  0.34320000  1.0 -0.5987332727
O  O46  1  0.02710000  0.31800000  0.25390000  1.0 -0.5987332727
O  O47  1  0.11230000  0.22340000  0.26090000  1.0 -0.6099846999
O  O48  1  0.44160000  0.49860000  0.05920000  1.0 -0.2533392037
O  O49  1  0.50800000  0.45380000  0.11130000  1.0 0.0031349265
O  O50  1  0.97790000  0.20110000  0.85570000  1.0 -0.6335804726
O  O51  1  0.97380000  0.28180000  0.77400000  1.0 -0.6402182694
O  O52  1  0.06740000  0.29400000  0.86370000  1.0 -0.6099846999
O  O53  1  0.63590000  0.43120000  0.05760000  1.0 -0.2964622791
O  O54  1  0.55740000  0.40320000  0.99900000  1.0 -0.4958457093
O  O55  1  0.02410000  0.11110000  0.83870000  1.0 -0.9202361818
O  O56  1  0.89760000  0.18830000  0.76280000  1.0 -0.9404029439
O  O57  1  0.01780000  0.26680000  0.68310000  1.0 -0.9497022743
O  O58  1  0.06560000  0.36730000  0.78210000  1.0 -0.9202361818
O  O59  1  0.19340000  0.28830000  0.85230000  1.0 -0.8387042399
O  O60  1  0.07470000  0.21120000  0.93440000  1.0 -0.8608902211
O  O61  1  0.11580000  0.10580000  0.92110000  1.0 -1.0359910146
O  O62  1  0.59140000  0.59930000  0.97860000  1.0 -0.5351815636
O  O63  1  0.60900000  0.49090000  0.95480000  1.0 -0.2964622791
O  O64  1  0.61740000  0.45530000  0.03740000  1.0 -0.2257905084
O  O65  1  0.50390000  0.53640000  0.90700000  1.0 -0.1392537899
O  O66  1  0.45490000  0.58100000  0.84520000  1.0 -0.3740582481
O  O67  1  0.56310000  0.55770000  0.07920000  1.0 -0.1594029817
O  O68  1  0.64980000  0.57060000  0.12790000  1.0 -0.390850086
O  O69  1  0.45060000  0.54380000  0.55790000  1.0 -0.6402182694
O  O70  1  0.48320000  0.55710000  0.44280000  1.0 -0.6522820707
O  O71  1  0.59170000  0.52790000  0.51850000  1.0 -0.6402182694
O  O72  1  0.60710000  0.93980000  0.57450000  1.0 -0.0855516161
O  O73  1  0.50890000  0.94470000  0.53130000  1.0 -0.26583045
O  O74  1  0.35660000  0.56470000  0.48280000  1.0 -0.9735054638
O  O75  1  0.44260000  0.49240000  0.37660000  1.0 -0.9335475977
O  O76  1  0.38130000  0.46830000  0.58910000  1.0 -0.9404029439
O  O77  1  0.27240000  0.48460000  0.51980000  1.0 -1.0007714744
O  O78  1  0.30390000  0.49370000  0.40660000  1.0 -1.0240902121
O  O79  1  0.11780000  0.19450000  0.84320000  1.0 -0.5987332727
O  O80  1  0.02710000  0.18200000  0.75390000  1.0 -0.5987332727
O  O81  1  0.11230000  0.27660000  0.76090000  1.0 -0.6099846999
O  O82  1  0.44160000  0.00140000  0.55920000  1.0 -0.2533392037
O  O83  1  0.50800000  0.04620000  0.61130000  1.0 0.0077295472
O  O84  1  0.97790000  0.29890000  0.35570000  1.0 -0.6335804726
O  O85  1  0.97380000  0.21820000  0.27400000  1.0 -0.6402182694
O  O86  1  0.06740000  0.20600000  0.36370000  1.0 -0.6099846999
O  O87  1  0.63590000  0.06880000  0.55760000  1.0 -0.2964622791
O  O88  1  0.55740000  0.09680000  0.49900000  1.0 -0.4958457093
O  O89  1  0.02410000  0.38890000  0.33870000  1.0 -0.9202361818
O  O90  1  0.89760000  0.31170000  0.26280000  1.0 -0.9404029439
O  O91  1  0.01780000  0.23320000  0.18310000  1.0 -0.9497022743
O  O92  1  0.06560000  0.13270000  0.28210000  1.0 -0.9202361818
O  O93  1  0.19340000  0.21170000  0.35230000  1.0 -0.8387042399
O  O94  1  0.07470000  0.28880000  0.43440000  1.0 -0.8608902211
O  O95  1  0.11580000  0.39420000  0.42110000  1.0 -1.0359910146
O  O96  1  0.59140000  0.90070000  0.47860000  1.0 -0.5351815636
O  O97  1  0.60900000  0.00910000  0.45480000  1.0 -0.2964622791
O  O98  1  0.61740000  0.04470000  0.53740000  1.0 -0.2257905084
O  O99  1  0.50390000  0.96360000  0.40700000  1.0 -0.1392537899
O  O100  1  0.45490000  0.91900000  0.34520000  1.0 -0.3759870346
O  O101  1  0.56310000  0.94230000  0.57920000  1.0 -0.1594029817
O  O102  1  0.64980000  0.92940000  0.62790000  1.0 -0.390850086
O  O103  1  0.54940000  0.04380000  0.94210000  1.0 -0.6402182694
O  O104  1  0.51680000  0.05710000  0.05720000  1.0 -0.6522820707
O  O105  1  0.40830000  0.02790000  0.98150000  1.0 -0.6402182694
O  O106  1  0.39290000  0.43980000  0.92550000  1.0 -0.0784767249
O  O107  1  0.49110000  0.44470000  0.96870000  1.0 -0.26583045
O  O108  1  0.64340000  0.06470000  0.01720000  1.0 -0.9735054638
O  O109  1  0.55740000  0.99240000  0.12340000  1.0 -0.9335475977
O  O110  1  0.61870000  0.96830000  0.91090000  1.0 -0.9404029439
O  O111  1  0.72760000  0.98460000  0.98020000  1.0 -1.0007714744
O  O112  1  0.69610000  0.99370000  0.09340000  1.0 -1.0240902121
O  O113  1  0.88220000  0.69450000  0.65680000  1.0 -0.5987332727
O  O114  1  0.97290000  0.68200000  0.74610000  1.0 -0.5987332727
O  O115  1  0.88770000  0.77660000  0.73910000  1.0 -0.6099846999
O  O116  1  0.55840000  0.50140000  0.94080000  1.0 -0.2533392037
O  O117  1  0.49200000  0.54620000  0.88870000  1.0 0.0077295472
O  O118  1  0.02210000  0.79890000  0.14430000  1.0 -0.6335804726
O  O119  1  0.02620000  0.71820000  0.22600000  1.0 -0.6402182694
O  O120  1  0.93260000  0.70600000  0.13630000  1.0 -0.6099846999
O  O121  1  0.36410000  0.56880000  0.94240000  1.0 -0.2964622791
O  O122  1  0.44260000  0.59680000  0.00100000  1.0 -0.4958457093
O  O123  1  0.97590000  0.88890000  0.16130000  1.0 -0.9202361818
O  O124  1  0.10240000  0.81170000  0.23720000  1.0 -0.9404029439
O  O125  1  0.98220000  0.73320000  0.31690000  1.0 -0.9497022743
O  O126  1  0.93440000  0.63270000  0.21790000  1.0 -0.9202361818
O  O127  1  0.80660000  0.71170000  0.14770000  1.0 -0.8387042399
O  O128  1  0.92530000  0.78880000  0.06560000  1.0 -0.8608902211
O  O129  1  0.88420000  0.89420000  0.07890000  1.0 -1.0279624279
O  O130  1  0.40860000  0.40070000  0.02140000  1.0 -0.5351815636
O  O131  1  0.39100000  0.50910000  0.04520000  1.0 -0.2964622791
O  O132  1  0.38260000  0.54470000  0.96260000  1.0 -0.2257905084
O  O133  1  0.49610000  0.46360000  0.09300000  1.0 -0.1392537899
O  O134  1  0.54510000  0.41900000  0.15480000  1.0 -0.3740582481
O  O135  1  0.43690000  0.44230000  0.92080000  1.0 -0.1594029817
O  O136  1  0.35020000  0.42940000  0.87210000  1.0 -0.390850086
