# DDEC6 charges by PACMAN v1.1 (https://github.com/mtap-research/PACMAN-charge/)
data_ISOLEK_ASR_pacman
_symmetry_space_group_name_H-M   'P 1'
_cell_length_a   35.20420000
_cell_length_b   35.20420000
_cell_length_c   35.20420000
_cell_angle_alpha   60.00000000
_cell_angle_beta   60.00000000
_cell_angle_gamma   60.00000000
_symmetry_Int_Tables_number   1
_chemical_formula_structural   AgPH19C20N3
_chemical_formula_sum   'Ag48 P48 H912 C960 N144'
_cell_volume   30850.94283331
_cell_formula_units_Z   48
loop_
 _symmetry_equiv_pos_site_id
 _symmetry_equiv_pos_as_xyz
  1  'x, y, z'
loop_
 _atom_site_type_symbol
 _atom_site_label
 _atom_site_symmetry_multiplicity
 _atom_site_fract_x
 _atom_site_fract_y
 _atom_site_fract_z
 _atom_site_occupancy
 _atom_site_charge
Ag  Ag1  1  0.89315000  0.17441000  0.62285000  1.0 0.1934028052
Ag  Ag2  1  0.62285000  0.30959000  0.89315000  1.0 0.1934028052
Ag  Ag3  1  0.17441000  0.89315000  0.30959000  1.0 0.1934028052
Ag  Ag4  1  0.30959000  0.62285000  0.17441000  1.0 0.1934028052
Ag  Ag5  1  0.17441000  0.62285000  0.89315000  1.0 0.1934028052
Ag  Ag6  1  0.30959000  0.89315000  0.62285000  1.0 0.1934028052
Ag  Ag7  1  0.89315000  0.30959000  0.17441000  1.0 0.1934028052
Ag  Ag8  1  0.62285000  0.17441000  0.30959000  1.0 0.1934028052
Ag  Ag9  1  0.62285000  0.89315000  0.17441000  1.0 0.1934028052
Ag  Ag10  1  0.89315000  0.62285000  0.30959000  1.0 0.1934028052
Ag  Ag11  1  0.30959000  0.17441000  0.89315000  1.0 0.1934028052
Ag  Ag12  1  0.17441000  0.30959000  0.62285000  1.0 0.1934028052
Ag  Ag13  1  0.35685000  0.94041000  0.62715000  1.0 0.1934028052
Ag  Ag14  1  0.62715000  0.07559000  0.35685000  1.0 0.1934028052
Ag  Ag15  1  0.07559000  0.62715000  0.94041000  1.0 0.1934028052
Ag  Ag16  1  0.94041000  0.35685000  0.07559000  1.0 0.1934028052
Ag  Ag17  1  0.07559000  0.94041000  0.35685000  1.0 0.1934028052
Ag  Ag18  1  0.94041000  0.07559000  0.62715000  1.0 0.1934028052
Ag  Ag19  1  0.35685000  0.62715000  0.07559000  1.0 0.1934028052
Ag  Ag20  1  0.62715000  0.35685000  0.94041000  1.0 0.1934028052
Ag  Ag21  1  0.62715000  0.94041000  0.07559000  1.0 0.1934028052
Ag  Ag22  1  0.35685000  0.07559000  0.94041000  1.0 0.1934028052
Ag  Ag23  1  0.94041000  0.62715000  0.35685000  1.0 0.1934028052
Ag  Ag24  1  0.07559000  0.35685000  0.62715000  1.0 0.1934028052
Ag  Ag25  1  0.85685000  0.57559000  0.12715000  1.0 0.1934028052
Ag  Ag26  1  0.12715000  0.44041000  0.85685000  1.0 0.1934028052
Ag  Ag27  1  0.57559000  0.85685000  0.44041000  1.0 0.1934028052
Ag  Ag28  1  0.44041000  0.12715000  0.57559000  1.0 0.1934028052
Ag  Ag29  1  0.57559000  0.12715000  0.85685000  1.0 0.1934028052
Ag  Ag30  1  0.44041000  0.85685000  0.12715000  1.0 0.1934028052
Ag  Ag31  1  0.85685000  0.44041000  0.57559000  1.0 0.1934028052
Ag  Ag32  1  0.12715000  0.57559000  0.44041000  1.0 0.1934028052
Ag  Ag33  1  0.12715000  0.85685000  0.57559000  1.0 0.1934028052
Ag  Ag34  1  0.85685000  0.12715000  0.44041000  1.0 0.1934028052
Ag  Ag35  1  0.44041000  0.57559000  0.85685000  1.0 0.1934028052
Ag  Ag36  1  0.57559000  0.44041000  0.12715000  1.0 0.1934028052
Ag  Ag37  1  0.39315000  0.80959000  0.12285000  1.0 0.1934028052
Ag  Ag38  1  0.12285000  0.67441000  0.39315000  1.0 0.1934028052
Ag  Ag39  1  0.67441000  0.12285000  0.80959000  1.0 0.1934028052
Ag  Ag40  1  0.80959000  0.39315000  0.67441000  1.0 0.1934028052
Ag  Ag41  1  0.67441000  0.80959000  0.39315000  1.0 0.1934028052
Ag  Ag42  1  0.80959000  0.67441000  0.12285000  1.0 0.1934028052
Ag  Ag43  1  0.39315000  0.12285000  0.67441000  1.0 0.1934028052
Ag  Ag44  1  0.12285000  0.39315000  0.80959000  1.0 0.1934028052
Ag  Ag45  1  0.12285000  0.80959000  0.67441000  1.0 0.1934028052
Ag  Ag46  1  0.39315000  0.67441000  0.80959000  1.0 0.1934028052
Ag  Ag47  1  0.80959000  0.12285000  0.39315000  1.0 0.1934028052
Ag  Ag48  1  0.67441000  0.39315000  0.12285000  1.0 0.1934028052
P  P1  1  0.89025000  0.06197000  0.70575000  1.0 0.1476318432
P  P2  1  0.70575000  0.34203000  0.89025000  1.0 0.1476318432
P  P3  1  0.06197000  0.89025000  0.34203000  1.0 0.1476318432
P  P4  1  0.34203000  0.70575000  0.06197000  1.0 0.1476318432
P  P5  1  0.06197000  0.70575000  0.89025000  1.0 0.1476318432
P  P6  1  0.34203000  0.89025000  0.70575000  1.0 0.1476318432
P  P7  1  0.89025000  0.34203000  0.06197000  1.0 0.1476318432
P  P8  1  0.70575000  0.06197000  0.34203000  1.0 0.1476318432
P  P9  1  0.70575000  0.89025000  0.06197000  1.0 0.1476318432
P  P10  1  0.89025000  0.70575000  0.34203000  1.0 0.1476318432
P  P11  1  0.34203000  0.06197000  0.89025000  1.0 0.1476318432
P  P12  1  0.06197000  0.34203000  0.70575000  1.0 0.1476318432
P  P13  1  0.35975000  0.90797000  0.54425000  1.0 0.1476318432
P  P14  1  0.54425000  0.18803000  0.35975000  1.0 0.1476318432
P  P15  1  0.18803000  0.54425000  0.90797000  1.0 0.1476318432
P  P16  1  0.90797000  0.35975000  0.18803000  1.0 0.1476318432
P  P17  1  0.18803000  0.90797000  0.35975000  1.0 0.1476318432
P  P18  1  0.90797000  0.18803000  0.54425000  1.0 0.1476318432
P  P19  1  0.35975000  0.54425000  0.18803000  1.0 0.1407038682
P  P20  1  0.54425000  0.35975000  0.90797000  1.0 0.1476318432
P  P21  1  0.54425000  0.90797000  0.18803000  1.0 0.1476318432
P  P22  1  0.35975000  0.18803000  0.90797000  1.0 0.1476318432
P  P23  1  0.90797000  0.54425000  0.35975000  1.0 0.1476318432
P  P24  1  0.18803000  0.35975000  0.54425000  1.0 0.1476318432
P  P25  1  0.85975000  0.68803000  0.04425000  1.0 0.1476318432
P  P26  1  0.04425000  0.40797000  0.85975000  1.0 0.1476318432
P  P27  1  0.68803000  0.85975000  0.40797000  1.0 0.1476318432
P  P28  1  0.40797000  0.04425000  0.68803000  1.0 0.1476318432
P  P29  1  0.68803000  0.04425000  0.85975000  1.0 0.1476318432
P  P30  1  0.40797000  0.85975000  0.04425000  1.0 0.1476318432
P  P31  1  0.85975000  0.40797000  0.68803000  1.0 0.1476318432
P  P32  1  0.04425000  0.68803000  0.40797000  1.0 0.1476318432
P  P33  1  0.04425000  0.85975000  0.68803000  1.0 0.1476318432
P  P34  1  0.85975000  0.04425000  0.40797000  1.0 0.1476318432
P  P35  1  0.40797000  0.68803000  0.85975000  1.0 0.1476318432
P  P36  1  0.68803000  0.40797000  0.04425000  1.0 0.1476318432
P  P37  1  0.39025000  0.84203000  0.20575000  1.0 0.1407038682
P  P38  1  0.20575000  0.56197000  0.39025000  1.0 0.1407038682
P  P39  1  0.56197000  0.20575000  0.84203000  1.0 0.1476318432
P  P40  1  0.84203000  0.39025000  0.56197000  1.0 0.1476318432
P  P41  1  0.56197000  0.84203000  0.39025000  1.0 0.1476318432
P  P42  1  0.84203000  0.56197000  0.20575000  1.0 0.1476318432
P  P43  1  0.39025000  0.20575000  0.56197000  1.0 0.1476318432
P  P44  1  0.20575000  0.39025000  0.84203000  1.0 0.1407038682
P  P45  1  0.20575000  0.84203000  0.56197000  1.0 0.1476318432
P  P46  1  0.39025000  0.56197000  0.84203000  1.0 0.1476318432
P  P47  1  0.84203000  0.20575000  0.39025000  1.0 0.1476318432
P  P48  1  0.56197000  0.39025000  0.20575000  1.0 0.1476318432
H  H1  1  0.00433000  0.11693000  0.71655000  1.0 0.0350686757
H  H2  1  0.02905000  0.14673000  0.66533000  1.0 0.1008521968
H  H3  1  0.03461000  0.09477000  0.67581000  1.0 0.1008521968
H  H4  1  0.79585000  0.06767000  0.77333000  1.0 0.1008521968
H  H5  1  0.72157000  0.19883000  0.73177000  1.0 0.1081554148
H  H6  1  0.78745000  0.21523000  0.67449000  1.0 0.1008521968
H  H7  1  0.85631000  0.06827000  0.79867000  1.0 0.1008521968
H  H8  1  0.89415000  0.04563000  0.84931000  1.0 0.1008521968
H  H9  1  0.97386000  0.01408000  0.82748000  1.0 0.1081554148
H  H10  1  0.01754000  0.00422000  0.75566000  1.0 0.1081554148
H  H11  1  0.98126000  0.02690000  0.70402000  1.0 0.1081554148
H  H12  1  0.87833000  0.98153000  0.79043000  1.0 0.1008521968
H  H13  1  0.85715000  0.91845000  0.81225000  1.0 0.1008521968
H  H14  1  0.84133000  0.91041000  0.76163000  1.0 0.1081554148
H  H15  1  0.84680000  0.96424000  0.68888000  1.0 0.1203786847
H  H16  1  0.86750000  0.02766000  0.66600000  1.0 0.1081554148
H  H17  1  0.98575000  0.10537000  0.73719000  1.0 0.0894469337
H  H18  1  0.94141000  0.14727000  0.75267000  1.0 0.0894469337
H  H19  1  0.98785000  0.15707000  0.71233000  1.0 0.0511748099
H  H20  1  0.71655000  0.16219000  0.00433000  1.0 0.0350686757
H  H21  1  0.66533000  0.15889000  0.02905000  1.0 0.1008521968
H  H22  1  0.67581000  0.19481000  0.03461000  1.0 0.1008521968
H  H23  1  0.77333000  0.36315000  0.79585000  1.0 0.1008521968
H  H24  1  0.73177000  0.34783000  0.72157000  1.0 0.1081554148
H  H25  1  0.67449000  0.32283000  0.78745000  1.0 0.1008521968
H  H26  1  0.79867000  0.27675000  0.85631000  1.0 0.1008521968
H  H27  1  0.84931000  0.21091000  0.89415000  1.0 0.1008521968
H  H28  1  0.82748000  0.18458000  0.97386000  1.0 0.1081554148
H  H29  1  0.75566000  0.22258000  0.01754000  1.0 0.1081554148
H  H30  1  0.70402000  0.28782000  0.98126000  1.0 0.1081554148
H  H31  1  0.79043000  0.34971000  0.87833000  1.0 0.1008521968
H  H32  1  0.81225000  0.41215000  0.85715000  1.0 0.1008521968
H  H33  1  0.76163000  0.48663000  0.84133000  1.0 0.1081554148
H  H34  1  0.68888000  0.50008000  0.84680000  1.0 0.1203786847
H  H35  1  0.66600000  0.43884000  0.86750000  1.0 0.1081554148
H  H36  1  0.73719000  0.17169000  0.98575000  1.0 0.0894469337
H  H37  1  0.75267000  0.15865000  0.94141000  1.0 0.0894469337
H  H38  1  0.71233000  0.14275000  0.98785000  1.0 0.0511748099
H  H39  1  0.11693000  0.00433000  0.16219000  1.0 0.0337527159
H  H40  1  0.14673000  0.02905000  0.15889000  1.0 0.1008521968
H  H41  1  0.09477000  0.03461000  0.19481000  1.0 0.1008521968
H  H42  1  0.06767000  0.79585000  0.36315000  1.0 0.1008521968
H  H43  1  0.19883000  0.72157000  0.34783000  1.0 0.1081554148
H  H44  1  0.21523000  0.78745000  0.32283000  1.0 0.1008521968
H  H45  1  0.06827000  0.85631000  0.27675000  1.0 0.1008521968
H  H46  1  0.04563000  0.89415000  0.21091000  1.0 0.1008521968
H  H47  1  0.01408000  0.97386000  0.18458000  1.0 0.1081554148
H  H48  1  0.00422000  0.01754000  0.22258000  1.0 0.1081554148
H  H49  1  0.02690000  0.98126000  0.28782000  1.0 0.1081554148
H  H50  1  0.98153000  0.87833000  0.34971000  1.0 0.1008521968
H  H51  1  0.91845000  0.85715000  0.41215000  1.0 0.1008521968
H  H52  1  0.91041000  0.84133000  0.48663000  1.0 0.1081554148
H  H53  1  0.96424000  0.84680000  0.50008000  1.0 0.1203786847
H  H54  1  0.02766000  0.86750000  0.43884000  1.0 0.1081554148
H  H55  1  0.10537000  0.98575000  0.17169000  1.0 0.0894469337
H  H56  1  0.14727000  0.94141000  0.15865000  1.0 0.0894469337
H  H57  1  0.15707000  0.98785000  0.14275000  1.0 0.0511748099
H  H58  1  0.16219000  0.71655000  0.11693000  1.0 0.0337527159
H  H59  1  0.15889000  0.66533000  0.14673000  1.0 0.1008521968
H  H60  1  0.19481000  0.67581000  0.09477000  1.0 0.1008521968
H  H61  1  0.36315000  0.77333000  0.06767000  1.0 0.1008521968
H  H62  1  0.34783000  0.73177000  0.19883000  1.0 0.1081554148
H  H63  1  0.32283000  0.67449000  0.21523000  1.0 0.1008521968
H  H64  1  0.27675000  0.79867000  0.06827000  1.0 0.1008521968
H  H65  1  0.21091000  0.84931000  0.04563000  1.0 0.1008521968
H  H66  1  0.18458000  0.82748000  0.01408000  1.0 0.1081554148
H  H67  1  0.22258000  0.75566000  0.00422000  1.0 0.1081554148
H  H68  1  0.28782000  0.70402000  0.02690000  1.0 0.1081554148
H  H69  1  0.34971000  0.79043000  0.98153000  1.0 0.1008521968
H  H70  1  0.41215000  0.81225000  0.91845000  1.0 0.1008521968
H  H71  1  0.48663000  0.76163000  0.91041000  1.0 0.1081554148
H  H72  1  0.50008000  0.68888000  0.96424000  1.0 0.1203786847
H  H73  1  0.43884000  0.66600000  0.02766000  1.0 0.1081554148
H  H74  1  0.17169000  0.73719000  0.10537000  1.0 0.0894469337
H  H75  1  0.15865000  0.75267000  0.14727000  1.0 0.0894469337
H  H76  1  0.14275000  0.71233000  0.15707000  1.0 0.0511748099
H  H77  1  0.11693000  0.71655000  0.00433000  1.0 0.0337527159
H  H78  1  0.14673000  0.66533000  0.02905000  1.0 0.1008521968
H  H79  1  0.09477000  0.67581000  0.03461000  1.0 0.1008521968
H  H80  1  0.06767000  0.77333000  0.79585000  1.0 0.1008521968
H  H81  1  0.19883000  0.73177000  0.72157000  1.0 0.1081554148
H  H82  1  0.21523000  0.67449000  0.78745000  1.0 0.1008521968
H  H83  1  0.06827000  0.79867000  0.85631000  1.0 0.1008521968
H  H84  1  0.04563000  0.84931000  0.89415000  1.0 0.1008521968
H  H85  1  0.01408000  0.82748000  0.97386000  1.0 0.1081554148
H  H86  1  0.00422000  0.75566000  0.01754000  1.0 0.1081554148
H  H87  1  0.02690000  0.70402000  0.98126000  1.0 0.1081554148
H  H88  1  0.98153000  0.79043000  0.87833000  1.0 0.1008521968
H  H89  1  0.91845000  0.81225000  0.85715000  1.0 0.1008521968
H  H90  1  0.91041000  0.76163000  0.84133000  1.0 0.1081554148
H  H91  1  0.96424000  0.68888000  0.84680000  1.0 0.1203786847
H  H92  1  0.02766000  0.66600000  0.86750000  1.0 0.1081554148
H  H93  1  0.10537000  0.73719000  0.98575000  1.0 0.0894469337
H  H94  1  0.14727000  0.75267000  0.94141000  1.0 0.0894469337
H  H95  1  0.15707000  0.71233000  0.98785000  1.0 0.0511748099
H  H96  1  0.16219000  0.00433000  0.71655000  1.0 0.0337527159
H  H97  1  0.15889000  0.02905000  0.66533000  1.0 0.1008521968
H  H98  1  0.19481000  0.03461000  0.67581000  1.0 0.1008521968
H  H99  1  0.36315000  0.79585000  0.77333000  1.0 0.1008521968
H  H100  1  0.34783000  0.72157000  0.73177000  1.0 0.1081554148
H  H101  1  0.32283000  0.78745000  0.67449000  1.0 0.1008521968
H  H102  1  0.27675000  0.85631000  0.79867000  1.0 0.1008521968
H  H103  1  0.21091000  0.89415000  0.84931000  1.0 0.1008521968
H  H104  1  0.18458000  0.97386000  0.82748000  1.0 0.1081554148
H  H105  1  0.22258000  0.01754000  0.75566000  1.0 0.1081554148
H  H106  1  0.28782000  0.98126000  0.70402000  1.0 0.1081554148
H  H107  1  0.34971000  0.87833000  0.79043000  1.0 0.1008521968
H  H108  1  0.41215000  0.85715000  0.81225000  1.0 0.1008521968
H  H109  1  0.48663000  0.84133000  0.76163000  1.0 0.1081554148
H  H110  1  0.50008000  0.84680000  0.68888000  1.0 0.1203786847
H  H111  1  0.43884000  0.86750000  0.66600000  1.0 0.1081554148
H  H112  1  0.17169000  0.98575000  0.73719000  1.0 0.0894469337
H  H113  1  0.15865000  0.94141000  0.75267000  1.0 0.0894469337
H  H114  1  0.14275000  0.98785000  0.71233000  1.0 0.0511748099
H  H115  1  0.00433000  0.16219000  0.11693000  1.0 0.0337527159
H  H116  1  0.02905000  0.15889000  0.14673000  1.0 0.1008521968
H  H117  1  0.03461000  0.19481000  0.09477000  1.0 0.1008521968
H  H118  1  0.79585000  0.36315000  0.06767000  1.0 0.1008521968
H  H119  1  0.72157000  0.34783000  0.19883000  1.0 0.1081554148
H  H120  1  0.78745000  0.32283000  0.21523000  1.0 0.1008521968
H  H121  1  0.85631000  0.27675000  0.06827000  1.0 0.1008521968
H  H122  1  0.89415000  0.21091000  0.04563000  1.0 0.1008521968
H  H123  1  0.97386000  0.18458000  0.01408000  1.0 0.1081554148
H  H124  1  0.01754000  0.22258000  0.00422000  1.0 0.1081554148
H  H125  1  0.98126000  0.28782000  0.02690000  1.0 0.1081554148
H  H126  1  0.87833000  0.34971000  0.98153000  1.0 0.1008521968
H  H127  1  0.85715000  0.41215000  0.91845000  1.0 0.1008521968
H  H128  1  0.84133000  0.48663000  0.91041000  1.0 0.1081554148
H  H129  1  0.84680000  0.50008000  0.96424000  1.0 0.1203786847
H  H130  1  0.86750000  0.43884000  0.02766000  1.0 0.1081554148
H  H131  1  0.98575000  0.17169000  0.10537000  1.0 0.0894469337
H  H132  1  0.94141000  0.15865000  0.14727000  1.0 0.0894469337
H  H133  1  0.98785000  0.14275000  0.15707000  1.0 0.0511748099
H  H134  1  0.71655000  0.11693000  0.16219000  1.0 0.0350686757
H  H135  1  0.66533000  0.14673000  0.15889000  1.0 0.1008521968
H  H136  1  0.67581000  0.09477000  0.19481000  1.0 0.1008521968
H  H137  1  0.77333000  0.06767000  0.36315000  1.0 0.1008521968
H  H138  1  0.73177000  0.19883000  0.34783000  1.0 0.1081554148
H  H139  1  0.67449000  0.21523000  0.32283000  1.0 0.1008521968
H  H140  1  0.79867000  0.06827000  0.27675000  1.0 0.1008521968
H  H141  1  0.84931000  0.04563000  0.21091000  1.0 0.1008521968
H  H142  1  0.82748000  0.01408000  0.18458000  1.0 0.1081554148
H  H143  1  0.75566000  0.00422000  0.22258000  1.0 0.1081554148
H  H144  1  0.70402000  0.02690000  0.28782000  1.0 0.1081554148
H  H145  1  0.79043000  0.98153000  0.34971000  1.0 0.1008521968
H  H146  1  0.81225000  0.91845000  0.41215000  1.0 0.1008521968
H  H147  1  0.76163000  0.91041000  0.48663000  1.0 0.1081554148
H  H148  1  0.68888000  0.96424000  0.50008000  1.0 0.1203786847
H  H149  1  0.66600000  0.02766000  0.43884000  1.0 0.1081554148
H  H150  1  0.73719000  0.10537000  0.17169000  1.0 0.0894469337
H  H151  1  0.75267000  0.14727000  0.15865000  1.0 0.0894469337
H  H152  1  0.71233000  0.15707000  0.14275000  1.0 0.0511748099
H  H153  1  0.71655000  0.00433000  0.11693000  1.0 0.0337527159
H  H154  1  0.66533000  0.02905000  0.14673000  1.0 0.1008521968
H  H155  1  0.67581000  0.03461000  0.09477000  1.0 0.1008521968
H  H156  1  0.77333000  0.79585000  0.06767000  1.0 0.1008521968
H  H157  1  0.73177000  0.72157000  0.19883000  1.0 0.1081554148
H  H158  1  0.67449000  0.78745000  0.21523000  1.0 0.1008521968
H  H159  1  0.79867000  0.85631000  0.06827000  1.0 0.1008521968
H  H160  1  0.84931000  0.89415000  0.04563000  1.0 0.1008521968
H  H161  1  0.82748000  0.97386000  0.01408000  1.0 0.1081554148
H  H162  1  0.75566000  0.01754000  0.00422000  1.0 0.1081554148
H  H163  1  0.70402000  0.98126000  0.02690000  1.0 0.1081554148
H  H164  1  0.79043000  0.87833000  0.98153000  1.0 0.1008521968
H  H165  1  0.81225000  0.85715000  0.91845000  1.0 0.1008521968
H  H166  1  0.76163000  0.84133000  0.91041000  1.0 0.1081554148
H  H167  1  0.68888000  0.84680000  0.96424000  1.0 0.1203786847
H  H168  1  0.66600000  0.86750000  0.02766000  1.0 0.1081554148
H  H169  1  0.73719000  0.98575000  0.10537000  1.0 0.0894469337
H  H170  1  0.75267000  0.94141000  0.14727000  1.0 0.0894469337
H  H171  1  0.71233000  0.98785000  0.15707000  1.0 0.0511748099
H  H172  1  0.00433000  0.71655000  0.16219000  1.0 0.0337527159
H  H173  1  0.02905000  0.66533000  0.15889000  1.0 0.1008521968
H  H174  1  0.03461000  0.67581000  0.19481000  1.0 0.1008521968
H  H175  1  0.79585000  0.77333000  0.36315000  1.0 0.1008521968
H  H176  1  0.72157000  0.73177000  0.34783000  1.0 0.1081554148
H  H177  1  0.78745000  0.67449000  0.32283000  1.0 0.1008521968
H  H178  1  0.85631000  0.79867000  0.27675000  1.0 0.1008521968
H  H179  1  0.89415000  0.84931000  0.21091000  1.0 0.1008521968
H  H180  1  0.97386000  0.82748000  0.18458000  1.0 0.1081554148
H  H181  1  0.01754000  0.75566000  0.22258000  1.0 0.1081554148
H  H182  1  0.98126000  0.70402000  0.28782000  1.0 0.1081554148
H  H183  1  0.87833000  0.79043000  0.34971000  1.0 0.1008521968
H  H184  1  0.85715000  0.81225000  0.41215000  1.0 0.1008521968
H  H185  1  0.84133000  0.76163000  0.48663000  1.0 0.1081554148
H  H186  1  0.84680000  0.68888000  0.50008000  1.0 0.1203786847
H  H187  1  0.86750000  0.66600000  0.43884000  1.0 0.1081554148
H  H188  1  0.98575000  0.73719000  0.17169000  1.0 0.0894469337
H  H189  1  0.94141000  0.75267000  0.15865000  1.0 0.0894469337
H  H190  1  0.98785000  0.71233000  0.14275000  1.0 0.0511748099
H  H191  1  0.16219000  0.11693000  0.00433000  1.0 0.0337527159
H  H192  1  0.15889000  0.14673000  0.02905000  1.0 0.1008521968
H  H193  1  0.19481000  0.09477000  0.03461000  1.0 0.1008521968
H  H194  1  0.36315000  0.06767000  0.79585000  1.0 0.1008521968
H  H195  1  0.34783000  0.19883000  0.72157000  1.0 0.1081554148
H  H196  1  0.32283000  0.21523000  0.78745000  1.0 0.1008521968
H  H197  1  0.27675000  0.06827000  0.85631000  1.0 0.1008521968
H  H198  1  0.21091000  0.04563000  0.89415000  1.0 0.1008521968
H  H199  1  0.18458000  0.01408000  0.97386000  1.0 0.1081554148
H  H200  1  0.22258000  0.00422000  0.01754000  1.0 0.1081554148
H  H201  1  0.28782000  0.02690000  0.98126000  1.0 0.1081554148
H  H202  1  0.34971000  0.98153000  0.87833000  1.0 0.1008521968
H  H203  1  0.41215000  0.91845000  0.85715000  1.0 0.1008521968
H  H204  1  0.48663000  0.91041000  0.84133000  1.0 0.1081554148
H  H205  1  0.50008000  0.96424000  0.84680000  1.0 0.1203786847
H  H206  1  0.43884000  0.02766000  0.86750000  1.0 0.1081554148
H  H207  1  0.17169000  0.10537000  0.98575000  1.0 0.0894469337
H  H208  1  0.15865000  0.14727000  0.94141000  1.0 0.0894469337
H  H209  1  0.14275000  0.15707000  0.98785000  1.0 0.0511748099
H  H210  1  0.11693000  0.16219000  0.71655000  1.0 0.0350686757
H  H211  1  0.14673000  0.15889000  0.66533000  1.0 0.1008521968
H  H212  1  0.09477000  0.19481000  0.67581000  1.0 0.1008521968
H  H213  1  0.06767000  0.36315000  0.77333000  1.0 0.1008521968
H  H214  1  0.19883000  0.34783000  0.73177000  1.0 0.1081554148
H  H215  1  0.21523000  0.32283000  0.67449000  1.0 0.1008521968
H  H216  1  0.06827000  0.27675000  0.79867000  1.0 0.1008521968
H  H217  1  0.04563000  0.21091000  0.84931000  1.0 0.1008521968
H  H218  1  0.01408000  0.18458000  0.82748000  1.0 0.1081554148
H  H219  1  0.00422000  0.22258000  0.75566000  1.0 0.1081554148
H  H220  1  0.02690000  0.28782000  0.70402000  1.0 0.1081554148
H  H221  1  0.98153000  0.34971000  0.79043000  1.0 0.1008521968
H  H222  1  0.91845000  0.41215000  0.81225000  1.0 0.1008521968
H  H223  1  0.91041000  0.48663000  0.76163000  1.0 0.1081554148
H  H224  1  0.96424000  0.50008000  0.68888000  1.0 0.1203786847
H  H225  1  0.02766000  0.43884000  0.66600000  1.0 0.1081554148
H  H226  1  0.10537000  0.17169000  0.73719000  1.0 0.0894469337
H  H227  1  0.14727000  0.15865000  0.75267000  1.0 0.0894469337
H  H228  1  0.15707000  0.14275000  0.71233000  1.0 0.0511748099
H  H229  1  0.24567000  0.08781000  0.53345000  1.0 0.0350686757
H  H230  1  0.22095000  0.09111000  0.58467000  1.0 0.1008521968
H  H231  1  0.21539000  0.05519000  0.57419000  1.0 0.1008521968
H  H232  1  0.45415000  0.88685000  0.47667000  1.0 0.1008521968
H  H233  1  0.52843000  0.90217000  0.51823000  1.0 0.1081554148
H  H234  1  0.46255000  0.92717000  0.57551000  1.0 0.1008521968
H  H235  1  0.39369000  0.97325000  0.45133000  1.0 0.1008521968
H  H236  1  0.35585000  0.03909000  0.40069000  1.0 0.1008521968
H  H237  1  0.27614000  0.06542000  0.42252000  1.0 0.1081554148
H  H238  1  0.23246000  0.02742000  0.49434000  1.0 0.1081554148
H  H239  1  0.26874000  0.96218000  0.54598000  1.0 0.1081554148
H  H240  1  0.37167000  0.90029000  0.45957000  1.0 0.1008521968
H  H241  1  0.39285000  0.83785000  0.43775000  1.0 0.1008521968
H  H242  1  0.40867000  0.76337000  0.48837000  1.0 0.1081554148
H  H243  1  0.40320000  0.74992000  0.56112000  1.0 0.1203786847
H  H244  1  0.38250000  0.81116000  0.58400000  1.0 0.1081554148
H  H245  1  0.26425000  0.07831000  0.51281000  1.0 0.0894469337
H  H246  1  0.30859000  0.09135000  0.49733000  1.0 0.0894469337
H  H247  1  0.26215000  0.10725000  0.53767000  1.0 0.0511748099
H  H248  1  0.53345000  0.13307000  0.24567000  1.0 0.0337527159
H  H249  1  0.58467000  0.10327000  0.22095000  1.0 0.1008521968
H  H250  1  0.57419000  0.15523000  0.21539000  1.0 0.1008521968
H  H251  1  0.47667000  0.18233000  0.45415000  1.0 0.1008521968
H  H252  1  0.51823000  0.05117000  0.52843000  1.0 0.1081554148
H  H253  1  0.57551000  0.03477000  0.46255000  1.0 0.1008521968
H  H254  1  0.45133000  0.18173000  0.39369000  1.0 0.1008521968
H  H255  1  0.40069000  0.20437000  0.35585000  1.0 0.1008521968
H  H256  1  0.42252000  0.23592000  0.27614000  1.0 0.1081554148
H  H257  1  0.49434000  0.24578000  0.23246000  1.0 0.1081554148
H  H258  1  0.54598000  0.22310000  0.26874000  1.0 0.1081554148
H  H259  1  0.45957000  0.26847000  0.37167000  1.0 0.1008521968
H  H260  1  0.43775000  0.33155000  0.39285000  1.0 0.1008521968
H  H261  1  0.48837000  0.33959000  0.40867000  1.0 0.1081554148
H  H262  1  0.56112000  0.28576000  0.40320000  1.0 0.1203786847
H  H263  1  0.58400000  0.22234000  0.38250000  1.0 0.1081554148
H  H264  1  0.51281000  0.14463000  0.26425000  1.0 0.0894469337
H  H265  1  0.49733000  0.10273000  0.30859000  1.0 0.0894469337
H  H266  1  0.53767000  0.09293000  0.26215000  1.0 0.0511748099
H  H267  1  0.13307000  0.53345000  0.08781000  1.0 0.0337527159
H  H268  1  0.10327000  0.58467000  0.09111000  1.0 0.1008521968
H  H269  1  0.15523000  0.57419000  0.05519000  1.0 0.1008521968
H  H270  1  0.18233000  0.47667000  0.88685000  1.0 0.1008521968
H  H271  1  0.05117000  0.51823000  0.90217000  1.0 0.1081554148
H  H272  1  0.03477000  0.57551000  0.92717000  1.0 0.1008521968
H  H273  1  0.18173000  0.45133000  0.97325000  1.0 0.1008521968
H  H274  1  0.20437000  0.40069000  0.03909000  1.0 0.1008521968
H  H275  1  0.23592000  0.42252000  0.06542000  1.0 0.1081554148
H  H276  1  0.24578000  0.49434000  0.02742000  1.0 0.1081554148
H  H277  1  0.22310000  0.54598000  0.96218000  1.0 0.1081554148
H  H278  1  0.26847000  0.45957000  0.90029000  1.0 0.1008521968
H  H279  1  0.33155000  0.43775000  0.83785000  1.0 0.1008521968
H  H280  1  0.33959000  0.48837000  0.76337000  1.0 0.1081554148
H  H281  1  0.28576000  0.56112000  0.74992000  1.0 0.1203786847
H  H282  1  0.22234000  0.58400000  0.81116000  1.0 0.1081554148
H  H283  1  0.14463000  0.51281000  0.07831000  1.0 0.0894469337
H  H284  1  0.10273000  0.49733000  0.09135000  1.0 0.0894469337
H  H285  1  0.09293000  0.53767000  0.10725000  1.0 0.0511748099
H  H286  1  0.08781000  0.24567000  0.13307000  1.0 0.0337527159
H  H287  1  0.09111000  0.22095000  0.10327000  1.0 0.1008521968
H  H288  1  0.05519000  0.21539000  0.15523000  1.0 0.1008521968
H  H289  1  0.88685000  0.45415000  0.18233000  1.0 0.1008521968
H  H290  1  0.90217000  0.52843000  0.05117000  1.0 0.1081554148
H  H291  1  0.92717000  0.46255000  0.03477000  1.0 0.1008521968
H  H292  1  0.97325000  0.39369000  0.18173000  1.0 0.1008521968
H  H293  1  0.03909000  0.35585000  0.20437000  1.0 0.1008521968
H  H294  1  0.06542000  0.27614000  0.23592000  1.0 0.1081554148
H  H295  1  0.02742000  0.23246000  0.24578000  1.0 0.1081554148
H  H296  1  0.96218000  0.26874000  0.22310000  1.0 0.1081554148
H  H297  1  0.90029000  0.37167000  0.26847000  1.0 0.1008521968
H  H298  1  0.83785000  0.39285000  0.33155000  1.0 0.1008521968
H  H299  1  0.76337000  0.40867000  0.33959000  1.0 0.1081554148
H  H300  1  0.74992000  0.40320000  0.28576000  1.0 0.1203786847
H  H301  1  0.81116000  0.38250000  0.22234000  1.0 0.1081554148
H  H302  1  0.07831000  0.26425000  0.14463000  1.0 0.0894469337
H  H303  1  0.09135000  0.30859000  0.10273000  1.0 0.0894469337
H  H304  1  0.10725000  0.26215000  0.09293000  1.0 0.0511748099
H  H305  1  0.13307000  0.08781000  0.24567000  1.0 0.0337527159
H  H306  1  0.10327000  0.09111000  0.22095000  1.0 0.1008521968
H  H307  1  0.15523000  0.05519000  0.21539000  1.0 0.1008521968
H  H308  1  0.18233000  0.88685000  0.45415000  1.0 0.1008521968
H  H309  1  0.05117000  0.90217000  0.52843000  1.0 0.1081554148
H  H310  1  0.03477000  0.92717000  0.46255000  1.0 0.1008521968
H  H311  1  0.18173000  0.97325000  0.39369000  1.0 0.1008521968
H  H312  1  0.20437000  0.03909000  0.35585000  1.0 0.1008521968
H  H313  1  0.23592000  0.06542000  0.27614000  1.0 0.1081554148
H  H314  1  0.24578000  0.02742000  0.23246000  1.0 0.1081554148
H  H315  1  0.22310000  0.96218000  0.26874000  1.0 0.1081554148
H  H316  1  0.26847000  0.90029000  0.37167000  1.0 0.1008521968
H  H317  1  0.33155000  0.83785000  0.39285000  1.0 0.1008521968
H  H318  1  0.33959000  0.76337000  0.40867000  1.0 0.1081554148
H  H319  1  0.28576000  0.74992000  0.40320000  1.0 0.1203786847
H  H320  1  0.22234000  0.81116000  0.38250000  1.0 0.1081554148
H  H321  1  0.14463000  0.07831000  0.26425000  1.0 0.0894469337
H  H322  1  0.10273000  0.09135000  0.30859000  1.0 0.0894469337
H  H323  1  0.09293000  0.10725000  0.26215000  1.0 0.0511748099
H  H324  1  0.08781000  0.13307000  0.53345000  1.0 0.0350686757
H  H325  1  0.09111000  0.10327000  0.58467000  1.0 0.1008521968
H  H326  1  0.05519000  0.15523000  0.57419000  1.0 0.1008521968
H  H327  1  0.88685000  0.18233000  0.47667000  1.0 0.1008521968
H  H328  1  0.90217000  0.05117000  0.51823000  1.0 0.1081554148
H  H329  1  0.92717000  0.03477000  0.57551000  1.0 0.1008521968
H  H330  1  0.97325000  0.18173000  0.45133000  1.0 0.1008521968
H  H331  1  0.03909000  0.20437000  0.40069000  1.0 0.1008521968
H  H332  1  0.06542000  0.23592000  0.42252000  1.0 0.1081554148
H  H333  1  0.02742000  0.24578000  0.49434000  1.0 0.1081554148
H  H334  1  0.96218000  0.22310000  0.54598000  1.0 0.1081554148
H  H335  1  0.90029000  0.26847000  0.45957000  1.0 0.1008521968
H  H336  1  0.83785000  0.33155000  0.43775000  1.0 0.1008521968
H  H337  1  0.76337000  0.33959000  0.48837000  1.0 0.1081554148
H  H338  1  0.74992000  0.28576000  0.56112000  1.0 0.1203786847
H  H339  1  0.81116000  0.22234000  0.58400000  1.0 0.1081554148
H  H340  1  0.07831000  0.14463000  0.51281000  1.0 0.0894469337
H  H341  1  0.09135000  0.10273000  0.49733000  1.0 0.0894469337
H  H342  1  0.10725000  0.09293000  0.53767000  1.0 0.0511748099
H  H343  1  0.24567000  0.53345000  0.13307000  1.0 0.0337527159
H  H344  1  0.22095000  0.58467000  0.10327000  1.0 0.1008521968
H  H345  1  0.21539000  0.57419000  0.15523000  1.0 0.1008521968
H  H346  1  0.45415000  0.47667000  0.18233000  1.0 0.1008521968
H  H347  1  0.52843000  0.51823000  0.05117000  1.0 0.1081554148
H  H348  1  0.46255000  0.57551000  0.03477000  1.0 0.1008521968
H  H349  1  0.39369000  0.45133000  0.18173000  1.0 0.1008521968
H  H350  1  0.35585000  0.40069000  0.20437000  1.0 0.1008521968
H  H351  1  0.27614000  0.42252000  0.23592000  1.0 0.1081554148
H  H352  1  0.23246000  0.49434000  0.24578000  1.0 0.1081554148
H  H353  1  0.26874000  0.54598000  0.22310000  1.0 0.1081554148
H  H354  1  0.37167000  0.45957000  0.26847000  1.0 0.1008521968
H  H355  1  0.39285000  0.43775000  0.33155000  1.0 0.1008521968
H  H356  1  0.40867000  0.48837000  0.33959000  1.0 0.1081554148
H  H357  1  0.40320000  0.56112000  0.28576000  1.0 0.1203786847
H  H358  1  0.38250000  0.58400000  0.22234000  1.0 0.1081554148
H  H359  1  0.26425000  0.51281000  0.14463000  1.0 0.0894469337
H  H360  1  0.30859000  0.49733000  0.10273000  1.0 0.0894469337
H  H361  1  0.26215000  0.53767000  0.09293000  1.0 0.0511748099
H  H362  1  0.53345000  0.24567000  0.08781000  1.0 0.0337527159
H  H363  1  0.58467000  0.22095000  0.09111000  1.0 0.1008521968
H  H364  1  0.57419000  0.21539000  0.05519000  1.0 0.1008521968
H  H365  1  0.47667000  0.45415000  0.88685000  1.0 0.1008521968
H  H366  1  0.51823000  0.52843000  0.90217000  1.0 0.1081554148
H  H367  1  0.57551000  0.46255000  0.92717000  1.0 0.1008521968
H  H368  1  0.45133000  0.39369000  0.97325000  1.0 0.1008521968
H  H369  1  0.40069000  0.35585000  0.03909000  1.0 0.1008521968
H  H370  1  0.42252000  0.27614000  0.06542000  1.0 0.1081554148
H  H371  1  0.49434000  0.23246000  0.02742000  1.0 0.1081554148
H  H372  1  0.54598000  0.26874000  0.96218000  1.0 0.1081554148
H  H373  1  0.45957000  0.37167000  0.90029000  1.0 0.1008521968
H  H374  1  0.43775000  0.39285000  0.83785000  1.0 0.1008521968
H  H375  1  0.48837000  0.40867000  0.76337000  1.0 0.1081554148
H  H376  1  0.56112000  0.40320000  0.74992000  1.0 0.1203786847
H  H377  1  0.58400000  0.38250000  0.81116000  1.0 0.1081554148
H  H378  1  0.51281000  0.26425000  0.07831000  1.0 0.0894469337
H  H379  1  0.49733000  0.30859000  0.09135000  1.0 0.0894469337
H  H380  1  0.53767000  0.26215000  0.10725000  1.0 0.0511748099
H  H381  1  0.53345000  0.08781000  0.13307000  1.0 0.0350686757
H  H382  1  0.58467000  0.09111000  0.10327000  1.0 0.1008521968
H  H383  1  0.57419000  0.05519000  0.15523000  1.0 0.1008521968
H  H384  1  0.47667000  0.88685000  0.18233000  1.0 0.1008521968
H  H385  1  0.51823000  0.90217000  0.05117000  1.0 0.1081554148
H  H386  1  0.57551000  0.92717000  0.03477000  1.0 0.1008521968
H  H387  1  0.45133000  0.97325000  0.18173000  1.0 0.1008521968
H  H388  1  0.40069000  0.03909000  0.20437000  1.0 0.1008521968
H  H389  1  0.42252000  0.06542000  0.23592000  1.0 0.1081554148
H  H390  1  0.49434000  0.02742000  0.24578000  1.0 0.1081554148
H  H391  1  0.54598000  0.96218000  0.22310000  1.0 0.1081554148
H  H392  1  0.45957000  0.90029000  0.26847000  1.0 0.1008521968
H  H393  1  0.43775000  0.83785000  0.33155000  1.0 0.1008521968
H  H394  1  0.48837000  0.76337000  0.33959000  1.0 0.1081554148
H  H395  1  0.56112000  0.74992000  0.28576000  1.0 0.1203786847
H  H396  1  0.58400000  0.81116000  0.22234000  1.0 0.1081554148
H  H397  1  0.51281000  0.07831000  0.14463000  1.0 0.0894469337
H  H398  1  0.49733000  0.09135000  0.10273000  1.0 0.0894469337
H  H399  1  0.53767000  0.10725000  0.09293000  1.0 0.0511748099
H  H400  1  0.24567000  0.13307000  0.08781000  1.0 0.0337527159
H  H401  1  0.22095000  0.10327000  0.09111000  1.0 0.1008521968
H  H402  1  0.21539000  0.15523000  0.05519000  1.0 0.1008521968
H  H403  1  0.45415000  0.18233000  0.88685000  1.0 0.1008521968
H  H404  1  0.52843000  0.05117000  0.90217000  1.0 0.1081554148
H  H405  1  0.46255000  0.03477000  0.92717000  1.0 0.1008521968
H  H406  1  0.39369000  0.18173000  0.97325000  1.0 0.1008521968
H  H407  1  0.35585000  0.20437000  0.03909000  1.0 0.1008521968
H  H408  1  0.27614000  0.23592000  0.06542000  1.0 0.1081554148
H  H409  1  0.23246000  0.24578000  0.02742000  1.0 0.1081554148
H  H410  1  0.26874000  0.22310000  0.96218000  1.0 0.1081554148
H  H411  1  0.37167000  0.26847000  0.90029000  1.0 0.1008521968
H  H412  1  0.39285000  0.33155000  0.83785000  1.0 0.1008521968
H  H413  1  0.40867000  0.33959000  0.76337000  1.0 0.1081554148
H  H414  1  0.40320000  0.28576000  0.74992000  1.0 0.1203786847
H  H415  1  0.38250000  0.22234000  0.81116000  1.0 0.1081554148
H  H416  1  0.26425000  0.14463000  0.07831000  1.0 0.0894469337
H  H417  1  0.30859000  0.10273000  0.09135000  1.0 0.0894469337
H  H418  1  0.26215000  0.09293000  0.10725000  1.0 0.0511748099
H  H419  1  0.08781000  0.53345000  0.24567000  1.0 0.0337527159
H  H420  1  0.09111000  0.58467000  0.22095000  1.0 0.1008521968
H  H421  1  0.05519000  0.57419000  0.21539000  1.0 0.1008521968
H  H422  1  0.88685000  0.47667000  0.45415000  1.0 0.1008521968
H  H423  1  0.90217000  0.51823000  0.52843000  1.0 0.1081554148
H  H424  1  0.92717000  0.57551000  0.46255000  1.0 0.1008521968
H  H425  1  0.97325000  0.45133000  0.39369000  1.0 0.1008521968
H  H426  1  0.03909000  0.40069000  0.35585000  1.0 0.1008521968
H  H427  1  0.06542000  0.42252000  0.27614000  1.0 0.1081554148
H  H428  1  0.02742000  0.49434000  0.23246000  1.0 0.1081554148
H  H429  1  0.96218000  0.54598000  0.26874000  1.0 0.1081554148
H  H430  1  0.90029000  0.45957000  0.37167000  1.0 0.1008521968
H  H431  1  0.83785000  0.43775000  0.39285000  1.0 0.1008521968
H  H432  1  0.76337000  0.48837000  0.40867000  1.0 0.1081554148
H  H433  1  0.74992000  0.56112000  0.40320000  1.0 0.1203786847
H  H434  1  0.81116000  0.58400000  0.38250000  1.0 0.1081554148
H  H435  1  0.07831000  0.51281000  0.26425000  1.0 0.0894469337
H  H436  1  0.09135000  0.49733000  0.30859000  1.0 0.0894469337
H  H437  1  0.10725000  0.53767000  0.26215000  1.0 0.0511748099
H  H438  1  0.13307000  0.24567000  0.53345000  1.0 0.0350686757
H  H439  1  0.10327000  0.22095000  0.58467000  1.0 0.1008521968
H  H440  1  0.15523000  0.21539000  0.57419000  1.0 0.1008521968
H  H441  1  0.18233000  0.45415000  0.47667000  1.0 0.1008521968
H  H442  1  0.05117000  0.52843000  0.51823000  1.0 0.1081554148
H  H443  1  0.03477000  0.46255000  0.57551000  1.0 0.1008521968
H  H444  1  0.18173000  0.39369000  0.45133000  1.0 0.1008521968
H  H445  1  0.20437000  0.35585000  0.40069000  1.0 0.1008521968
H  H446  1  0.23592000  0.27614000  0.42252000  1.0 0.1081554148
H  H447  1  0.24578000  0.23246000  0.49434000  1.0 0.1081554148
H  H448  1  0.22310000  0.26874000  0.54598000  1.0 0.1081554148
H  H449  1  0.26847000  0.37167000  0.45957000  1.0 0.1008521968
H  H450  1  0.33155000  0.39285000  0.43775000  1.0 0.1008521968
H  H451  1  0.33959000  0.40867000  0.48837000  1.0 0.1081554148
H  H452  1  0.28576000  0.40320000  0.56112000  1.0 0.1203786847
H  H453  1  0.22234000  0.38250000  0.58400000  1.0 0.1081554148
H  H454  1  0.14463000  0.26425000  0.51281000  1.0 0.0894469337
H  H455  1  0.10273000  0.30859000  0.49733000  1.0 0.0894469337
H  H456  1  0.09293000  0.26215000  0.53767000  1.0 0.0511748099
H  H457  1  0.74567000  0.63307000  0.03345000  1.0 0.0337527159
H  H458  1  0.72095000  0.60327000  0.08467000  1.0 0.1008521968
H  H459  1  0.71539000  0.65523000  0.07419000  1.0 0.1081554148
H  H460  1  0.95415000  0.68233000  0.97667000  1.0 0.1008521968
H  H461  1  0.02843000  0.55117000  0.01823000  1.0 0.1081554148
H  H462  1  0.96255000  0.53477000  0.07551000  1.0 0.1008521968
H  H463  1  0.89369000  0.68173000  0.95133000  1.0 0.1008521968
H  H464  1  0.85585000  0.70437000  0.90069000  1.0 0.1008521968
H  H465  1  0.77614000  0.73592000  0.92252000  1.0 0.1081554148
H  H466  1  0.73246000  0.74578000  0.99434000  1.0 0.1081554148
H  H467  1  0.76874000  0.72310000  0.04598000  1.0 0.1081554148
H  H468  1  0.87167000  0.76847000  0.95957000  1.0 0.1008521968
H  H469  1  0.89285000  0.83155000  0.93775000  1.0 0.1008521968
H  H470  1  0.90867000  0.83959000  0.98837000  1.0 0.1081554148
H  H471  1  0.90320000  0.78576000  0.06112000  1.0 0.1203786847
H  H472  1  0.88250000  0.72234000  0.08400000  1.0 0.1081554148
H  H473  1  0.76425000  0.64463000  0.01281000  1.0 0.0894469337
H  H474  1  0.80859000  0.60273000  0.99733000  1.0 0.0894469337
H  H475  1  0.76215000  0.59293000  0.03767000  1.0 0.0511748099
H  H476  1  0.03345000  0.58781000  0.74567000  1.0 0.0337527159
H  H477  1  0.08467000  0.59111000  0.72095000  1.0 0.1008521968
H  H478  1  0.07419000  0.55519000  0.71539000  1.0 0.1008521968
H  H479  1  0.97667000  0.38685000  0.95415000  1.0 0.1008521968
H  H480  1  0.01823000  0.40217000  0.02843000  1.0 0.1081554148
H  H481  1  0.07551000  0.42717000  0.96255000  1.0 0.1008521968
H  H482  1  0.95133000  0.47325000  0.89369000  1.0 0.1008521968
H  H483  1  0.90069000  0.53909000  0.85585000  1.0 0.1008521968
H  H484  1  0.92252000  0.56542000  0.77614000  1.0 0.1081554148
H  H485  1  0.99434000  0.52742000  0.73246000  1.0 0.1081554148
H  H486  1  0.04598000  0.46218000  0.76874000  1.0 0.1081554148
H  H487  1  0.95957000  0.40029000  0.87167000  1.0 0.1008521968
H  H488  1  0.93775000  0.33785000  0.89285000  1.0 0.1008521968
H  H489  1  0.98837000  0.26337000  0.90867000  1.0 0.1081554148
H  H490  1  0.06112000  0.24992000  0.90320000  1.0 0.1203786847
H  H491  1  0.08400000  0.31116000  0.88250000  1.0 0.1081554148
H  H492  1  0.01281000  0.57831000  0.76425000  1.0 0.0894469337
H  H493  1  0.99733000  0.59135000  0.80859000  1.0 0.0894469337
H  H494  1  0.03767000  0.60725000  0.76215000  1.0 0.0511748099
H  H495  1  0.63307000  0.74567000  0.58781000  1.0 0.0350686757
H  H496  1  0.60327000  0.72095000  0.59111000  1.0 0.1008521968
H  H497  1  0.65523000  0.71539000  0.55519000  1.0 0.1081554148
H  H498  1  0.68233000  0.95415000  0.38685000  1.0 0.1008521968
H  H499  1  0.55117000  0.02843000  0.40217000  1.0 0.1081554148
H  H500  1  0.53477000  0.96255000  0.42717000  1.0 0.1008521968
H  H501  1  0.68173000  0.89369000  0.47325000  1.0 0.1008521968
H  H502  1  0.70437000  0.85585000  0.53909000  1.0 0.1008521968
H  H503  1  0.73592000  0.77614000  0.56542000  1.0 0.1081554148
H  H504  1  0.74578000  0.73246000  0.52742000  1.0 0.1081554148
H  H505  1  0.72310000  0.76874000  0.46218000  1.0 0.1081554148
H  H506  1  0.76847000  0.87167000  0.40029000  1.0 0.1008521968
H  H507  1  0.83155000  0.89285000  0.33785000  1.0 0.1008521968
H  H508  1  0.83959000  0.90867000  0.26337000  1.0 0.1081554148
H  H509  1  0.78576000  0.90320000  0.24992000  1.0 0.1203786847
H  H510  1  0.72234000  0.88250000  0.31116000  1.0 0.1081554148
H  H511  1  0.64463000  0.76425000  0.57831000  1.0 0.0894469337
H  H512  1  0.60273000  0.80859000  0.59135000  1.0 0.0894469337
H  H513  1  0.59293000  0.76215000  0.60725000  1.0 0.0511748099
H  H514  1  0.58781000  0.03345000  0.63307000  1.0 0.0350686757
H  H515  1  0.59111000  0.08467000  0.60327000  1.0 0.1008521968
H  H516  1  0.55519000  0.07419000  0.65523000  1.0 0.1008521968
H  H517  1  0.38685000  0.97667000  0.68233000  1.0 0.1008521968
H  H518  1  0.40217000  0.01823000  0.55117000  1.0 0.1081554148
H  H519  1  0.42717000  0.07551000  0.53477000  1.0 0.1008521968
H  H520  1  0.47325000  0.95133000  0.68173000  1.0 0.1008521968
H  H521  1  0.53909000  0.90069000  0.70437000  1.0 0.1008521968
H  H522  1  0.56542000  0.92252000  0.73592000  1.0 0.1081554148
H  H523  1  0.52742000  0.99434000  0.74578000  1.0 0.1081554148
H  H524  1  0.46218000  0.04598000  0.72310000  1.0 0.1081554148
H  H525  1  0.40029000  0.95957000  0.76847000  1.0 0.1008521968
H  H526  1  0.33785000  0.93775000  0.83155000  1.0 0.1008521968
H  H527  1  0.26337000  0.98837000  0.83959000  1.0 0.1081554148
H  H528  1  0.24992000  0.06112000  0.78576000  1.0 0.1203786847
H  H529  1  0.31116000  0.08400000  0.72234000  1.0 0.1081554148
H  H530  1  0.57831000  0.01281000  0.64463000  1.0 0.0894469337
H  H531  1  0.59135000  0.99733000  0.60273000  1.0 0.0894469337
H  H532  1  0.60725000  0.03767000  0.59293000  1.0 0.0511748099
H  H533  1  0.63307000  0.03345000  0.74567000  1.0 0.0350686757
H  H534  1  0.60327000  0.08467000  0.72095000  1.0 0.1008521968
H  H535  1  0.65523000  0.07419000  0.71539000  1.0 0.1008521968
H  H536  1  0.68233000  0.97667000  0.95415000  1.0 0.1008521968
H  H537  1  0.55117000  0.01823000  0.02843000  1.0 0.1081554148
H  H538  1  0.53477000  0.07551000  0.96255000  1.0 0.1008521968
H  H539  1  0.68173000  0.95133000  0.89369000  1.0 0.1008521968
H  H540  1  0.70437000  0.90069000  0.85585000  1.0 0.1008521968
H  H541  1  0.73592000  0.92252000  0.77614000  1.0 0.1081554148
H  H542  1  0.74578000  0.99434000  0.73246000  1.0 0.1081554148
H  H543  1  0.72310000  0.04598000  0.76874000  1.0 0.1081554148
H  H544  1  0.76847000  0.95957000  0.87167000  1.0 0.1008521968
H  H545  1  0.83155000  0.93775000  0.89285000  1.0 0.1008521968
H  H546  1  0.83959000  0.98837000  0.90867000  1.0 0.1081554148
H  H547  1  0.78576000  0.06112000  0.90320000  1.0 0.1203786847
H  H548  1  0.72234000  0.08400000  0.88250000  1.0 0.1081554148
H  H549  1  0.64463000  0.01281000  0.76425000  1.0 0.0894469337
H  H550  1  0.60273000  0.99733000  0.80859000  1.0 0.0894469337
H  H551  1  0.59293000  0.03767000  0.76215000  1.0 0.0511748099
H  H552  1  0.58781000  0.74567000  0.03345000  1.0 0.0337527159
H  H553  1  0.59111000  0.72095000  0.08467000  1.0 0.1008521968
H  H554  1  0.55519000  0.71539000  0.07419000  1.0 0.1081554148
H  H555  1  0.38685000  0.95415000  0.97667000  1.0 0.1008521968
H  H556  1  0.40217000  0.02843000  0.01823000  1.0 0.1081554148
H  H557  1  0.42717000  0.96255000  0.07551000  1.0 0.1008521968
H  H558  1  0.47325000  0.89369000  0.95133000  1.0 0.1008521968
H  H559  1  0.53909000  0.85585000  0.90069000  1.0 0.1008521968
H  H560  1  0.56542000  0.77614000  0.92252000  1.0 0.1081554148
H  H561  1  0.52742000  0.73246000  0.99434000  1.0 0.1081554148
H  H562  1  0.46218000  0.76874000  0.04598000  1.0 0.1081554148
H  H563  1  0.40029000  0.87167000  0.95957000  1.0 0.1008521968
H  H564  1  0.33785000  0.89285000  0.93775000  1.0 0.1008521968
H  H565  1  0.26337000  0.90867000  0.98837000  1.0 0.1081554148
H  H566  1  0.24992000  0.90320000  0.06112000  1.0 0.1203786847
H  H567  1  0.31116000  0.88250000  0.08400000  1.0 0.1081554148
H  H568  1  0.57831000  0.76425000  0.01281000  1.0 0.0894469337
H  H569  1  0.59135000  0.80859000  0.99733000  1.0 0.0894469337
H  H570  1  0.60725000  0.76215000  0.03767000  1.0 0.0511748099
H  H571  1  0.74567000  0.58781000  0.63307000  1.0 0.0337527159
H  H572  1  0.72095000  0.59111000  0.60327000  1.0 0.1008521968
H  H573  1  0.71539000  0.55519000  0.65523000  1.0 0.1008521968
H  H574  1  0.95415000  0.38685000  0.68233000  1.0 0.1008521968
H  H575  1  0.02843000  0.40217000  0.55117000  1.0 0.1081554148
H  H576  1  0.96255000  0.42717000  0.53477000  1.0 0.1008521968
H  H577  1  0.89369000  0.47325000  0.68173000  1.0 0.1008521968
H  H578  1  0.85585000  0.53909000  0.70437000  1.0 0.1008521968
H  H579  1  0.77614000  0.56542000  0.73592000  1.0 0.1081554148
H  H580  1  0.73246000  0.52742000  0.74578000  1.0 0.1081554148
H  H581  1  0.76874000  0.46218000  0.72310000  1.0 0.1081554148
H  H582  1  0.87167000  0.40029000  0.76847000  1.0 0.1008521968
H  H583  1  0.89285000  0.33785000  0.83155000  1.0 0.1008521968
H  H584  1  0.90867000  0.26337000  0.83959000  1.0 0.1081554148
H  H585  1  0.90320000  0.24992000  0.78576000  1.0 0.1203786847
H  H586  1  0.88250000  0.31116000  0.72234000  1.0 0.1081554148
H  H587  1  0.76425000  0.57831000  0.64463000  1.0 0.0894469337
H  H588  1  0.80859000  0.59135000  0.60273000  1.0 0.0894469337
H  H589  1  0.76215000  0.60725000  0.59293000  1.0 0.0511748099
H  H590  1  0.03345000  0.63307000  0.58781000  1.0 0.0337527159
H  H591  1  0.08467000  0.60327000  0.59111000  1.0 0.1008521968
H  H592  1  0.07419000  0.65523000  0.55519000  1.0 0.1008521968
H  H593  1  0.97667000  0.68233000  0.38685000  1.0 0.1008521968
H  H594  1  0.01823000  0.55117000  0.40217000  1.0 0.1081554148
H  H595  1  0.07551000  0.53477000  0.42717000  1.0 0.1008521968
H  H596  1  0.95133000  0.68173000  0.47325000  1.0 0.1008521968
H  H597  1  0.90069000  0.70437000  0.53909000  1.0 0.1008521968
H  H598  1  0.92252000  0.73592000  0.56542000  1.0 0.1081554148
H  H599  1  0.99434000  0.74578000  0.52742000  1.0 0.1081554148
H  H600  1  0.04598000  0.72310000  0.46218000  1.0 0.1081554148
H  H601  1  0.95957000  0.76847000  0.40029000  1.0 0.1008521968
H  H602  1  0.93775000  0.83155000  0.33785000  1.0 0.1008521968
H  H603  1  0.98837000  0.83959000  0.26337000  1.0 0.1081554148
H  H604  1  0.06112000  0.78576000  0.24992000  1.0 0.1203786847
H  H605  1  0.08400000  0.72234000  0.31116000  1.0 0.1081554148
H  H606  1  0.01281000  0.64463000  0.57831000  1.0 0.0894469337
H  H607  1  0.99733000  0.60273000  0.59135000  1.0 0.0894469337
H  H608  1  0.03767000  0.59293000  0.60725000  1.0 0.0511748099
H  H609  1  0.03345000  0.74567000  0.63307000  1.0 0.0337527159
H  H610  1  0.08467000  0.72095000  0.60327000  1.0 0.1008521968
H  H611  1  0.07419000  0.71539000  0.65523000  1.0 0.1008521968
H  H612  1  0.97667000  0.95415000  0.68233000  1.0 0.1008521968
H  H613  1  0.01823000  0.02843000  0.55117000  1.0 0.1081554148
H  H614  1  0.07551000  0.96255000  0.53477000  1.0 0.1008521968
H  H615  1  0.95133000  0.89369000  0.68173000  1.0 0.1008521968
H  H616  1  0.90069000  0.85585000  0.70437000  1.0 0.1008521968
H  H617  1  0.92252000  0.77614000  0.73592000  1.0 0.1081554148
H  H618  1  0.99434000  0.73246000  0.74578000  1.0 0.1081554148
H  H619  1  0.04598000  0.76874000  0.72310000  1.0 0.1081554148
H  H620  1  0.95957000  0.87167000  0.76847000  1.0 0.1008521968
H  H621  1  0.93775000  0.89285000  0.83155000  1.0 0.1008521968
H  H622  1  0.98837000  0.90867000  0.83959000  1.0 0.1081554148
H  H623  1  0.06112000  0.90320000  0.78576000  1.0 0.1203786847
H  H624  1  0.08400000  0.88250000  0.72234000  1.0 0.1081554148
H  H625  1  0.01281000  0.76425000  0.64463000  1.0 0.0894469337
H  H626  1  0.99733000  0.80859000  0.60273000  1.0 0.0894469337
H  H627  1  0.03767000  0.76215000  0.59293000  1.0 0.0511748099
H  H628  1  0.74567000  0.03345000  0.58781000  1.0 0.0350686757
H  H629  1  0.72095000  0.08467000  0.59111000  1.0 0.1008521968
H  H630  1  0.71539000  0.07419000  0.55519000  1.0 0.1008521968
H  H631  1  0.95415000  0.97667000  0.38685000  1.0 0.1008521968
H  H632  1  0.02843000  0.01823000  0.40217000  1.0 0.1081554148
H  H633  1  0.96255000  0.07551000  0.42717000  1.0 0.1008521968
H  H634  1  0.89369000  0.95133000  0.47325000  1.0 0.1008521968
H  H635  1  0.85585000  0.90069000  0.53909000  1.0 0.1008521968
H  H636  1  0.77614000  0.92252000  0.56542000  1.0 0.1081554148
H  H637  1  0.73246000  0.99434000  0.52742000  1.0 0.1081554148
H  H638  1  0.76874000  0.04598000  0.46218000  1.0 0.1081554148
H  H639  1  0.87167000  0.95957000  0.40029000  1.0 0.1008521968
H  H640  1  0.89285000  0.93775000  0.33785000  1.0 0.1008521968
H  H641  1  0.90867000  0.98837000  0.26337000  1.0 0.1081554148
H  H642  1  0.90320000  0.06112000  0.24992000  1.0 0.1203786847
H  H643  1  0.88250000  0.08400000  0.31116000  1.0 0.1081554148
H  H644  1  0.76425000  0.01281000  0.57831000  1.0 0.0894469337
H  H645  1  0.80859000  0.99733000  0.59135000  1.0 0.0894469337
H  H646  1  0.76215000  0.03767000  0.60725000  1.0 0.0511748099
H  H647  1  0.58781000  0.63307000  0.74567000  1.0 0.0337527159
H  H648  1  0.59111000  0.60327000  0.72095000  1.0 0.1008521968
H  H649  1  0.55519000  0.65523000  0.71539000  1.0 0.1081554148
H  H650  1  0.38685000  0.68233000  0.95415000  1.0 0.1008521968
H  H651  1  0.40217000  0.55117000  0.02843000  1.0 0.1081554148
H  H652  1  0.42717000  0.53477000  0.96255000  1.0 0.1008521968
H  H653  1  0.47325000  0.68173000  0.89369000  1.0 0.1008521968
H  H654  1  0.53909000  0.70437000  0.85585000  1.0 0.1008521968
H  H655  1  0.56542000  0.73592000  0.77614000  1.0 0.1081554148
H  H656  1  0.52742000  0.74578000  0.73246000  1.0 0.1081554148
H  H657  1  0.46218000  0.72310000  0.76874000  1.0 0.1081554148
H  H658  1  0.40029000  0.76847000  0.87167000  1.0 0.1008521968
H  H659  1  0.33785000  0.83155000  0.89285000  1.0 0.1008521968
H  H660  1  0.26337000  0.83959000  0.90867000  1.0 0.1081554148
H  H661  1  0.24992000  0.78576000  0.90320000  1.0 0.1203786847
H  H662  1  0.31116000  0.72234000  0.88250000  1.0 0.1081554148
H  H663  1  0.57831000  0.64463000  0.76425000  1.0 0.0894469337
H  H664  1  0.59135000  0.60273000  0.80859000  1.0 0.0894469337
H  H665  1  0.60725000  0.59293000  0.76215000  1.0 0.0511748099
H  H666  1  0.63307000  0.58781000  0.03345000  1.0 0.0337527159
H  H667  1  0.60327000  0.59111000  0.08467000  1.0 0.1008521968
H  H668  1  0.65523000  0.55519000  0.07419000  1.0 0.1008521968
H  H669  1  0.68233000  0.38685000  0.97667000  1.0 0.1008521968
H  H670  1  0.55117000  0.40217000  0.01823000  1.0 0.1081554148
H  H671  1  0.53477000  0.42717000  0.07551000  1.0 0.1008521968
H  H672  1  0.68173000  0.47325000  0.95133000  1.0 0.1008521968
H  H673  1  0.70437000  0.53909000  0.90069000  1.0 0.1008521968
H  H674  1  0.73592000  0.56542000  0.92252000  1.0 0.1081554148
H  H675  1  0.74578000  0.52742000  0.99434000  1.0 0.1081554148
H  H676  1  0.72310000  0.46218000  0.04598000  1.0 0.1081554148
H  H677  1  0.76847000  0.40029000  0.95957000  1.0 0.1008521968
H  H678  1  0.83155000  0.33785000  0.93775000  1.0 0.1008521968
H  H679  1  0.83959000  0.26337000  0.98837000  1.0 0.1081554148
H  H680  1  0.78576000  0.24992000  0.06112000  1.0 0.1203786847
H  H681  1  0.72234000  0.31116000  0.08400000  1.0 0.1081554148
H  H682  1  0.64463000  0.57831000  0.01281000  1.0 0.0894469337
H  H683  1  0.60273000  0.59135000  0.99733000  1.0 0.0894469337
H  H684  1  0.59293000  0.60725000  0.03767000  1.0 0.0511748099
H  H685  1  0.50433000  0.66219000  0.21655000  1.0 0.0337527159
H  H686  1  0.52905000  0.65889000  0.16533000  1.0 0.1008521968
H  H687  1  0.53461000  0.69481000  0.17581000  1.0 0.1008521968
H  H688  1  0.29585000  0.86315000  0.27333000  1.0 0.1008521968
H  H689  1  0.22157000  0.84783000  0.23177000  1.0 0.1081554148
H  H690  1  0.28745000  0.82283000  0.17449000  1.0 0.1008521968
H  H691  1  0.35631000  0.77675000  0.29867000  1.0 0.1008521968
H  H692  1  0.39415000  0.71091000  0.34931000  1.0 0.1008521968
H  H693  1  0.47386000  0.68458000  0.32748000  1.0 0.1081554148
H  H694  1  0.51754000  0.72258000  0.25566000  1.0 0.1081554148
H  H695  1  0.48126000  0.78782000  0.20402000  1.0 0.1081554148
H  H696  1  0.37833000  0.84971000  0.29043000  1.0 0.1008521968
H  H697  1  0.35715000  0.91215000  0.31225000  1.0 0.1008521968
H  H698  1  0.34133000  0.98663000  0.26163000  1.0 0.1081554148
H  H699  1  0.34680000  0.00008000  0.18888000  1.0 0.1203786847
H  H700  1  0.36750000  0.93884000  0.16600000  1.0 0.1081554148
H  H701  1  0.48575000  0.67169000  0.23719000  1.0 0.0894469337
H  H702  1  0.44141000  0.65865000  0.25267000  1.0 0.0894469337
H  H703  1  0.48785000  0.64275000  0.21233000  1.0 0.0511748099
H  H704  1  0.21655000  0.61693000  0.50433000  1.0 0.0337527159
H  H705  1  0.16533000  0.64673000  0.52905000  1.0 0.1008521968
H  H706  1  0.17581000  0.59477000  0.53461000  1.0 0.1008521968
H  H707  1  0.27333000  0.56767000  0.29585000  1.0 0.1008521968
H  H708  1  0.23177000  0.69883000  0.22157000  1.0 0.1081554148
H  H709  1  0.17449000  0.71523000  0.28745000  1.0 0.1008521968
H  H710  1  0.29867000  0.56827000  0.35631000  1.0 0.1008521968
H  H711  1  0.34931000  0.54563000  0.39415000  1.0 0.1008521968
H  H712  1  0.32748000  0.51408000  0.47386000  1.0 0.1081554148
H  H713  1  0.25566000  0.50422000  0.51754000  1.0 0.1081554148
H  H714  1  0.20402000  0.52690000  0.48126000  1.0 0.1081554148
H  H715  1  0.29043000  0.48153000  0.37833000  1.0 0.1008521968
H  H716  1  0.31225000  0.41845000  0.35715000  1.0 0.1008521968
H  H717  1  0.26163000  0.41041000  0.34133000  1.0 0.1081554148
H  H718  1  0.18888000  0.46424000  0.34680000  1.0 0.1203786847
H  H719  1  0.16600000  0.52766000  0.36750000  1.0 0.1081554148
H  H720  1  0.23719000  0.60537000  0.48575000  1.0 0.0894469337
H  H721  1  0.25267000  0.64727000  0.44141000  1.0 0.0894469337
H  H722  1  0.21233000  0.65707000  0.48785000  1.0 0.0511748099
H  H723  1  0.61693000  0.21655000  0.66219000  1.0 0.0337527159
H  H724  1  0.64673000  0.16533000  0.65889000  1.0 0.1008521968
H  H725  1  0.59477000  0.17581000  0.69481000  1.0 0.1008521968
H  H726  1  0.56767000  0.27333000  0.86315000  1.0 0.1008521968
H  H727  1  0.69883000  0.23177000  0.84783000  1.0 0.1081554148
H  H728  1  0.71523000  0.17449000  0.82283000  1.0 0.1008521968
H  H729  1  0.56827000  0.29867000  0.77675000  1.0 0.1008521968
H  H730  1  0.54563000  0.34931000  0.71091000  1.0 0.1008521968
H  H731  1  0.51408000  0.32748000  0.68458000  1.0 0.1081554148
H  H732  1  0.50422000  0.25566000  0.72258000  1.0 0.1081554148
H  H733  1  0.52690000  0.20402000  0.78782000  1.0 0.1081554148
H  H734  1  0.48153000  0.29043000  0.84971000  1.0 0.1008521968
H  H735  1  0.41845000  0.31225000  0.91215000  1.0 0.1008521968
H  H736  1  0.41041000  0.26163000  0.98663000  1.0 0.1081554148
H  H737  1  0.46424000  0.18888000  0.00008000  1.0 0.1203786847
H  H738  1  0.52766000  0.16600000  0.93884000  1.0 0.1081554148
H  H739  1  0.60537000  0.23719000  0.67169000  1.0 0.0894469337
H  H740  1  0.64727000  0.25267000  0.65865000  1.0 0.0894469337
H  H741  1  0.65707000  0.21233000  0.64275000  1.0 0.0511748099
H  H742  1  0.66219000  0.50433000  0.61693000  1.0 0.0337527159
H  H743  1  0.65889000  0.52905000  0.64673000  1.0 0.1008521968
H  H744  1  0.69481000  0.53461000  0.59477000  1.0 0.1081554148
H  H745  1  0.86315000  0.29585000  0.56767000  1.0 0.1008521968
H  H746  1  0.84783000  0.22157000  0.69883000  1.0 0.1081554148
H  H747  1  0.82283000  0.28745000  0.71523000  1.0 0.1008521968
H  H748  1  0.77675000  0.35631000  0.56827000  1.0 0.1008521968
H  H749  1  0.71091000  0.39415000  0.54563000  1.0 0.1008521968
H  H750  1  0.68458000  0.47386000  0.51408000  1.0 0.1081554148
H  H751  1  0.72258000  0.51754000  0.50422000  1.0 0.1081554148
H  H752  1  0.78782000  0.48126000  0.52690000  1.0 0.1081554148
H  H753  1  0.84971000  0.37833000  0.48153000  1.0 0.1008521968
H  H754  1  0.91215000  0.35715000  0.41845000  1.0 0.1008521968
H  H755  1  0.98663000  0.34133000  0.41041000  1.0 0.1081554148
H  H756  1  0.00008000  0.34680000  0.46424000  1.0 0.1203786847
H  H757  1  0.93884000  0.36750000  0.52766000  1.0 0.1081554148
H  H758  1  0.67169000  0.48575000  0.60537000  1.0 0.0894469337
H  H759  1  0.65865000  0.44141000  0.64727000  1.0 0.0894469337
H  H760  1  0.64275000  0.48785000  0.65707000  1.0 0.0511748099
H  H761  1  0.61693000  0.66219000  0.50433000  1.0 0.0350686757
H  H762  1  0.64673000  0.65889000  0.52905000  1.0 0.1008521968
H  H763  1  0.59477000  0.69481000  0.53461000  1.0 0.1008521968
H  H764  1  0.56767000  0.86315000  0.29585000  1.0 0.1008521968
H  H765  1  0.69883000  0.84783000  0.22157000  1.0 0.1081554148
H  H766  1  0.71523000  0.82283000  0.28745000  1.0 0.1008521968
H  H767  1  0.56827000  0.77675000  0.35631000  1.0 0.1008521968
H  H768  1  0.54563000  0.71091000  0.39415000  1.0 0.1008521968
H  H769  1  0.51408000  0.68458000  0.47386000  1.0 0.1081554148
H  H770  1  0.50422000  0.72258000  0.51754000  1.0 0.1081554148
H  H771  1  0.52690000  0.78782000  0.48126000  1.0 0.1081554148
H  H772  1  0.48153000  0.84971000  0.37833000  1.0 0.1008521968
H  H773  1  0.41845000  0.91215000  0.35715000  1.0 0.1008521968
H  H774  1  0.41041000  0.98663000  0.34133000  1.0 0.1081554148
H  H775  1  0.46424000  0.00008000  0.34680000  1.0 0.1203786847
H  H776  1  0.52766000  0.93884000  0.36750000  1.0 0.1081554148
H  H777  1  0.60537000  0.67169000  0.48575000  1.0 0.0894469337
H  H778  1  0.64727000  0.65865000  0.44141000  1.0 0.0894469337
H  H779  1  0.65707000  0.64275000  0.48785000  1.0 0.0511748099
H  H780  1  0.66219000  0.61693000  0.21655000  1.0 0.0337527159
H  H781  1  0.65889000  0.64673000  0.16533000  1.0 0.1008521968
H  H782  1  0.69481000  0.59477000  0.17581000  1.0 0.1081554148
H  H783  1  0.86315000  0.56767000  0.27333000  1.0 0.1008521968
H  H784  1  0.84783000  0.69883000  0.23177000  1.0 0.1081554148
H  H785  1  0.82283000  0.71523000  0.17449000  1.0 0.1008521968
H  H786  1  0.77675000  0.56827000  0.29867000  1.0 0.1008521968
H  H787  1  0.71091000  0.54563000  0.34931000  1.0 0.1008521968
H  H788  1  0.68458000  0.51408000  0.32748000  1.0 0.1081554148
H  H789  1  0.72258000  0.50422000  0.25566000  1.0 0.1081554148
H  H790  1  0.78782000  0.52690000  0.20402000  1.0 0.1081554148
H  H791  1  0.84971000  0.48153000  0.29043000  1.0 0.1008521968
H  H792  1  0.91215000  0.41845000  0.31225000  1.0 0.1008521968
H  H793  1  0.98663000  0.41041000  0.26163000  1.0 0.1081554148
H  H794  1  0.00008000  0.46424000  0.18888000  1.0 0.1203786847
H  H795  1  0.93884000  0.52766000  0.16600000  1.0 0.1081554148
H  H796  1  0.67169000  0.60537000  0.23719000  1.0 0.0894469337
H  H797  1  0.65865000  0.64727000  0.25267000  1.0 0.0894469337
H  H798  1  0.64275000  0.65707000  0.21233000  1.0 0.0511748099
H  H799  1  0.50433000  0.21655000  0.61693000  1.0 0.0350686757
H  H800  1  0.52905000  0.16533000  0.64673000  1.0 0.1008521968
H  H801  1  0.53461000  0.17581000  0.59477000  1.0 0.1008521968
H  H802  1  0.29585000  0.27333000  0.56767000  1.0 0.1008521968
H  H803  1  0.22157000  0.23177000  0.69883000  1.0 0.1081554148
H  H804  1  0.28745000  0.17449000  0.71523000  1.0 0.1008521968
H  H805  1  0.35631000  0.29867000  0.56827000  1.0 0.1008521968
H  H806  1  0.39415000  0.34931000  0.54563000  1.0 0.1008521968
H  H807  1  0.47386000  0.32748000  0.51408000  1.0 0.1081554148
H  H808  1  0.51754000  0.25566000  0.50422000  1.0 0.1081554148
H  H809  1  0.48126000  0.20402000  0.52690000  1.0 0.1081554148
H  H810  1  0.37833000  0.29043000  0.48153000  1.0 0.1008521968
H  H811  1  0.35715000  0.31225000  0.41845000  1.0 0.1008521968
H  H812  1  0.34133000  0.26163000  0.41041000  1.0 0.1081554148
H  H813  1  0.34680000  0.18888000  0.46424000  1.0 0.1203786847
H  H814  1  0.36750000  0.16600000  0.52766000  1.0 0.1081554148
H  H815  1  0.48575000  0.23719000  0.60537000  1.0 0.0894469337
H  H816  1  0.44141000  0.25267000  0.64727000  1.0 0.0894469337
H  H817  1  0.48785000  0.21233000  0.65707000  1.0 0.0511748099
H  H818  1  0.21655000  0.50433000  0.66219000  1.0 0.0337527159
H  H819  1  0.16533000  0.52905000  0.65889000  1.0 0.1008521968
H  H820  1  0.17581000  0.53461000  0.69481000  1.0 0.1008521968
H  H821  1  0.27333000  0.29585000  0.86315000  1.0 0.1008521968
H  H822  1  0.23177000  0.22157000  0.84783000  1.0 0.1081554148
H  H823  1  0.17449000  0.28745000  0.82283000  1.0 0.1008521968
H  H824  1  0.29867000  0.35631000  0.77675000  1.0 0.1008521968
H  H825  1  0.34931000  0.39415000  0.71091000  1.0 0.1008521968
H  H826  1  0.32748000  0.47386000  0.68458000  1.0 0.1081554148
H  H827  1  0.25566000  0.51754000  0.72258000  1.0 0.1081554148
H  H828  1  0.20402000  0.48126000  0.78782000  1.0 0.1081554148
H  H829  1  0.29043000  0.37833000  0.84971000  1.0 0.1008521968
H  H830  1  0.31225000  0.35715000  0.91215000  1.0 0.1008521968
H  H831  1  0.26163000  0.34133000  0.98663000  1.0 0.1081554148
H  H832  1  0.18888000  0.34680000  0.00008000  1.0 0.1203786847
H  H833  1  0.16600000  0.36750000  0.93884000  1.0 0.1081554148
H  H834  1  0.23719000  0.48575000  0.67169000  1.0 0.0894469337
H  H835  1  0.25267000  0.44141000  0.65865000  1.0 0.0894469337
H  H836  1  0.21233000  0.48785000  0.64275000  1.0 0.0511748099
H  H837  1  0.21655000  0.66219000  0.61693000  1.0 0.0337527159
H  H838  1  0.16533000  0.65889000  0.64673000  1.0 0.1008521968
H  H839  1  0.17581000  0.69481000  0.59477000  1.0 0.1008521968
H  H840  1  0.27333000  0.86315000  0.56767000  1.0 0.1008521968
H  H841  1  0.23177000  0.84783000  0.69883000  1.0 0.1081554148
H  H842  1  0.17449000  0.82283000  0.71523000  1.0 0.1008521968
H  H843  1  0.29867000  0.77675000  0.56827000  1.0 0.1008521968
H  H844  1  0.34931000  0.71091000  0.54563000  1.0 0.1008521968
H  H845  1  0.32748000  0.68458000  0.51408000  1.0 0.1081554148
H  H846  1  0.25566000  0.72258000  0.50422000  1.0 0.1081554148
H  H847  1  0.20402000  0.78782000  0.52690000  1.0 0.1081554148
H  H848  1  0.29043000  0.84971000  0.48153000  1.0 0.1008521968
H  H849  1  0.31225000  0.91215000  0.41845000  1.0 0.1008521968
H  H850  1  0.26163000  0.98663000  0.41041000  1.0 0.1081554148
H  H851  1  0.18888000  0.00008000  0.46424000  1.0 0.1203786847
H  H852  1  0.16600000  0.93884000  0.52766000  1.0 0.1081554148
H  H853  1  0.23719000  0.67169000  0.60537000  1.0 0.0894469337
H  H854  1  0.25267000  0.65865000  0.64727000  1.0 0.0894469337
H  H855  1  0.21233000  0.64275000  0.65707000  1.0 0.0511748099
H  H856  1  0.50433000  0.61693000  0.66219000  1.0 0.0337527159
H  H857  1  0.52905000  0.64673000  0.65889000  1.0 0.1008521968
H  H858  1  0.53461000  0.59477000  0.69481000  1.0 0.1008521968
H  H859  1  0.29585000  0.56767000  0.86315000  1.0 0.1008521968
H  H860  1  0.22157000  0.69883000  0.84783000  1.0 0.1081554148
H  H861  1  0.28745000  0.71523000  0.82283000  1.0 0.1008521968
H  H862  1  0.35631000  0.56827000  0.77675000  1.0 0.1008521968
H  H863  1  0.39415000  0.54563000  0.71091000  1.0 0.1008521968
H  H864  1  0.47386000  0.51408000  0.68458000  1.0 0.1081554148
H  H865  1  0.51754000  0.50422000  0.72258000  1.0 0.1081554148
H  H866  1  0.48126000  0.52690000  0.78782000  1.0 0.1081554148
H  H867  1  0.37833000  0.48153000  0.84971000  1.0 0.1008521968
H  H868  1  0.35715000  0.41845000  0.91215000  1.0 0.1008521968
H  H869  1  0.34133000  0.41041000  0.98663000  1.0 0.1081554148
H  H870  1  0.34680000  0.46424000  0.00008000  1.0 0.1203786847
H  H871  1  0.36750000  0.52766000  0.93884000  1.0 0.1081554148
H  H872  1  0.48575000  0.60537000  0.67169000  1.0 0.0894469337
H  H873  1  0.44141000  0.64727000  0.65865000  1.0 0.0894469337
H  H874  1  0.48785000  0.65707000  0.64275000  1.0 0.0511748099
H  H875  1  0.66219000  0.21655000  0.50433000  1.0 0.0350686757
H  H876  1  0.65889000  0.16533000  0.52905000  1.0 0.1008521968
H  H877  1  0.69481000  0.17581000  0.53461000  1.0 0.1008521968
H  H878  1  0.86315000  0.27333000  0.29585000  1.0 0.1008521968
H  H879  1  0.84783000  0.23177000  0.22157000  1.0 0.1081554148
H  H880  1  0.82283000  0.17449000  0.28745000  1.0 0.1008521968
H  H881  1  0.77675000  0.29867000  0.35631000  1.0 0.1008521968
H  H882  1  0.71091000  0.34931000  0.39415000  1.0 0.1008521968
H  H883  1  0.68458000  0.32748000  0.47386000  1.0 0.1081554148
H  H884  1  0.72258000  0.25566000  0.51754000  1.0 0.1081554148
H  H885  1  0.78782000  0.20402000  0.48126000  1.0 0.1081554148
H  H886  1  0.84971000  0.29043000  0.37833000  1.0 0.1008521968
H  H887  1  0.91215000  0.31225000  0.35715000  1.0 0.1008521968
H  H888  1  0.98663000  0.26163000  0.34133000  1.0 0.1081554148
H  H889  1  0.00008000  0.18888000  0.34680000  1.0 0.1203786847
H  H890  1  0.93884000  0.16600000  0.36750000  1.0 0.1081554148
H  H891  1  0.67169000  0.23719000  0.48575000  1.0 0.0894469337
H  H892  1  0.65865000  0.25267000  0.44141000  1.0 0.0894469337
H  H893  1  0.64275000  0.21233000  0.48785000  1.0 0.0511748099
H  H894  1  0.61693000  0.50433000  0.21655000  1.0 0.0350686757
H  H895  1  0.64673000  0.52905000  0.16533000  1.0 0.1008521968
H  H896  1  0.59477000  0.53461000  0.17581000  1.0 0.1081554148
H  H897  1  0.56767000  0.29585000  0.27333000  1.0 0.1008521968
H  H898  1  0.69883000  0.22157000  0.23177000  1.0 0.1081554148
H  H899  1  0.71523000  0.28745000  0.17449000  1.0 0.1008521968
H  H900  1  0.56827000  0.35631000  0.29867000  1.0 0.1008521968
H  H901  1  0.54563000  0.39415000  0.34931000  1.0 0.1008521968
H  H902  1  0.51408000  0.47386000  0.32748000  1.0 0.1081554148
H  H903  1  0.50422000  0.51754000  0.25566000  1.0 0.1081554148
H  H904  1  0.52690000  0.48126000  0.20402000  1.0 0.1081554148
H  H905  1  0.48153000  0.37833000  0.29043000  1.0 0.1008521968
H  H906  1  0.41845000  0.35715000  0.31225000  1.0 0.1008521968
H  H907  1  0.41041000  0.34133000  0.26163000  1.0 0.1081554148
H  H908  1  0.46424000  0.34680000  0.18888000  1.0 0.1203786847
H  H909  1  0.52766000  0.36750000  0.16600000  1.0 0.1081554148
H  H910  1  0.60537000  0.48575000  0.23719000  1.0 0.0894469337
H  H911  1  0.64727000  0.44141000  0.25267000  1.0 0.0894469337
H  H912  1  0.65707000  0.48785000  0.21233000  1.0 0.0511748099
C  C1  1  0.97123000  0.14157000  0.67103000  1.0 0.1407038682
C  C2  1  0.01341000  0.12339000  0.68321000  1.0 -0.2688134985
C  C3  1  0.83336000  0.10746000  0.71724000  1.0 0.0566365764
C  C4  1  0.79349000  0.09863000  0.75255000  1.0 -0.0211927235
C  C5  1  0.75059000  0.17429000  0.72901000  1.0 -0.0096923742
C  C6  1  0.78996000  0.18400000  0.69444000  1.0 -0.0096923742
C  C7  1  0.91516000  0.04944000  0.74664000  1.0 -0.0418520406
C  C8  1  0.88926000  0.05522000  0.78966000  1.0 -0.13280483
C  C9  1  0.91177000  0.04177000  0.81965000  1.0 -0.1019316787
C  C10  1  0.95872000  0.02320000  0.80676000  1.0 -0.1019316787
C  C11  1  0.98462000  0.01742000  0.76422000  1.0 -0.1019316787
C  C12  1  0.96322000  0.03064000  0.73370000  1.0 -0.14251743
C  C13  1  0.87430000  0.01150000  0.72628000  1.0 -0.0418520406
C  C14  1  0.87164000  0.97874000  0.76910000  1.0 -0.13280483
C  C15  1  0.85916000  0.94100000  0.78204000  1.0 -0.119415388
C  C16  1  0.84998000  0.93614000  0.75250000  1.0 -0.1019316787
C  C17  1  0.85307000  0.96773000  0.71005000  1.0 -0.1080300046
C  C18  1  0.86533000  0.00559000  0.69643000  1.0 -0.14251743
C  C19  1  0.95050000  0.14690000  0.69110000  1.0 0.1476318432
C  C20  1  0.96780000  0.13840000  0.72640000  1.0 -0.2367482299
C  C21  1  0.67103000  0.21617000  0.97123000  1.0 0.1407038682
C  C22  1  0.68321000  0.17999000  0.01341000  1.0 -0.2688134985
C  C23  1  0.71724000  0.34194000  0.83336000  1.0 0.0566365764
C  C24  1  0.75255000  0.35533000  0.79349000  1.0 -0.0211927235
C  C25  1  0.72901000  0.34611000  0.75059000  1.0 -0.0096923742
C  C26  1  0.69444000  0.33160000  0.78996000  1.0 -0.0096923742
C  C27  1  0.74664000  0.28876000  0.91516000  1.0 -0.0418520406
C  C28  1  0.78966000  0.26586000  0.88926000  1.0 -0.13280483
C  C29  1  0.81965000  0.22681000  0.91177000  1.0 -0.1019316787
C  C30  1  0.80676000  0.21132000  0.95872000  1.0 -0.1019316787
C  C31  1  0.76422000  0.23374000  0.98462000  1.0 -0.1019316787
C  C32  1  0.73370000  0.27244000  0.96322000  1.0 -0.14251743
C  C33  1  0.72628000  0.38792000  0.87430000  1.0 -0.0418520406
C  C34  1  0.76910000  0.38052000  0.87164000  1.0 -0.13280483
C  C35  1  0.78204000  0.41780000  0.85916000  1.0 -0.119415388
C  C36  1  0.75250000  0.46138000  0.84998000  1.0 -0.1019316787
C  C37  1  0.71005000  0.46915000  0.85307000  1.0 -0.1080300046
C  C38  1  0.69643000  0.43265000  0.86533000  1.0 -0.14251743
C  C39  1  0.69110000  0.21150000  0.95050000  1.0 0.1476318432
C  C40  1  0.72640000  0.16740000  0.96780000  1.0 -0.2367482299
C  C41  1  0.14157000  0.97123000  0.21617000  1.0 0.1407038682
C  C42  1  0.12339000  0.01341000  0.17999000  1.0 -0.2688134985
C  C43  1  0.10746000  0.83336000  0.34194000  1.0 0.0566365764
C  C44  1  0.09863000  0.79349000  0.35533000  1.0 -0.0211927235
C  C45  1  0.17429000  0.75059000  0.34611000  1.0 -0.0096923742
C  C46  1  0.18400000  0.78996000  0.33160000  1.0 -0.0096923742
C  C47  1  0.04944000  0.91516000  0.28876000  1.0 -0.0418520406
C  C48  1  0.05522000  0.88926000  0.26586000  1.0 -0.13280483
C  C49  1  0.04177000  0.91177000  0.22681000  1.0 -0.1019316787
C  C50  1  0.02320000  0.95872000  0.21132000  1.0 -0.1019316787
C  C51  1  0.01742000  0.98462000  0.23374000  1.0 -0.1019316787
C  C52  1  0.03064000  0.96322000  0.27244000  1.0 -0.14251743
C  C53  1  0.01150000  0.87430000  0.38792000  1.0 -0.0418520406
C  C54  1  0.97874000  0.87164000  0.38052000  1.0 -0.13280483
C  C55  1  0.94100000  0.85916000  0.41780000  1.0 -0.119415388
C  C56  1  0.93614000  0.84998000  0.46138000  1.0 -0.1019316787
C  C57  1  0.96773000  0.85307000  0.46915000  1.0 -0.1080300046
C  C58  1  0.00559000  0.86533000  0.43265000  1.0 -0.14251743
C  C59  1  0.14690000  0.95050000  0.21150000  1.0 0.1476318432
C  C60  1  0.13840000  0.96780000  0.16740000  1.0 -0.2367482299
C  C61  1  0.21617000  0.67103000  0.14157000  1.0 0.1407038682
C  C62  1  0.17999000  0.68321000  0.12339000  1.0 -0.2688134985
C  C63  1  0.34194000  0.71724000  0.10746000  1.0 0.0566365764
C  C64  1  0.35533000  0.75255000  0.09863000  1.0 -0.0211927235
C  C65  1  0.34611000  0.72901000  0.17429000  1.0 -0.0096923742
C  C66  1  0.33160000  0.69444000  0.18400000  1.0 -0.0096923742
C  C67  1  0.28876000  0.74664000  0.04944000  1.0 -0.0418520406
C  C68  1  0.26586000  0.78966000  0.05522000  1.0 -0.13280483
C  C69  1  0.22681000  0.81965000  0.04177000  1.0 -0.1019316787
C  C70  1  0.21132000  0.80676000  0.02320000  1.0 -0.1019316787
C  C71  1  0.23374000  0.76422000  0.01742000  1.0 -0.1080300046
C  C72  1  0.27244000  0.73370000  0.03064000  1.0 -0.14251743
C  C73  1  0.38792000  0.72628000  0.01150000  1.0 -0.0418520406
C  C74  1  0.38052000  0.76910000  0.97874000  1.0 -0.13280483
C  C75  1  0.41780000  0.78204000  0.94100000  1.0 -0.119415388
C  C76  1  0.46138000  0.75250000  0.93614000  1.0 -0.1019316787
C  C77  1  0.46915000  0.71005000  0.96773000  1.0 -0.1080300046
C  C78  1  0.43265000  0.69643000  0.00559000  1.0 -0.14251743
C  C79  1  0.21150000  0.69110000  0.14690000  1.0 0.1476318432
C  C80  1  0.16740000  0.72640000  0.13840000  1.0 -0.2367482299
C  C81  1  0.14157000  0.67103000  0.97123000  1.0 0.1407038682
C  C82  1  0.12339000  0.68321000  0.01341000  1.0 -0.2688134985
C  C83  1  0.10746000  0.71724000  0.83336000  1.0 0.0566365764
C  C84  1  0.09863000  0.75255000  0.79349000  1.0 -0.0211927235
C  C85  1  0.17429000  0.72901000  0.75059000  1.0 -0.0096923742
C  C86  1  0.18400000  0.69444000  0.78996000  1.0 -0.0096923742
C  C87  1  0.04944000  0.74664000  0.91516000  1.0 -0.0418520406
C  C88  1  0.05522000  0.78966000  0.88926000  1.0 -0.13280483
C  C89  1  0.04177000  0.81965000  0.91177000  1.0 -0.1019316787
C  C90  1  0.02320000  0.80676000  0.95872000  1.0 -0.1019316787
C  C91  1  0.01742000  0.76422000  0.98462000  1.0 -0.1080300046
C  C92  1  0.03064000  0.73370000  0.96322000  1.0 -0.14251743
C  C93  1  0.01150000  0.72628000  0.87430000  1.0 -0.0418520406
C  C94  1  0.97874000  0.76910000  0.87164000  1.0 -0.13280483
C  C95  1  0.94100000  0.78204000  0.85916000  1.0 -0.119415388
C  C96  1  0.93614000  0.75250000  0.84998000  1.0 -0.1019316787
C  C97  1  0.96773000  0.71005000  0.85307000  1.0 -0.1080300046
C  C98  1  0.00559000  0.69643000  0.86533000  1.0 -0.14251743
C  C99  1  0.14690000  0.69110000  0.95050000  1.0 0.1476318432
C  C100  1  0.13840000  0.72640000  0.96780000  1.0 -0.2367482299
C  C101  1  0.21617000  0.97123000  0.67103000  1.0 0.1407038682
C  C102  1  0.17999000  0.01341000  0.68321000  1.0 -0.2688134985
C  C103  1  0.34194000  0.83336000  0.71724000  1.0 0.0566365764
C  C104  1  0.35533000  0.79349000  0.75255000  1.0 -0.0211927235
C  C105  1  0.34611000  0.75059000  0.72901000  1.0 -0.0096923742
C  C106  1  0.33160000  0.78996000  0.69444000  1.0 -0.0096923742
C  C107  1  0.28876000  0.91516000  0.74664000  1.0 -0.0418520406
C  C108  1  0.26586000  0.88926000  0.78966000  1.0 -0.14251743
C  C109  1  0.22681000  0.91177000  0.81965000  1.0 -0.1019316787
C  C110  1  0.21132000  0.95872000  0.80676000  1.0 -0.1019316787
C  C111  1  0.23374000  0.98462000  0.76422000  1.0 -0.1019316787
C  C112  1  0.27244000  0.96322000  0.73370000  1.0 -0.14251743
C  C113  1  0.38792000  0.87430000  0.72628000  1.0 -0.0418520406
C  C114  1  0.38052000  0.87164000  0.76910000  1.0 -0.13280483
C  C115  1  0.41780000  0.85916000  0.78204000  1.0 -0.119415388
C  C116  1  0.46138000  0.84998000  0.75250000  1.0 -0.1019316787
C  C117  1  0.46915000  0.85307000  0.71005000  1.0 -0.1080300046
C  C118  1  0.43265000  0.86533000  0.69643000  1.0 -0.14251743
C  C119  1  0.21150000  0.95050000  0.69110000  1.0 0.1476318432
C  C120  1  0.16740000  0.96780000  0.72640000  1.0 -0.2367482299
C  C121  1  0.97123000  0.21617000  0.14157000  1.0 0.1407038682
C  C122  1  0.01341000  0.17999000  0.12339000  1.0 -0.2688134985
C  C123  1  0.83336000  0.34194000  0.10746000  1.0 0.0566365764
C  C124  1  0.79349000  0.35533000  0.09863000  1.0 -0.0211927235
C  C125  1  0.75059000  0.34611000  0.17429000  1.0 -0.0096923742
C  C126  1  0.78996000  0.33160000  0.18400000  1.0 -0.0096923742
C  C127  1  0.91516000  0.28876000  0.04944000  1.0 -0.0418520406
C  C128  1  0.88926000  0.26586000  0.05522000  1.0 -0.13280483
C  C129  1  0.91177000  0.22681000  0.04177000  1.0 -0.1019316787
C  C130  1  0.95872000  0.21132000  0.02320000  1.0 -0.1019316787
C  C131  1  0.98462000  0.23374000  0.01742000  1.0 -0.1019316787
C  C132  1  0.96322000  0.27244000  0.03064000  1.0 -0.14251743
C  C133  1  0.87430000  0.38792000  0.01150000  1.0 -0.0418520406
C  C134  1  0.87164000  0.38052000  0.97874000  1.0 -0.13280483
C  C135  1  0.85916000  0.41780000  0.94100000  1.0 -0.119415388
C  C136  1  0.84998000  0.46138000  0.93614000  1.0 -0.1019316787
C  C137  1  0.85307000  0.46915000  0.96773000  1.0 -0.1080300046
C  C138  1  0.86533000  0.43265000  0.00559000  1.0 -0.14251743
C  C139  1  0.95050000  0.21150000  0.14690000  1.0 0.1476318432
C  C140  1  0.96780000  0.16740000  0.13840000  1.0 -0.2367482299
C  C141  1  0.67103000  0.14157000  0.21617000  1.0 0.1407038682
C  C142  1  0.68321000  0.12339000  0.17999000  1.0 -0.2688134985
C  C143  1  0.71724000  0.10746000  0.34194000  1.0 0.0566365764
C  C144  1  0.75255000  0.09863000  0.35533000  1.0 -0.0211927235
C  C145  1  0.72901000  0.17429000  0.34611000  1.0 -0.0096923742
C  C146  1  0.69444000  0.18400000  0.33160000  1.0 -0.0096923742
C  C147  1  0.74664000  0.04944000  0.28876000  1.0 -0.0418520406
C  C148  1  0.78966000  0.05522000  0.26586000  1.0 -0.13280483
C  C149  1  0.81965000  0.04177000  0.22681000  1.0 -0.1019316787
C  C150  1  0.80676000  0.02320000  0.21132000  1.0 -0.1019316787
C  C151  1  0.76422000  0.01742000  0.23374000  1.0 -0.1019316787
C  C152  1  0.73370000  0.03064000  0.27244000  1.0 -0.14251743
C  C153  1  0.72628000  0.01150000  0.38792000  1.0 -0.0418520406
C  C154  1  0.76910000  0.97874000  0.38052000  1.0 -0.13280483
C  C155  1  0.78204000  0.94100000  0.41780000  1.0 -0.119415388
C  C156  1  0.75250000  0.93614000  0.46138000  1.0 -0.1019316787
C  C157  1  0.71005000  0.96773000  0.46915000  1.0 -0.1080300046
C  C158  1  0.69643000  0.00559000  0.43265000  1.0 -0.14251743
C  C159  1  0.69110000  0.14690000  0.21150000  1.0 0.1476318432
C  C160  1  0.72640000  0.13840000  0.16740000  1.0 -0.2367482299
C  C161  1  0.67103000  0.97123000  0.14157000  1.0 0.1407038682
C  C162  1  0.68321000  0.01341000  0.12339000  1.0 -0.2688134985
C  C163  1  0.71724000  0.83336000  0.10746000  1.0 0.0566365764
C  C164  1  0.75255000  0.79349000  0.09863000  1.0 -0.0211927235
C  C165  1  0.72901000  0.75059000  0.17429000  1.0 -0.0096923742
C  C166  1  0.69444000  0.78996000  0.18400000  1.0 -0.0096923742
C  C167  1  0.74664000  0.91516000  0.04944000  1.0 -0.0418520406
C  C168  1  0.78966000  0.88926000  0.05522000  1.0 -0.13280483
C  C169  1  0.81965000  0.91177000  0.04177000  1.0 -0.1019316787
C  C170  1  0.80676000  0.95872000  0.02320000  1.0 -0.1019316787
C  C171  1  0.76422000  0.98462000  0.01742000  1.0 -0.1019316787
C  C172  1  0.73370000  0.96322000  0.03064000  1.0 -0.14251743
C  C173  1  0.72628000  0.87430000  0.01150000  1.0 -0.0418520406
C  C174  1  0.76910000  0.87164000  0.97874000  1.0 -0.13280483
C  C175  1  0.78204000  0.85916000  0.94100000  1.0 -0.119415388
C  C176  1  0.75250000  0.84998000  0.93614000  1.0 -0.1019316787
C  C177  1  0.71005000  0.85307000  0.96773000  1.0 -0.1080300046
C  C178  1  0.69643000  0.86533000  0.00559000  1.0 -0.14251743
C  C179  1  0.69110000  0.95050000  0.14690000  1.0 0.1476318432
C  C180  1  0.72640000  0.96780000  0.13840000  1.0 -0.2367482299
C  C181  1  0.97123000  0.67103000  0.21617000  1.0 0.1407038682
C  C182  1  0.01341000  0.68321000  0.17999000  1.0 -0.2688134985
C  C183  1  0.83336000  0.71724000  0.34194000  1.0 0.0566365764
C  C184  1  0.79349000  0.75255000  0.35533000  1.0 -0.0211927235
C  C185  1  0.75059000  0.72901000  0.34611000  1.0 -0.0096923742
C  C186  1  0.78996000  0.69444000  0.33160000  1.0 -0.0096923742
C  C187  1  0.91516000  0.74664000  0.28876000  1.0 -0.0418520406
C  C188  1  0.88926000  0.78966000  0.26586000  1.0 -0.13280483
C  C189  1  0.91177000  0.81965000  0.22681000  1.0 -0.1019316787
C  C190  1  0.95872000  0.80676000  0.21132000  1.0 -0.1019316787
C  C191  1  0.98462000  0.76422000  0.23374000  1.0 -0.1019316787
C  C192  1  0.96322000  0.73370000  0.27244000  1.0 -0.14251743
C  C193  1  0.87430000  0.72628000  0.38792000  1.0 -0.0418520406
C  C194  1  0.87164000  0.76910000  0.38052000  1.0 -0.13280483
C  C195  1  0.85916000  0.78204000  0.41780000  1.0 -0.119415388
C  C196  1  0.84998000  0.75250000  0.46138000  1.0 -0.1019316787
C  C197  1  0.85307000  0.71005000  0.46915000  1.0 -0.1080300046
C  C198  1  0.86533000  0.69643000  0.43265000  1.0 -0.14251743
C  C199  1  0.95050000  0.69110000  0.21150000  1.0 0.1476318432
C  C200  1  0.96780000  0.72640000  0.16740000  1.0 -0.2367482299
C  C201  1  0.21617000  0.14157000  0.97123000  1.0 0.1407038682
C  C202  1  0.17999000  0.12339000  0.01341000  1.0 -0.2688134985
C  C203  1  0.34194000  0.10746000  0.83336000  1.0 0.0566365764
C  C204  1  0.35533000  0.09863000  0.79349000  1.0 -0.0211927235
C  C205  1  0.34611000  0.17429000  0.75059000  1.0 -0.0096923742
C  C206  1  0.33160000  0.18400000  0.78996000  1.0 -0.0096923742
C  C207  1  0.28876000  0.04944000  0.91516000  1.0 -0.0418520406
C  C208  1  0.26586000  0.05522000  0.88926000  1.0 -0.13280483
C  C209  1  0.22681000  0.04177000  0.91177000  1.0 -0.1019316787
C  C210  1  0.21132000  0.02320000  0.95872000  1.0 -0.1019316787
C  C211  1  0.23374000  0.01742000  0.98462000  1.0 -0.1019316787
C  C212  1  0.27244000  0.03064000  0.96322000  1.0 -0.14251743
C  C213  1  0.38792000  0.01150000  0.87430000  1.0 -0.0418520406
C  C214  1  0.38052000  0.97874000  0.87164000  1.0 -0.13280483
C  C215  1  0.41780000  0.94100000  0.85916000  1.0 -0.119415388
C  C216  1  0.46138000  0.93614000  0.84998000  1.0 -0.1019316787
C  C217  1  0.46915000  0.96773000  0.85307000  1.0 -0.1080300046
C  C218  1  0.43265000  0.00559000  0.86533000  1.0 -0.14251743
C  C219  1  0.21150000  0.14690000  0.95050000  1.0 0.1476318432
C  C220  1  0.16740000  0.13840000  0.96780000  1.0 -0.2367482299
C  C221  1  0.14157000  0.21617000  0.67103000  1.0 0.1407038682
C  C222  1  0.12339000  0.17999000  0.68321000  1.0 -0.2688134985
C  C223  1  0.10746000  0.34194000  0.71724000  1.0 0.0566365764
C  C224  1  0.09863000  0.35533000  0.75255000  1.0 -0.0211927235
C  C225  1  0.17429000  0.34611000  0.72901000  1.0 -0.0096923742
C  C226  1  0.18400000  0.33160000  0.69444000  1.0 -0.0096923742
C  C227  1  0.04944000  0.28876000  0.74664000  1.0 -0.0418520406
C  C228  1  0.05522000  0.26586000  0.78966000  1.0 -0.14251743
C  C229  1  0.04177000  0.22681000  0.81965000  1.0 -0.1019316787
C  C230  1  0.02320000  0.21132000  0.80676000  1.0 -0.1019316787
C  C231  1  0.01742000  0.23374000  0.76422000  1.0 -0.1019316787
C  C232  1  0.03064000  0.27244000  0.73370000  1.0 -0.14251743
C  C233  1  0.01150000  0.38792000  0.72628000  1.0 -0.0418520406
C  C234  1  0.97874000  0.38052000  0.76910000  1.0 -0.13280483
C  C235  1  0.94100000  0.41780000  0.78204000  1.0 -0.119415388
C  C236  1  0.93614000  0.46138000  0.75250000  1.0 -0.1019316787
C  C237  1  0.96773000  0.46915000  0.71005000  1.0 -0.1080300046
C  C238  1  0.00559000  0.43265000  0.69643000  1.0 -0.14251743
C  C239  1  0.14690000  0.21150000  0.69110000  1.0 0.1476318432
C  C240  1  0.13840000  0.16740000  0.72640000  1.0 -0.2367482299
C  C241  1  0.27877000  0.03383000  0.57897000  1.0 0.1407038682
C  C242  1  0.23659000  0.07001000  0.56679000  1.0 -0.2688134985
C  C243  1  0.41664000  0.90806000  0.53276000  1.0 0.0566365764
C  C244  1  0.45651000  0.89467000  0.49745000  1.0 -0.0211927235
C  C245  1  0.49941000  0.90389000  0.52099000  1.0 -0.0096923742
C  C246  1  0.46004000  0.91840000  0.55556000  1.0 -0.0096923742
C  C247  1  0.33484000  0.96124000  0.50336000  1.0 -0.0418520406
C  C248  1  0.36074000  0.98414000  0.46034000  1.0 -0.13280483
C  C249  1  0.33823000  0.02319000  0.43035000  1.0 -0.1019316787
C  C250  1  0.29128000  0.03868000  0.44324000  1.0 -0.1019316787
C  C251  1  0.26538000  0.01626000  0.48578000  1.0 -0.1019316787
C  C252  1  0.28678000  0.97756000  0.51630000  1.0 -0.14251743
C  C253  1  0.37570000  0.86208000  0.52372000  1.0 -0.0418520406
C  C254  1  0.37836000  0.86948000  0.48090000  1.0 -0.13280483
C  C255  1  0.39084000  0.83220000  0.46796000  1.0 -0.119415388
C  C256  1  0.40002000  0.78862000  0.49750000  1.0 -0.1019316787
C  C257  1  0.39693000  0.78085000  0.53995000  1.0 -0.1080300046
C  C258  1  0.38467000  0.81735000  0.55357000  1.0 -0.14251743
C  C259  1  0.29950000  0.03850000  0.55890000  1.0 0.1476318432
C  C260  1  0.28220000  0.08260000  0.52360000  1.0 -0.2367482299
C  C261  1  0.57897000  0.10843000  0.27877000  1.0 0.1407038682
C  C262  1  0.56679000  0.12661000  0.23659000  1.0 -0.2688134985
C  C263  1  0.53276000  0.14254000  0.41664000  1.0 0.0566365764
C  C264  1  0.49745000  0.15137000  0.45651000  1.0 -0.0211927235
C  C265  1  0.52099000  0.07571000  0.49941000  1.0 -0.0096923742
C  C266  1  0.55556000  0.06600000  0.46004000  1.0 -0.0096923742
C  C267  1  0.50336000  0.20056000  0.33484000  1.0 -0.0418520406
C  C268  1  0.46034000  0.19478000  0.36074000  1.0 -0.13280483
C  C269  1  0.43035000  0.20823000  0.33823000  1.0 -0.1019316787
C  C270  1  0.44324000  0.22680000  0.29128000  1.0 -0.1019316787
C  C271  1  0.48578000  0.23258000  0.26538000  1.0 -0.1019316787
C  C272  1  0.51630000  0.21936000  0.28678000  1.0 -0.14251743
C  C273  1  0.52372000  0.23850000  0.37570000  1.0 -0.0418520406
C  C274  1  0.48090000  0.27126000  0.37836000  1.0 -0.13280483
C  C275  1  0.46796000  0.30900000  0.39084000  1.0 -0.119415388
C  C276  1  0.49750000  0.31386000  0.40002000  1.0 -0.1019316787
C  C277  1  0.53995000  0.28227000  0.39693000  1.0 -0.1080300046
C  C278  1  0.55357000  0.24441000  0.38467000  1.0 -0.14251743
C  C279  1  0.55890000  0.10310000  0.29950000  1.0 0.1476318432
C  C280  1  0.52360000  0.11160000  0.28220000  1.0 -0.2367482299
C  C281  1  0.10843000  0.57897000  0.03383000  1.0 0.1407038682
C  C282  1  0.12661000  0.56679000  0.07001000  1.0 -0.2688134985
C  C283  1  0.14254000  0.53276000  0.90806000  1.0 0.0566365764
C  C284  1  0.15137000  0.49745000  0.89467000  1.0 -0.0211927235
C  C285  1  0.07571000  0.52099000  0.90389000  1.0 -0.0096923742
C  C286  1  0.06600000  0.55556000  0.91840000  1.0 -0.0096923742
C  C287  1  0.20056000  0.50336000  0.96124000  1.0 -0.0418520406
C  C288  1  0.19478000  0.46034000  0.98414000  1.0 -0.13280483
C  C289  1  0.20823000  0.43035000  0.02319000  1.0 -0.1019316787
C  C290  1  0.22680000  0.44324000  0.03868000  1.0 -0.1019316787
C  C291  1  0.23258000  0.48578000  0.01626000  1.0 -0.1019316787
C  C292  1  0.21936000  0.51630000  0.97756000  1.0 -0.14251743
C  C293  1  0.23850000  0.52372000  0.86208000  1.0 -0.0418520406
C  C294  1  0.27126000  0.48090000  0.86948000  1.0 -0.13280483
C  C295  1  0.30900000  0.46796000  0.83220000  1.0 -0.119415388
C  C296  1  0.31386000  0.49750000  0.78862000  1.0 -0.1019316787
C  C297  1  0.28227000  0.53995000  0.78085000  1.0 -0.1080300046
C  C298  1  0.24441000  0.55357000  0.81735000  1.0 -0.14251743
C  C299  1  0.10310000  0.55890000  0.03850000  1.0 0.1476318432
C  C300  1  0.11160000  0.52360000  0.08260000  1.0 -0.2367482299
C  C301  1  0.03383000  0.27877000  0.10843000  1.0 0.1407038682
C  C302  1  0.07001000  0.23659000  0.12661000  1.0 -0.2688134985
C  C303  1  0.90806000  0.41664000  0.14254000  1.0 0.0566365764
C  C304  1  0.89467000  0.45651000  0.15137000  1.0 -0.0211927235
C  C305  1  0.90389000  0.49941000  0.07571000  1.0 -0.0096923742
C  C306  1  0.91840000  0.46004000  0.06600000  1.0 -0.0096923742
C  C307  1  0.96124000  0.33484000  0.20056000  1.0 -0.0418520406
C  C308  1  0.98414000  0.36074000  0.19478000  1.0 -0.13280483
C  C309  1  0.02319000  0.33823000  0.20823000  1.0 -0.1019316787
C  C310  1  0.03868000  0.29128000  0.22680000  1.0 -0.1019316787
C  C311  1  0.01626000  0.26538000  0.23258000  1.0 -0.1019316787
C  C312  1  0.97756000  0.28678000  0.21936000  1.0 -0.14251743
C  C313  1  0.86208000  0.37570000  0.23850000  1.0 -0.0418520406
C  C314  1  0.86948000  0.37836000  0.27126000  1.0 -0.13280483
C  C315  1  0.83220000  0.39084000  0.30900000  1.0 -0.119415388
C  C316  1  0.78862000  0.40002000  0.31386000  1.0 -0.1019316787
C  C317  1  0.78085000  0.39693000  0.28227000  1.0 -0.1080300046
C  C318  1  0.81735000  0.38467000  0.24441000  1.0 -0.14251743
C  C319  1  0.03850000  0.29950000  0.10310000  1.0 0.1476318432
C  C320  1  0.08260000  0.28220000  0.11160000  1.0 -0.2367482299
C  C321  1  0.10843000  0.03383000  0.27877000  1.0 0.1407038682
C  C322  1  0.12661000  0.07001000  0.23659000  1.0 -0.2688134985
C  C323  1  0.14254000  0.90806000  0.41664000  1.0 0.0566365764
C  C324  1  0.15137000  0.89467000  0.45651000  1.0 -0.0211927235
C  C325  1  0.07571000  0.90389000  0.49941000  1.0 -0.0096923742
C  C326  1  0.06600000  0.91840000  0.46004000  1.0 -0.0096923742
C  C327  1  0.20056000  0.96124000  0.33484000  1.0 -0.0418520406
C  C328  1  0.19478000  0.98414000  0.36074000  1.0 -0.13280483
C  C329  1  0.20823000  0.02319000  0.33823000  1.0 -0.1019316787
C  C330  1  0.22680000  0.03868000  0.29128000  1.0 -0.1019316787
C  C331  1  0.23258000  0.01626000  0.26538000  1.0 -0.1019316787
C  C332  1  0.21936000  0.97756000  0.28678000  1.0 -0.14251743
C  C333  1  0.23850000  0.86208000  0.37570000  1.0 -0.0418520406
C  C334  1  0.27126000  0.86948000  0.37836000  1.0 -0.13280483
C  C335  1  0.30900000  0.83220000  0.39084000  1.0 -0.119415388
C  C336  1  0.31386000  0.78862000  0.40002000  1.0 -0.1019316787
C  C337  1  0.28227000  0.78085000  0.39693000  1.0 -0.1080300046
C  C338  1  0.24441000  0.81735000  0.38467000  1.0 -0.14251743
C  C339  1  0.10310000  0.03850000  0.29950000  1.0 0.1476318432
C  C340  1  0.11160000  0.08260000  0.28220000  1.0 -0.2367482299
C  C341  1  0.03383000  0.10843000  0.57897000  1.0 0.1407038682
C  C342  1  0.07001000  0.12661000  0.56679000  1.0 -0.2688134985
C  C343  1  0.90806000  0.14254000  0.53276000  1.0 0.0566365764
C  C344  1  0.89467000  0.15137000  0.49745000  1.0 -0.0211927235
C  C345  1  0.90389000  0.07571000  0.52099000  1.0 -0.0096923742
C  C346  1  0.91840000  0.06600000  0.55556000  1.0 -0.0096923742
C  C347  1  0.96124000  0.20056000  0.50336000  1.0 -0.0418520406
C  C348  1  0.98414000  0.19478000  0.46034000  1.0 -0.13280483
C  C349  1  0.02319000  0.20823000  0.43035000  1.0 -0.1019316787
C  C350  1  0.03868000  0.22680000  0.44324000  1.0 -0.1019316787
C  C351  1  0.01626000  0.23258000  0.48578000  1.0 -0.1019316787
C  C352  1  0.97756000  0.21936000  0.51630000  1.0 -0.14251743
C  C353  1  0.86208000  0.23850000  0.52372000  1.0 -0.0418520406
C  C354  1  0.86948000  0.27126000  0.48090000  1.0 -0.13280483
C  C355  1  0.83220000  0.30900000  0.46796000  1.0 -0.119415388
C  C356  1  0.78862000  0.31386000  0.49750000  1.0 -0.1019316787
C  C357  1  0.78085000  0.28227000  0.53995000  1.0 -0.1080300046
C  C358  1  0.81735000  0.24441000  0.55357000  1.0 -0.14251743
C  C359  1  0.03850000  0.10310000  0.55890000  1.0 0.1476318432
C  C360  1  0.08260000  0.11160000  0.52360000  1.0 -0.2367482299
C  C361  1  0.27877000  0.57897000  0.10843000  1.0 0.1407038682
C  C362  1  0.23659000  0.56679000  0.12661000  1.0 -0.2688134985
C  C363  1  0.41664000  0.53276000  0.14254000  1.0 0.0566365764
C  C364  1  0.45651000  0.49745000  0.15137000  1.0 -0.0211927235
C  C365  1  0.49941000  0.52099000  0.07571000  1.0 -0.0096923742
C  C366  1  0.46004000  0.55556000  0.06600000  1.0 -0.0096923742
C  C367  1  0.33484000  0.50336000  0.20056000  1.0 -0.0418520406
C  C368  1  0.36074000  0.46034000  0.19478000  1.0 -0.13280483
C  C369  1  0.33823000  0.43035000  0.20823000  1.0 -0.1019316787
C  C370  1  0.29128000  0.44324000  0.22680000  1.0 -0.1019316787
C  C371  1  0.26538000  0.48578000  0.23258000  1.0 -0.1019316787
C  C372  1  0.28678000  0.51630000  0.21936000  1.0 -0.14251743
C  C373  1  0.37570000  0.52372000  0.23850000  1.0 -0.0418520406
C  C374  1  0.37836000  0.48090000  0.27126000  1.0 -0.13280483
C  C375  1  0.39084000  0.46796000  0.30900000  1.0 -0.119415388
C  C376  1  0.40002000  0.49750000  0.31386000  1.0 -0.1019316787
C  C377  1  0.39693000  0.53995000  0.28227000  1.0 -0.1080300046
C  C378  1  0.38467000  0.55357000  0.24441000  1.0 -0.14251743
C  C379  1  0.29950000  0.55890000  0.10310000  1.0 0.1476318432
C  C380  1  0.28220000  0.52360000  0.11160000  1.0 -0.2367482299
C  C381  1  0.57897000  0.27877000  0.03383000  1.0 0.1407038682
C  C382  1  0.56679000  0.23659000  0.07001000  1.0 -0.2688134985
C  C383  1  0.53276000  0.41664000  0.90806000  1.0 0.0566365764
C  C384  1  0.49745000  0.45651000  0.89467000  1.0 -0.0211927235
C  C385  1  0.52099000  0.49941000  0.90389000  1.0 -0.0096923742
C  C386  1  0.55556000  0.46004000  0.91840000  1.0 -0.0096923742
C  C387  1  0.50336000  0.33484000  0.96124000  1.0 -0.0418520406
C  C388  1  0.46034000  0.36074000  0.98414000  1.0 -0.13280483
C  C389  1  0.43035000  0.33823000  0.02319000  1.0 -0.1019316787
C  C390  1  0.44324000  0.29128000  0.03868000  1.0 -0.1019316787
C  C391  1  0.48578000  0.26538000  0.01626000  1.0 -0.1019316787
C  C392  1  0.51630000  0.28678000  0.97756000  1.0 -0.14251743
C  C393  1  0.52372000  0.37570000  0.86208000  1.0 -0.0418520406
C  C394  1  0.48090000  0.37836000  0.86948000  1.0 -0.13280483
C  C395  1  0.46796000  0.39084000  0.83220000  1.0 -0.119415388
C  C396  1  0.49750000  0.40002000  0.78862000  1.0 -0.1019316787
C  C397  1  0.53995000  0.39693000  0.78085000  1.0 -0.1080300046
C  C398  1  0.55357000  0.38467000  0.81735000  1.0 -0.14251743
C  C399  1  0.55890000  0.29950000  0.03850000  1.0 0.1476318432
C  C400  1  0.52360000  0.28220000  0.08260000  1.0 -0.2367482299
C  C401  1  0.57897000  0.03383000  0.10843000  1.0 0.1407038682
C  C402  1  0.56679000  0.07001000  0.12661000  1.0 -0.2688134985
C  C403  1  0.53276000  0.90806000  0.14254000  1.0 0.0566365764
C  C404  1  0.49745000  0.89467000  0.15137000  1.0 -0.0211927235
C  C405  1  0.52099000  0.90389000  0.07571000  1.0 -0.0096923742
C  C406  1  0.55556000  0.91840000  0.06600000  1.0 -0.0096923742
C  C407  1  0.50336000  0.96124000  0.20056000  1.0 -0.0418520406
C  C408  1  0.46034000  0.98414000  0.19478000  1.0 -0.13280483
C  C409  1  0.43035000  0.02319000  0.20823000  1.0 -0.1019316787
C  C410  1  0.44324000  0.03868000  0.22680000  1.0 -0.1019316787
C  C411  1  0.48578000  0.01626000  0.23258000  1.0 -0.1019316787
C  C412  1  0.51630000  0.97756000  0.21936000  1.0 -0.14251743
C  C413  1  0.52372000  0.86208000  0.23850000  1.0 -0.0418520406
C  C414  1  0.48090000  0.86948000  0.27126000  1.0 -0.13280483
C  C415  1  0.46796000  0.83220000  0.30900000  1.0 -0.119415388
C  C416  1  0.49750000  0.78862000  0.31386000  1.0 -0.1019316787
C  C417  1  0.53995000  0.78085000  0.28227000  1.0 -0.1080300046
C  C418  1  0.55357000  0.81735000  0.24441000  1.0 -0.14251743
C  C419  1  0.55890000  0.03850000  0.10310000  1.0 0.1476318432
C  C420  1  0.52360000  0.08260000  0.11160000  1.0 -0.2367482299
C  C421  1  0.27877000  0.10843000  0.03383000  1.0 0.1407038682
C  C422  1  0.23659000  0.12661000  0.07001000  1.0 -0.2688134985
C  C423  1  0.41664000  0.14254000  0.90806000  1.0 0.0566365764
C  C424  1  0.45651000  0.15137000  0.89467000  1.0 -0.0211927235
C  C425  1  0.49941000  0.07571000  0.90389000  1.0 -0.0096923742
C  C426  1  0.46004000  0.06600000  0.91840000  1.0 -0.0096923742
C  C427  1  0.33484000  0.20056000  0.96124000  1.0 -0.0418520406
C  C428  1  0.36074000  0.19478000  0.98414000  1.0 -0.13280483
C  C429  1  0.33823000  0.20823000  0.02319000  1.0 -0.1019316787
C  C430  1  0.29128000  0.22680000  0.03868000  1.0 -0.1019316787
C  C431  1  0.26538000  0.23258000  0.01626000  1.0 -0.1019316787
C  C432  1  0.28678000  0.21936000  0.97756000  1.0 -0.14251743
C  C433  1  0.37570000  0.23850000  0.86208000  1.0 -0.0418520406
C  C434  1  0.37836000  0.27126000  0.86948000  1.0 -0.13280483
C  C435  1  0.39084000  0.30900000  0.83220000  1.0 -0.119415388
C  C436  1  0.40002000  0.31386000  0.78862000  1.0 -0.1019316787
C  C437  1  0.39693000  0.28227000  0.78085000  1.0 -0.1080300046
C  C438  1  0.38467000  0.24441000  0.81735000  1.0 -0.14251743
C  C439  1  0.29950000  0.10310000  0.03850000  1.0 0.1476318432
C  C440  1  0.28220000  0.11160000  0.08260000  1.0 -0.2367482299
C  C441  1  0.03383000  0.57897000  0.27877000  1.0 0.1407038682
C  C442  1  0.07001000  0.56679000  0.23659000  1.0 -0.2688134985
C  C443  1  0.90806000  0.53276000  0.41664000  1.0 0.0566365764
C  C444  1  0.89467000  0.49745000  0.45651000  1.0 -0.0211927235
C  C445  1  0.90389000  0.52099000  0.49941000  1.0 -0.0096923742
C  C446  1  0.91840000  0.55556000  0.46004000  1.0 -0.0096923742
C  C447  1  0.96124000  0.50336000  0.33484000  1.0 -0.0418520406
C  C448  1  0.98414000  0.46034000  0.36074000  1.0 -0.13280483
C  C449  1  0.02319000  0.43035000  0.33823000  1.0 -0.1019316787
C  C450  1  0.03868000  0.44324000  0.29128000  1.0 -0.1019316787
C  C451  1  0.01626000  0.48578000  0.26538000  1.0 -0.1019316787
C  C452  1  0.97756000  0.51630000  0.28678000  1.0 -0.14251743
C  C453  1  0.86208000  0.52372000  0.37570000  1.0 -0.0418520406
C  C454  1  0.86948000  0.48090000  0.37836000  1.0 -0.13280483
C  C455  1  0.83220000  0.46796000  0.39084000  1.0 -0.119415388
C  C456  1  0.78862000  0.49750000  0.40002000  1.0 -0.1019316787
C  C457  1  0.78085000  0.53995000  0.39693000  1.0 -0.1080300046
C  C458  1  0.81735000  0.55357000  0.38467000  1.0 -0.14251743
C  C459  1  0.03850000  0.55890000  0.29950000  1.0 0.1476318432
C  C460  1  0.08260000  0.52360000  0.28220000  1.0 -0.2367482299
C  C461  1  0.10843000  0.27877000  0.57897000  1.0 0.1407038682
C  C462  1  0.12661000  0.23659000  0.56679000  1.0 -0.2688134985
C  C463  1  0.14254000  0.41664000  0.53276000  1.0 0.0566365764
C  C464  1  0.15137000  0.45651000  0.49745000  1.0 -0.0211927235
C  C465  1  0.07571000  0.49941000  0.52099000  1.0 -0.0096923742
C  C466  1  0.06600000  0.46004000  0.55556000  1.0 -0.0096923742
C  C467  1  0.20056000  0.33484000  0.50336000  1.0 -0.0418520406
C  C468  1  0.19478000  0.36074000  0.46034000  1.0 -0.13280483
C  C469  1  0.20823000  0.33823000  0.43035000  1.0 -0.1019316787
C  C470  1  0.22680000  0.29128000  0.44324000  1.0 -0.1019316787
C  C471  1  0.23258000  0.26538000  0.48578000  1.0 -0.1019316787
C  C472  1  0.21936000  0.28678000  0.51630000  1.0 -0.14251743
C  C473  1  0.23850000  0.37570000  0.52372000  1.0 -0.0418520406
C  C474  1  0.27126000  0.37836000  0.48090000  1.0 -0.13280483
C  C475  1  0.30900000  0.39084000  0.46796000  1.0 -0.119415388
C  C476  1  0.31386000  0.40002000  0.49750000  1.0 -0.1019316787
C  C477  1  0.28227000  0.39693000  0.53995000  1.0 -0.1080300046
C  C478  1  0.24441000  0.38467000  0.55357000  1.0 -0.14251743
C  C479  1  0.10310000  0.29950000  0.55890000  1.0 0.1476318432
C  C480  1  0.11160000  0.28220000  0.52360000  1.0 -0.2367482299
C  C481  1  0.77877000  0.60843000  0.07897000  1.0 0.1407038682
C  C482  1  0.73659000  0.62661000  0.06679000  1.0 -0.2688134985
C  C483  1  0.91664000  0.64254000  0.03276000  1.0 0.0566365764
C  C484  1  0.95651000  0.65137000  0.99745000  1.0 -0.0211927235
C  C485  1  0.99941000  0.57571000  0.02099000  1.0 -0.0096923742
C  C486  1  0.96004000  0.56600000  0.05556000  1.0 -0.0096923742
C  C487  1  0.83484000  0.70056000  0.00336000  1.0 -0.0418520406
C  C488  1  0.86074000  0.69478000  0.96034000  1.0 -0.13280483
C  C489  1  0.83823000  0.70823000  0.93035000  1.0 -0.1019316787
C  C490  1  0.79128000  0.72680000  0.94324000  1.0 -0.1019316787
C  C491  1  0.76538000  0.73258000  0.98578000  1.0 -0.1019316787
C  C492  1  0.78678000  0.71936000  0.01630000  1.0 -0.14251743
C  C493  1  0.87570000  0.73850000  0.02372000  1.0 -0.0418520406
C  C494  1  0.87836000  0.77126000  0.98090000  1.0 -0.13280483
C  C495  1  0.89084000  0.80900000  0.96796000  1.0 -0.119415388
C  C496  1  0.90002000  0.81386000  0.99750000  1.0 -0.1019316787
C  C497  1  0.89693000  0.78227000  0.03995000  1.0 -0.1080300046
C  C498  1  0.88467000  0.74441000  0.05357000  1.0 -0.14251743
C  C499  1  0.79950000  0.60310000  0.05890000  1.0 0.1476318432
C  C500  1  0.78220000  0.61160000  0.02360000  1.0 -0.2367482299
C  C501  1  0.07897000  0.53383000  0.77877000  1.0 0.1407038682
C  C502  1  0.06679000  0.57001000  0.73659000  1.0 -0.2688134985
C  C503  1  0.03276000  0.40806000  0.91664000  1.0 0.0566365764
C  C504  1  0.99745000  0.39467000  0.95651000  1.0 -0.0211927235
C  C505  1  0.02099000  0.40389000  0.99941000  1.0 -0.0096923742
C  C506  1  0.05556000  0.41840000  0.96004000  1.0 -0.0096923742
C  C507  1  0.00336000  0.46124000  0.83484000  1.0 -0.0418520406
C  C508  1  0.96034000  0.48414000  0.86074000  1.0 -0.13280483
C  C509  1  0.93035000  0.52319000  0.83823000  1.0 -0.1019316787
C  C510  1  0.94324000  0.53868000  0.79128000  1.0 -0.1019316787
C  C511  1  0.98578000  0.51626000  0.76538000  1.0 -0.1019316787
C  C512  1  0.01630000  0.47756000  0.78678000  1.0 -0.14251743
C  C513  1  0.02372000  0.36208000  0.87570000  1.0 -0.0418520406
C  C514  1  0.98090000  0.36948000  0.87836000  1.0 -0.13280483
C  C515  1  0.96796000  0.33220000  0.89084000  1.0 -0.119415388
C  C516  1  0.99750000  0.28862000  0.90002000  1.0 -0.1019316787
C  C517  1  0.03995000  0.28085000  0.89693000  1.0 -0.1080300046
C  C518  1  0.05357000  0.31735000  0.88467000  1.0 -0.14251743
C  C519  1  0.05890000  0.53850000  0.79950000  1.0 0.1476318432
C  C520  1  0.02360000  0.58260000  0.78220000  1.0 -0.2367482299
C  C521  1  0.60843000  0.77877000  0.53383000  1.0 0.1407038682
C  C522  1  0.62661000  0.73659000  0.57001000  1.0 -0.2688134985
C  C523  1  0.64254000  0.91664000  0.40806000  1.0 0.0566365764
C  C524  1  0.65137000  0.95651000  0.39467000  1.0 -0.0211927235
C  C525  1  0.57571000  0.99941000  0.40389000  1.0 -0.0096923742
C  C526  1  0.56600000  0.96004000  0.41840000  1.0 -0.0096923742
C  C527  1  0.70056000  0.83484000  0.46124000  1.0 -0.0418520406
C  C528  1  0.69478000  0.86074000  0.48414000  1.0 -0.13280483
C  C529  1  0.70823000  0.83823000  0.52319000  1.0 -0.1019316787
C  C530  1  0.72680000  0.79128000  0.53868000  1.0 -0.1019316787
C  C531  1  0.73258000  0.76538000  0.51626000  1.0 -0.1019316787
C  C532  1  0.71936000  0.78678000  0.47756000  1.0 -0.14251743
C  C533  1  0.73850000  0.87570000  0.36208000  1.0 -0.0418520406
C  C534  1  0.77126000  0.87836000  0.36948000  1.0 -0.13280483
C  C535  1  0.80900000  0.89084000  0.33220000  1.0 -0.119415388
C  C536  1  0.81386000  0.90002000  0.28862000  1.0 -0.1019316787
C  C537  1  0.78227000  0.89693000  0.28085000  1.0 -0.1080300046
C  C538  1  0.74441000  0.88467000  0.31735000  1.0 -0.14251743
C  C539  1  0.60310000  0.79950000  0.53850000  1.0 0.1476318432
C  C540  1  0.61160000  0.78220000  0.58260000  1.0 -0.2367482299
C  C541  1  0.53383000  0.07897000  0.60843000  1.0 0.1407038682
C  C542  1  0.57001000  0.06679000  0.62661000  1.0 -0.2688134985
C  C543  1  0.40806000  0.03276000  0.64254000  1.0 0.0566365764
C  C544  1  0.39467000  0.99745000  0.65137000  1.0 -0.0211927235
C  C545  1  0.40389000  0.02099000  0.57571000  1.0 -0.0096923742
C  C546  1  0.41840000  0.05556000  0.56600000  1.0 -0.0096923742
C  C547  1  0.46124000  0.00336000  0.70056000  1.0 -0.0418520406
C  C548  1  0.48414000  0.96034000  0.69478000  1.0 -0.13280483
C  C549  1  0.52319000  0.93035000  0.70823000  1.0 -0.1019316787
C  C550  1  0.53868000  0.94324000  0.72680000  1.0 -0.1019316787
C  C551  1  0.51626000  0.98578000  0.73258000  1.0 -0.1019316787
C  C552  1  0.47756000  0.01630000  0.71936000  1.0 -0.14251743
C  C553  1  0.36208000  0.02372000  0.73850000  1.0 -0.0418520406
C  C554  1  0.36948000  0.98090000  0.77126000  1.0 -0.13280483
C  C555  1  0.33220000  0.96796000  0.80900000  1.0 -0.119415388
C  C556  1  0.28862000  0.99750000  0.81386000  1.0 -0.1019316787
C  C557  1  0.28085000  0.03995000  0.78227000  1.0 -0.1080300046
C  C558  1  0.31735000  0.05357000  0.74441000  1.0 -0.14251743
C  C559  1  0.53850000  0.05890000  0.60310000  1.0 0.1476318432
C  C560  1  0.58260000  0.02360000  0.61160000  1.0 -0.2367482299
C  C561  1  0.60843000  0.07897000  0.77877000  1.0 0.1407038682
C  C562  1  0.62661000  0.06679000  0.73659000  1.0 -0.2688134985
C  C563  1  0.64254000  0.03276000  0.91664000  1.0 0.0566365764
C  C564  1  0.65137000  0.99745000  0.95651000  1.0 -0.0211927235
C  C565  1  0.57571000  0.02099000  0.99941000  1.0 -0.0096923742
C  C566  1  0.56600000  0.05556000  0.96004000  1.0 -0.0096923742
C  C567  1  0.70056000  0.00336000  0.83484000  1.0 -0.0418520406
C  C568  1  0.69478000  0.96034000  0.86074000  1.0 -0.13280483
C  C569  1  0.70823000  0.93035000  0.83823000  1.0 -0.1019316787
C  C570  1  0.72680000  0.94324000  0.79128000  1.0 -0.1019316787
C  C571  1  0.73258000  0.98578000  0.76538000  1.0 -0.1019316787
C  C572  1  0.71936000  0.01630000  0.78678000  1.0 -0.14251743
C  C573  1  0.73850000  0.02372000  0.87570000  1.0 -0.0418520406
C  C574  1  0.77126000  0.98090000  0.87836000  1.0 -0.13280483
C  C575  1  0.80900000  0.96796000  0.89084000  1.0 -0.119415388
C  C576  1  0.81386000  0.99750000  0.90002000  1.0 -0.1019316787
C  C577  1  0.78227000  0.03995000  0.89693000  1.0 -0.1080300046
C  C578  1  0.74441000  0.05357000  0.88467000  1.0 -0.14251743
C  C579  1  0.60310000  0.05890000  0.79950000  1.0 0.1476318432
C  C580  1  0.61160000  0.02360000  0.78220000  1.0 -0.2367482299
C  C581  1  0.53383000  0.77877000  0.07897000  1.0 0.1407038682
C  C582  1  0.57001000  0.73659000  0.06679000  1.0 -0.2688134985
C  C583  1  0.40806000  0.91664000  0.03276000  1.0 0.0566365764
C  C584  1  0.39467000  0.95651000  0.99745000  1.0 -0.0211927235
C  C585  1  0.40389000  0.99941000  0.02099000  1.0 -0.0096923742
C  C586  1  0.41840000  0.96004000  0.05556000  1.0 -0.0096923742
C  C587  1  0.46124000  0.83484000  0.00336000  1.0 -0.0418520406
C  C588  1  0.48414000  0.86074000  0.96034000  1.0 -0.13280483
C  C589  1  0.52319000  0.83823000  0.93035000  1.0 -0.1019316787
C  C590  1  0.53868000  0.79128000  0.94324000  1.0 -0.1019316787
C  C591  1  0.51626000  0.76538000  0.98578000  1.0 -0.1019316787
C  C592  1  0.47756000  0.78678000  0.01630000  1.0 -0.14251743
C  C593  1  0.36208000  0.87570000  0.02372000  1.0 -0.0418520406
C  C594  1  0.36948000  0.87836000  0.98090000  1.0 -0.13280483
C  C595  1  0.33220000  0.89084000  0.96796000  1.0 -0.119415388
C  C596  1  0.28862000  0.90002000  0.99750000  1.0 -0.1019316787
C  C597  1  0.28085000  0.89693000  0.03995000  1.0 -0.1080300046
C  C598  1  0.31735000  0.88467000  0.05357000  1.0 -0.14251743
C  C599  1  0.53850000  0.79950000  0.05890000  1.0 0.1476318432
C  C600  1  0.58260000  0.78220000  0.02360000  1.0 -0.2367482299
C  C601  1  0.77877000  0.53383000  0.60843000  1.0 0.1407038682
C  C602  1  0.73659000  0.57001000  0.62661000  1.0 -0.2688134985
C  C603  1  0.91664000  0.40806000  0.64254000  1.0 0.0566365764
C  C604  1  0.95651000  0.39467000  0.65137000  1.0 -0.0211927235
C  C605  1  0.99941000  0.40389000  0.57571000  1.0 -0.0096923742
C  C606  1  0.96004000  0.41840000  0.56600000  1.0 -0.0096923742
C  C607  1  0.83484000  0.46124000  0.70056000  1.0 -0.0418520406
C  C608  1  0.86074000  0.48414000  0.69478000  1.0 -0.13280483
C  C609  1  0.83823000  0.52319000  0.70823000  1.0 -0.1019316787
C  C610  1  0.79128000  0.53868000  0.72680000  1.0 -0.1019316787
C  C611  1  0.76538000  0.51626000  0.73258000  1.0 -0.1019316787
C  C612  1  0.78678000  0.47756000  0.71936000  1.0 -0.14251743
C  C613  1  0.87570000  0.36208000  0.73850000  1.0 -0.0418520406
C  C614  1  0.87836000  0.36948000  0.77126000  1.0 -0.13280483
C  C615  1  0.89084000  0.33220000  0.80900000  1.0 -0.119415388
C  C616  1  0.90002000  0.28862000  0.81386000  1.0 -0.1019316787
C  C617  1  0.89693000  0.28085000  0.78227000  1.0 -0.1080300046
C  C618  1  0.88467000  0.31735000  0.74441000  1.0 -0.14251743
C  C619  1  0.79950000  0.53850000  0.60310000  1.0 0.1476318432
C  C620  1  0.78220000  0.58260000  0.61160000  1.0 -0.2367482299
C  C621  1  0.07897000  0.60843000  0.53383000  1.0 0.1407038682
C  C622  1  0.06679000  0.62661000  0.57001000  1.0 -0.2688134985
C  C623  1  0.03276000  0.64254000  0.40806000  1.0 0.0566365764
C  C624  1  0.99745000  0.65137000  0.39467000  1.0 -0.0211927235
C  C625  1  0.02099000  0.57571000  0.40389000  1.0 -0.0096923742
C  C626  1  0.05556000  0.56600000  0.41840000  1.0 -0.0096923742
C  C627  1  0.00336000  0.70056000  0.46124000  1.0 -0.0418520406
C  C628  1  0.96034000  0.69478000  0.48414000  1.0 -0.13280483
C  C629  1  0.93035000  0.70823000  0.52319000  1.0 -0.1019316787
C  C630  1  0.94324000  0.72680000  0.53868000  1.0 -0.1019316787
C  C631  1  0.98578000  0.73258000  0.51626000  1.0 -0.1019316787
C  C632  1  0.01630000  0.71936000  0.47756000  1.0 -0.14251743
C  C633  1  0.02372000  0.73850000  0.36208000  1.0 -0.0418520406
C  C634  1  0.98090000  0.77126000  0.36948000  1.0 -0.13280483
C  C635  1  0.96796000  0.80900000  0.33220000  1.0 -0.119415388
C  C636  1  0.99750000  0.81386000  0.28862000  1.0 -0.1019316787
C  C637  1  0.03995000  0.78227000  0.28085000  1.0 -0.1080300046
C  C638  1  0.05357000  0.74441000  0.31735000  1.0 -0.14251743
C  C639  1  0.05890000  0.60310000  0.53850000  1.0 0.1476318432
C  C640  1  0.02360000  0.61160000  0.58260000  1.0 -0.2367482299
C  C641  1  0.07897000  0.77877000  0.60843000  1.0 0.1407038682
C  C642  1  0.06679000  0.73659000  0.62661000  1.0 -0.2688134985
C  C643  1  0.03276000  0.91664000  0.64254000  1.0 0.0566365764
C  C644  1  0.99745000  0.95651000  0.65137000  1.0 -0.0211927235
C  C645  1  0.02099000  0.99941000  0.57571000  1.0 -0.0096923742
C  C646  1  0.05556000  0.96004000  0.56600000  1.0 -0.0096923742
C  C647  1  0.00336000  0.83484000  0.70056000  1.0 -0.0418520406
C  C648  1  0.96034000  0.86074000  0.69478000  1.0 -0.13280483
C  C649  1  0.93035000  0.83823000  0.70823000  1.0 -0.1019316787
C  C650  1  0.94324000  0.79128000  0.72680000  1.0 -0.1019316787
C  C651  1  0.98578000  0.76538000  0.73258000  1.0 -0.1019316787
C  C652  1  0.01630000  0.78678000  0.71936000  1.0 -0.14251743
C  C653  1  0.02372000  0.87570000  0.73850000  1.0 -0.0418520406
C  C654  1  0.98090000  0.87836000  0.77126000  1.0 -0.13280483
C  C655  1  0.96796000  0.89084000  0.80900000  1.0 -0.119415388
C  C656  1  0.99750000  0.90002000  0.81386000  1.0 -0.1019316787
C  C657  1  0.03995000  0.89693000  0.78227000  1.0 -0.1080300046
C  C658  1  0.05357000  0.88467000  0.74441000  1.0 -0.14251743
C  C659  1  0.05890000  0.79950000  0.60310000  1.0 0.1476318432
C  C660  1  0.02360000  0.78220000  0.61160000  1.0 -0.2367482299
C  C661  1  0.77877000  0.07897000  0.53383000  1.0 0.1407038682
C  C662  1  0.73659000  0.06679000  0.57001000  1.0 -0.2688134985
C  C663  1  0.91664000  0.03276000  0.40806000  1.0 0.0566365764
C  C664  1  0.95651000  0.99745000  0.39467000  1.0 -0.0211927235
C  C665  1  0.99941000  0.02099000  0.40389000  1.0 -0.0096923742
C  C666  1  0.96004000  0.05556000  0.41840000  1.0 -0.0096923742
C  C667  1  0.83484000  0.00336000  0.46124000  1.0 -0.0418520406
C  C668  1  0.86074000  0.96034000  0.48414000  1.0 -0.13280483
C  C669  1  0.83823000  0.93035000  0.52319000  1.0 -0.1019316787
C  C670  1  0.79128000  0.94324000  0.53868000  1.0 -0.1019316787
C  C671  1  0.76538000  0.98578000  0.51626000  1.0 -0.1019316787
C  C672  1  0.78678000  0.01630000  0.47756000  1.0 -0.14251743
C  C673  1  0.87570000  0.02372000  0.36208000  1.0 -0.0418520406
C  C674  1  0.87836000  0.98090000  0.36948000  1.0 -0.13280483
C  C675  1  0.89084000  0.96796000  0.33220000  1.0 -0.119415388
C  C676  1  0.90002000  0.99750000  0.28862000  1.0 -0.1019316787
C  C677  1  0.89693000  0.03995000  0.28085000  1.0 -0.1080300046
C  C678  1  0.88467000  0.05357000  0.31735000  1.0 -0.14251743
C  C679  1  0.79950000  0.05890000  0.53850000  1.0 0.1476318432
C  C680  1  0.78220000  0.02360000  0.58260000  1.0 -0.2367482299
C  C681  1  0.53383000  0.60843000  0.77877000  1.0 0.1407038682
C  C682  1  0.57001000  0.62661000  0.73659000  1.0 -0.2688134985
C  C683  1  0.40806000  0.64254000  0.91664000  1.0 0.0566365764
C  C684  1  0.39467000  0.65137000  0.95651000  1.0 -0.0211927235
C  C685  1  0.40389000  0.57571000  0.99941000  1.0 -0.0096923742
C  C686  1  0.41840000  0.56600000  0.96004000  1.0 -0.0096923742
C  C687  1  0.46124000  0.70056000  0.83484000  1.0 -0.0418520406
C  C688  1  0.48414000  0.69478000  0.86074000  1.0 -0.13280483
C  C689  1  0.52319000  0.70823000  0.83823000  1.0 -0.1019316787
C  C690  1  0.53868000  0.72680000  0.79128000  1.0 -0.1019316787
C  C691  1  0.51626000  0.73258000  0.76538000  1.0 -0.1019316787
C  C692  1  0.47756000  0.71936000  0.78678000  1.0 -0.14251743
C  C693  1  0.36208000  0.73850000  0.87570000  1.0 -0.0418520406
C  C694  1  0.36948000  0.77126000  0.87836000  1.0 -0.13280483
C  C695  1  0.33220000  0.80900000  0.89084000  1.0 -0.119415388
C  C696  1  0.28862000  0.81386000  0.90002000  1.0 -0.1019316787
C  C697  1  0.28085000  0.78227000  0.89693000  1.0 -0.1080300046
C  C698  1  0.31735000  0.74441000  0.88467000  1.0 -0.14251743
C  C699  1  0.53850000  0.60310000  0.79950000  1.0 0.1476318432
C  C700  1  0.58260000  0.61160000  0.78220000  1.0 -0.2367482299
C  C701  1  0.60843000  0.53383000  0.07897000  1.0 0.1407038682
C  C702  1  0.62661000  0.57001000  0.06679000  1.0 -0.2688134985
C  C703  1  0.64254000  0.40806000  0.03276000  1.0 0.0566365764
C  C704  1  0.65137000  0.39467000  0.99745000  1.0 -0.0211927235
C  C705  1  0.57571000  0.40389000  0.02099000  1.0 -0.0096923742
C  C706  1  0.56600000  0.41840000  0.05556000  1.0 -0.0096923742
C  C707  1  0.70056000  0.46124000  0.00336000  1.0 -0.0418520406
C  C708  1  0.69478000  0.48414000  0.96034000  1.0 -0.13280483
C  C709  1  0.70823000  0.52319000  0.93035000  1.0 -0.1019316787
C  C710  1  0.72680000  0.53868000  0.94324000  1.0 -0.1019316787
C  C711  1  0.73258000  0.51626000  0.98578000  1.0 -0.1019316787
C  C712  1  0.71936000  0.47756000  0.01630000  1.0 -0.14251743
C  C713  1  0.73850000  0.36208000  0.02372000  1.0 -0.0418520406
C  C714  1  0.77126000  0.36948000  0.98090000  1.0 -0.13280483
C  C715  1  0.80900000  0.33220000  0.96796000  1.0 -0.119415388
C  C716  1  0.81386000  0.28862000  0.99750000  1.0 -0.1019316787
C  C717  1  0.78227000  0.28085000  0.03995000  1.0 -0.1080300046
C  C718  1  0.74441000  0.31735000  0.05357000  1.0 -0.14251743
C  C719  1  0.60310000  0.53850000  0.05890000  1.0 0.1476318432
C  C720  1  0.61160000  0.58260000  0.02360000  1.0 -0.2367482299
C  C721  1  0.47123000  0.71617000  0.17103000  1.0 0.1407038682
C  C722  1  0.51341000  0.67999000  0.18321000  1.0 -0.2688134985
C  C723  1  0.33333333  0.84194000  0.21724000  1.0 0.0566365764
C  C724  1  0.29349000  0.85533000  0.25255000  1.0 -0.0211927235
C  C725  1  0.25059000  0.84611000  0.22901000  1.0 -0.0096923742
C  C726  1  0.28996000  0.83160000  0.19444000  1.0 -0.0096923742
C  C727  1  0.41516000  0.78876000  0.24664000  1.0 -0.0418520406
C  C728  1  0.38926000  0.76586000  0.28966000  1.0 -0.13280483
C  C729  1  0.41177000  0.72681000  0.31965000  1.0 -0.1019316787
C  C730  1  0.45872000  0.71132000  0.30676000  1.0 -0.1019316787
C  C731  1  0.48462000  0.73374000  0.26422000  1.0 -0.1019316787
C  C732  1  0.46322000  0.77244000  0.23370000  1.0 -0.14251743
C  C733  1  0.37430000  0.88792000  0.22628000  1.0 -0.0418520406
C  C734  1  0.37164000  0.88052000  0.26910000  1.0 -0.13280483
C  C735  1  0.35916000  0.91780000  0.28204000  1.0 -0.119415388
C  C736  1  0.34998000  0.96138000  0.25250000  1.0 -0.1019316787
C  C737  1  0.35307000  0.96915000  0.21005000  1.0 -0.1080300046
C  C738  1  0.36533000  0.93265000  0.19643000  1.0 -0.14251743
C  C739  1  0.45050000  0.71150000  0.19110000  1.0 0.1476318432
C  C740  1  0.46780000  0.66740000  0.22640000  1.0 -0.2367482299
C  C741  1  0.17103000  0.64157000  0.47123000  1.0 0.1407038682
C  C742  1  0.18321000  0.62339000  0.51341000  1.0 -0.2688134985
C  C743  1  0.21724000  0.60746000  0.33333333  1.0 0.0566365764
C  C744  1  0.25255000  0.59863000  0.29349000  1.0 -0.0211927235
C  C745  1  0.22901000  0.67429000  0.25059000  1.0 -0.0096923742
C  C746  1  0.19444000  0.68400000  0.28996000  1.0 -0.0096923742
C  C747  1  0.24664000  0.54944000  0.41516000  1.0 -0.0418520406
C  C748  1  0.28966000  0.55522000  0.38926000  1.0 -0.14251743
C  C749  1  0.31965000  0.54177000  0.41177000  1.0 -0.1019316787
C  C750  1  0.30676000  0.52320000  0.45872000  1.0 -0.1019316787
C  C751  1  0.26422000  0.51742000  0.48462000  1.0 -0.1019316787
C  C752  1  0.23370000  0.53064000  0.46322000  1.0 -0.14251743
C  C753  1  0.22628000  0.51150000  0.37430000  1.0 -0.0418520406
C  C754  1  0.26910000  0.47874000  0.37164000  1.0 -0.13280483
C  C755  1  0.28204000  0.44100000  0.35916000  1.0 -0.119415388
C  C756  1  0.25250000  0.43614000  0.34998000  1.0 -0.1019316787
C  C757  1  0.21005000  0.46773000  0.35307000  1.0 -0.1080300046
C  C758  1  0.19643000  0.50559000  0.36533000  1.0 -0.14251743
C  C759  1  0.19110000  0.64690000  0.45050000  1.0 0.1476318432
C  C760  1  0.22640000  0.63840000  0.46780000  1.0 -0.2367482299
C  C761  1  0.64157000  0.17103000  0.71617000  1.0 0.1407038682
C  C762  1  0.62339000  0.18321000  0.67999000  1.0 -0.2688134985
C  C763  1  0.60746000  0.21724000  0.84194000  1.0 0.0566365764
C  C764  1  0.59863000  0.25255000  0.85533000  1.0 -0.0211927235
C  C765  1  0.67429000  0.22901000  0.84611000  1.0 -0.0096923742
C  C766  1  0.68400000  0.19444000  0.83160000  1.0 -0.0096923742
C  C767  1  0.54944000  0.24664000  0.78876000  1.0 -0.0418520406
C  C768  1  0.55522000  0.28966000  0.76586000  1.0 -0.13280483
C  C769  1  0.54177000  0.31965000  0.72681000  1.0 -0.1019316787
C  C770  1  0.52320000  0.30676000  0.71132000  1.0 -0.1019316787
C  C771  1  0.51742000  0.26422000  0.73374000  1.0 -0.1019316787
C  C772  1  0.53064000  0.23370000  0.77244000  1.0 -0.14251743
C  C773  1  0.51150000  0.22628000  0.88792000  1.0 -0.0418520406
C  C774  1  0.47874000  0.26910000  0.88052000  1.0 -0.13280483
C  C775  1  0.44100000  0.28204000  0.91780000  1.0 -0.119415388
C  C776  1  0.43614000  0.25250000  0.96138000  1.0 -0.1019316787
C  C777  1  0.46773000  0.21005000  0.96915000  1.0 -0.1080300046
C  C778  1  0.50559000  0.19643000  0.93265000  1.0 -0.14251743
C  C779  1  0.64690000  0.19110000  0.71150000  1.0 0.1476318432
C  C780  1  0.63840000  0.22640000  0.66740000  1.0 -0.2367482299
C  C781  1  0.71617000  0.47123000  0.64157000  1.0 0.1407038682
C  C782  1  0.67999000  0.51341000  0.62339000  1.0 -0.2688134985
C  C783  1  0.84194000  0.33333333  0.60746000  1.0 0.0566365764
C  C784  1  0.85533000  0.29349000  0.59863000  1.0 -0.0211927235
C  C785  1  0.84611000  0.25059000  0.67429000  1.0 -0.0096923742
C  C786  1  0.83160000  0.28996000  0.68400000  1.0 -0.0096923742
C  C787  1  0.78876000  0.41516000  0.54944000  1.0 -0.0418520406
C  C788  1  0.76586000  0.38926000  0.55522000  1.0 -0.13280483
C  C789  1  0.72681000  0.41177000  0.54177000  1.0 -0.1019316787
C  C790  1  0.71132000  0.45872000  0.52320000  1.0 -0.1019316787
C  C791  1  0.73374000  0.48462000  0.51742000  1.0 -0.1019316787
C  C792  1  0.77244000  0.46322000  0.53064000  1.0 -0.14251743
C  C793  1  0.88792000  0.37430000  0.51150000  1.0 -0.0418520406
C  C794  1  0.88052000  0.37164000  0.47874000  1.0 -0.13280483
C  C795  1  0.91780000  0.35916000  0.44100000  1.0 -0.119415388
C  C796  1  0.96138000  0.34998000  0.43614000  1.0 -0.1019316787
C  C797  1  0.96915000  0.35307000  0.46773000  1.0 -0.1080300046
C  C798  1  0.93265000  0.36533000  0.50559000  1.0 -0.14251743
C  C799  1  0.71150000  0.45050000  0.64690000  1.0 0.1476318432
C  C800  1  0.66740000  0.46780000  0.63840000  1.0 -0.2367482299
C  C801  1  0.64157000  0.71617000  0.47123000  1.0 0.1407038682
C  C802  1  0.62339000  0.67999000  0.51341000  1.0 -0.2688134985
C  C803  1  0.60746000  0.84194000  0.33333333  1.0 0.0566365764
C  C804  1  0.59863000  0.85533000  0.29349000  1.0 -0.0211927235
C  C805  1  0.67429000  0.84611000  0.25059000  1.0 -0.0096923742
C  C806  1  0.68400000  0.83160000  0.28996000  1.0 -0.0096923742
C  C807  1  0.54944000  0.78876000  0.41516000  1.0 -0.0418520406
C  C808  1  0.55522000  0.76586000  0.38926000  1.0 -0.13280483
C  C809  1  0.54177000  0.72681000  0.41177000  1.0 -0.1019316787
C  C810  1  0.52320000  0.71132000  0.45872000  1.0 -0.1019316787
C  C811  1  0.51742000  0.73374000  0.48462000  1.0 -0.1019316787
C  C812  1  0.53064000  0.77244000  0.46322000  1.0 -0.14251743
C  C813  1  0.51150000  0.88792000  0.37430000  1.0 -0.0418520406
C  C814  1  0.47874000  0.88052000  0.37164000  1.0 -0.13280483
C  C815  1  0.44100000  0.91780000  0.35916000  1.0 -0.119415388
C  C816  1  0.43614000  0.96138000  0.34998000  1.0 -0.1019316787
C  C817  1  0.46773000  0.96915000  0.35307000  1.0 -0.1080300046
C  C818  1  0.50559000  0.93265000  0.36533000  1.0 -0.14251743
C  C819  1  0.64690000  0.71150000  0.45050000  1.0 0.1476318432
C  C820  1  0.63840000  0.66740000  0.46780000  1.0 -0.2367482299
C  C821  1  0.71617000  0.64157000  0.17103000  1.0 0.1407038682
C  C822  1  0.67999000  0.62339000  0.18321000  1.0 -0.2688134985
C  C823  1  0.84194000  0.60746000  0.21724000  1.0 0.0566365764
C  C824  1  0.85533000  0.59863000  0.25255000  1.0 -0.0211927235
C  C825  1  0.84611000  0.67429000  0.22901000  1.0 -0.0096923742
C  C826  1  0.83160000  0.68400000  0.19444000  1.0 -0.0096923742
C  C827  1  0.78876000  0.54944000  0.24664000  1.0 -0.0418520406
C  C828  1  0.76586000  0.55522000  0.28966000  1.0 -0.13280483
C  C829  1  0.72681000  0.54177000  0.31965000  1.0 -0.1019316787
C  C830  1  0.71132000  0.52320000  0.30676000  1.0 -0.1019316787
C  C831  1  0.73374000  0.51742000  0.26422000  1.0 -0.1019316787
C  C832  1  0.77244000  0.53064000  0.23370000  1.0 -0.14251743
C  C833  1  0.88792000  0.51150000  0.22628000  1.0 -0.0418520406
C  C834  1  0.88052000  0.47874000  0.26910000  1.0 -0.13280483
C  C835  1  0.91780000  0.44100000  0.28204000  1.0 -0.119415388
C  C836  1  0.96138000  0.43614000  0.25250000  1.0 -0.1019316787
C  C837  1  0.96915000  0.46773000  0.21005000  1.0 -0.1080300046
C  C838  1  0.93265000  0.50559000  0.19643000  1.0 -0.14251743
C  C839  1  0.71150000  0.64690000  0.19110000  1.0 0.1476318432
C  C840  1  0.66740000  0.63840000  0.22640000  1.0 -0.2367482299
C  C841  1  0.47123000  0.17103000  0.64157000  1.0 0.1407038682
C  C842  1  0.51341000  0.18321000  0.62339000  1.0 -0.2688134985
C  C843  1  0.33333333  0.21724000  0.60746000  1.0 0.0566365764
C  C844  1  0.29349000  0.25255000  0.59863000  1.0 -0.0211927235
C  C845  1  0.25059000  0.22901000  0.67429000  1.0 -0.0096923742
C  C846  1  0.28996000  0.19444000  0.68400000  1.0 -0.0096923742
C  C847  1  0.41516000  0.24664000  0.54944000  1.0 -0.0418520406
C  C848  1  0.38926000  0.28966000  0.55522000  1.0 -0.13280483
C  C849  1  0.41177000  0.31965000  0.54177000  1.0 -0.1019316787
C  C850  1  0.45872000  0.30676000  0.52320000  1.0 -0.1019316787
C  C851  1  0.48462000  0.26422000  0.51742000  1.0 -0.1019316787
C  C852  1  0.46322000  0.23370000  0.53064000  1.0 -0.14251743
C  C853  1  0.37430000  0.22628000  0.51150000  1.0 -0.0418520406
C  C854  1  0.37164000  0.26910000  0.47874000  1.0 -0.13280483
C  C855  1  0.35916000  0.28204000  0.44100000  1.0 -0.119415388
C  C856  1  0.34998000  0.25250000  0.43614000  1.0 -0.1019316787
C  C857  1  0.35307000  0.21005000  0.46773000  1.0 -0.1080300046
C  C858  1  0.36533000  0.19643000  0.50559000  1.0 -0.14251743
C  C859  1  0.45050000  0.19110000  0.64690000  1.0 0.1476318432
C  C860  1  0.46780000  0.22640000  0.63840000  1.0 -0.2367482299
C  C861  1  0.17103000  0.47123000  0.71617000  1.0 0.1407038682
C  C862  1  0.18321000  0.51341000  0.67999000  1.0 -0.2688134985
C  C863  1  0.21724000  0.33333333  0.84194000  1.0 0.0566365764
C  C864  1  0.25255000  0.29349000  0.85533000  1.0 -0.0211927235
C  C865  1  0.22901000  0.25059000  0.84611000  1.0 -0.0096923742
C  C866  1  0.19444000  0.28996000  0.83160000  1.0 -0.0096923742
C  C867  1  0.24664000  0.41516000  0.78876000  1.0 -0.0418520406
C  C868  1  0.28966000  0.38926000  0.76586000  1.0 -0.13280483
C  C869  1  0.31965000  0.41177000  0.72681000  1.0 -0.1019316787
C  C870  1  0.30676000  0.45872000  0.71132000  1.0 -0.1019316787
C  C871  1  0.26422000  0.48462000  0.73374000  1.0 -0.1019316787
C  C872  1  0.23370000  0.46322000  0.77244000  1.0 -0.14251743
C  C873  1  0.22628000  0.37430000  0.88792000  1.0 -0.0418520406
C  C874  1  0.26910000  0.37164000  0.88052000  1.0 -0.13280483
C  C875  1  0.28204000  0.35916000  0.91780000  1.0 -0.119415388
C  C876  1  0.25250000  0.34998000  0.96138000  1.0 -0.1019316787
C  C877  1  0.21005000  0.35307000  0.96915000  1.0 -0.1080300046
C  C878  1  0.19643000  0.36533000  0.93265000  1.0 -0.14251743
C  C879  1  0.19110000  0.45050000  0.71150000  1.0 0.1476318432
C  C880  1  0.22640000  0.46780000  0.66740000  1.0 -0.2367482299
C  C881  1  0.17103000  0.71617000  0.64157000  1.0 0.1407038682
C  C882  1  0.18321000  0.67999000  0.62339000  1.0 -0.2688134985
C  C883  1  0.21724000  0.84194000  0.60746000  1.0 0.0566365764
C  C884  1  0.25255000  0.85533000  0.59863000  1.0 -0.0211927235
C  C885  1  0.22901000  0.84611000  0.67429000  1.0 -0.0096923742
C  C886  1  0.19444000  0.83160000  0.68400000  1.0 -0.0096923742
C  C887  1  0.24664000  0.78876000  0.54944000  1.0 -0.0418520406
C  C888  1  0.28966000  0.76586000  0.55522000  1.0 -0.13280483
C  C889  1  0.31965000  0.72681000  0.54177000  1.0 -0.1019316787
C  C890  1  0.30676000  0.71132000  0.52320000  1.0 -0.1019316787
C  C891  1  0.26422000  0.73374000  0.51742000  1.0 -0.1019316787
C  C892  1  0.23370000  0.77244000  0.53064000  1.0 -0.14251743
C  C893  1  0.22628000  0.88792000  0.51150000  1.0 -0.0418520406
C  C894  1  0.26910000  0.88052000  0.47874000  1.0 -0.13280483
C  C895  1  0.28204000  0.91780000  0.44100000  1.0 -0.119415388
C  C896  1  0.25250000  0.96138000  0.43614000  1.0 -0.1019316787
C  C897  1  0.21005000  0.96915000  0.46773000  1.0 -0.1080300046
C  C898  1  0.19643000  0.93265000  0.50559000  1.0 -0.14251743
C  C899  1  0.19110000  0.71150000  0.64690000  1.0 0.1476318432
C  C900  1  0.22640000  0.66740000  0.63840000  1.0 -0.2367482299
C  C901  1  0.47123000  0.64157000  0.71617000  1.0 0.1407038682
C  C902  1  0.51341000  0.62339000  0.67999000  1.0 -0.2688134985
C  C903  1  0.33333333  0.60746000  0.84194000  1.0 0.0566365764
C  C904  1  0.29349000  0.59863000  0.85533000  1.0 -0.0211927235
C  C905  1  0.25059000  0.67429000  0.84611000  1.0 -0.0096923742
C  C906  1  0.28996000  0.68400000  0.83160000  1.0 -0.0096923742
C  C907  1  0.41516000  0.54944000  0.78876000  1.0 -0.0418520406
C  C908  1  0.38926000  0.55522000  0.76586000  1.0 -0.13280483
C  C909  1  0.41177000  0.54177000  0.72681000  1.0 -0.1019316787
C  C910  1  0.45872000  0.52320000  0.71132000  1.0 -0.1019316787
C  C911  1  0.48462000  0.51742000  0.73374000  1.0 -0.1019316787
C  C912  1  0.46322000  0.53064000  0.77244000  1.0 -0.14251743
C  C913  1  0.37430000  0.51150000  0.88792000  1.0 -0.0418520406
C  C914  1  0.37164000  0.47874000  0.88052000  1.0 -0.13280483
C  C915  1  0.35916000  0.44100000  0.91780000  1.0 -0.119415388
C  C916  1  0.34998000  0.43614000  0.96138000  1.0 -0.1019316787
C  C917  1  0.35307000  0.46773000  0.96915000  1.0 -0.1080300046
C  C918  1  0.36533000  0.50559000  0.93265000  1.0 -0.14251743
C  C919  1  0.45050000  0.64690000  0.71150000  1.0 0.1476318432
C  C920  1  0.46780000  0.63840000  0.66740000  1.0 -0.2367482299
C  C921  1  0.71617000  0.17103000  0.47123000  1.0 0.1407038682
C  C922  1  0.67999000  0.18321000  0.51341000  1.0 -0.2688134985
C  C923  1  0.84194000  0.21724000  0.33333333  1.0 0.0566365764
C  C924  1  0.85533000  0.25255000  0.29349000  1.0 -0.0211927235
C  C925  1  0.84611000  0.22901000  0.25059000  1.0 -0.0096923742
C  C926  1  0.83160000  0.19444000  0.28996000  1.0 -0.0096923742
C  C927  1  0.78876000  0.24664000  0.41516000  1.0 -0.0418520406
C  C928  1  0.76586000  0.28966000  0.38926000  1.0 -0.13280483
C  C929  1  0.72681000  0.31965000  0.41177000  1.0 -0.1019316787
C  C930  1  0.71132000  0.30676000  0.45872000  1.0 -0.1019316787
C  C931  1  0.73374000  0.26422000  0.48462000  1.0 -0.1019316787
C  C932  1  0.77244000  0.23370000  0.46322000  1.0 -0.14251743
C  C933  1  0.88792000  0.22628000  0.37430000  1.0 -0.0418520406
C  C934  1  0.88052000  0.26910000  0.37164000  1.0 -0.13280483
C  C935  1  0.91780000  0.28204000  0.35916000  1.0 -0.119415388
C  C936  1  0.96138000  0.25250000  0.34998000  1.0 -0.1019316787
C  C937  1  0.96915000  0.21005000  0.35307000  1.0 -0.1080300046
C  C938  1  0.93265000  0.19643000  0.36533000  1.0 -0.14251743
C  C939  1  0.71150000  0.19110000  0.45050000  1.0 0.1476318432
C  C940  1  0.66740000  0.22640000  0.46780000  1.0 -0.2367482299
C  C941  1  0.64157000  0.47123000  0.17103000  1.0 0.1407038682
C  C942  1  0.62339000  0.51341000  0.18321000  1.0 -0.2688134985
C  C943  1  0.60746000  0.33333333  0.21724000  1.0 0.0566365764
C  C944  1  0.59863000  0.29349000  0.25255000  1.0 -0.0211927235
C  C945  1  0.67429000  0.25059000  0.22901000  1.0 -0.0096923742
C  C946  1  0.68400000  0.28996000  0.19444000  1.0 -0.0096923742
C  C947  1  0.54944000  0.41516000  0.24664000  1.0 -0.0418520406
C  C948  1  0.55522000  0.38926000  0.28966000  1.0 -0.13280483
C  C949  1  0.54177000  0.41177000  0.31965000  1.0 -0.1019316787
C  C950  1  0.52320000  0.45872000  0.30676000  1.0 -0.1019316787
C  C951  1  0.51742000  0.48462000  0.26422000  1.0 -0.1019316787
C  C952  1  0.53064000  0.46322000  0.23370000  1.0 -0.14251743
C  C953  1  0.51150000  0.37430000  0.22628000  1.0 -0.0418520406
C  C954  1  0.47874000  0.37164000  0.26910000  1.0 -0.13280483
C  C955  1  0.44100000  0.35916000  0.28204000  1.0 -0.119415388
C  C956  1  0.43614000  0.34998000  0.25250000  1.0 -0.1019316787
C  C957  1  0.46773000  0.35307000  0.21005000  1.0 -0.1080300046
C  C958  1  0.50559000  0.36533000  0.19643000  1.0 -0.14251743
C  C959  1  0.64690000  0.45050000  0.19110000  1.0 0.1476318432
C  C960  1  0.63840000  0.46780000  0.22640000  1.0 -0.2367482299
N  N1  1  0.93784000  0.15456000  0.66358000  1.0 -0.3605790531
N  N2  1  0.83157000  0.15091000  0.68807000  1.0 -0.1793174783
N  N3  1  0.75204000  0.13164000  0.75858000  1.0 -0.1704658772
N  N4  1  0.66358000  0.24402000  0.93784000  1.0 -0.3605790531
N  N5  1  0.68807000  0.32945000  0.83157000  1.0 -0.1793174783
N  N6  1  0.75858000  0.35774000  0.75204000  1.0 -0.1704658772
N  N7  1  0.15456000  0.93784000  0.24402000  1.0 -0.3605790531
N  N8  1  0.15091000  0.83157000  0.32945000  1.0 -0.1793174783
N  N9  1  0.13164000  0.75204000  0.35774000  1.0 -0.1704658772
N  N10  1  0.24402000  0.66358000  0.15456000  1.0 -0.3605790531
N  N11  1  0.32945000  0.68807000  0.15091000  1.0 -0.1793174783
N  N12  1  0.35774000  0.75858000  0.13164000  1.0 -0.1704658772
N  N13  1  0.15456000  0.66358000  0.93784000  1.0 -0.3605790531
N  N14  1  0.15091000  0.68807000  0.83157000  1.0 -0.1793174783
N  N15  1  0.13164000  0.75858000  0.75204000  1.0 -0.1704658772
N  N16  1  0.24402000  0.93784000  0.66358000  1.0 -0.3605790531
N  N17  1  0.32945000  0.83157000  0.68807000  1.0 -0.1793174783
N  N18  1  0.35774000  0.75204000  0.75858000  1.0 -0.1704658772
N  N19  1  0.93784000  0.24402000  0.15456000  1.0 -0.3605790531
N  N20  1  0.83157000  0.32945000  0.15091000  1.0 -0.1793174783
N  N21  1  0.75204000  0.35774000  0.13164000  1.0 -0.1704658772
N  N22  1  0.66358000  0.15456000  0.24402000  1.0 -0.3605790531
N  N23  1  0.68807000  0.15091000  0.32945000  1.0 -0.1793174783
N  N24  1  0.75858000  0.13164000  0.35774000  1.0 -0.1704658772
N  N25  1  0.66358000  0.93784000  0.15456000  1.0 -0.3605790531
N  N26  1  0.68807000  0.83157000  0.15091000  1.0 -0.1793174783
N  N27  1  0.75858000  0.75204000  0.13164000  1.0 -0.1704658772
N  N28  1  0.93784000  0.66358000  0.24402000  1.0 -0.3605790531
N  N29  1  0.83157000  0.68807000  0.32945000  1.0 -0.1793174783
N  N30  1  0.75204000  0.75858000  0.35774000  1.0 -0.1704658772
N  N31  1  0.24402000  0.15456000  0.93784000  1.0 -0.3605790531
N  N32  1  0.32945000  0.15091000  0.83157000  1.0 -0.1793174783
N  N33  1  0.35774000  0.13164000  0.75204000  1.0 -0.1704658772
N  N34  1  0.15456000  0.24402000  0.66358000  1.0 -0.3605790531
N  N35  1  0.15091000  0.32945000  0.68807000  1.0 -0.1793174783
N  N36  1  0.13164000  0.35774000  0.75858000  1.0 -0.1704658772
N  N37  1  0.31216000  0.00598000  0.58642000  1.0 -0.3605790531
N  N38  1  0.41843000  0.92055000  0.56193000  1.0 -0.1793174783
N  N39  1  0.49796000  0.89226000  0.49142000  1.0 -0.1704658772
N  N40  1  0.58642000  0.09544000  0.31216000  1.0 -0.3605790531
N  N41  1  0.56193000  0.09909000  0.41843000  1.0 -0.1793174783
N  N42  1  0.49142000  0.11836000  0.49796000  1.0 -0.1704658772
N  N43  1  0.09544000  0.58642000  0.00598000  1.0 -0.3605790531
N  N44  1  0.09909000  0.56193000  0.92055000  1.0 -0.1793174783
N  N45  1  0.11836000  0.49142000  0.89226000  1.0 -0.1704658772
N  N46  1  0.00598000  0.31216000  0.09544000  1.0 -0.3605790531
N  N47  1  0.92055000  0.41843000  0.09909000  1.0 -0.1793174783
N  N48  1  0.89226000  0.49796000  0.11836000  1.0 -0.1704658772
N  N49  1  0.09544000  0.00598000  0.31216000  1.0 -0.3605790531
N  N50  1  0.09909000  0.92055000  0.41843000  1.0 -0.1793174783
N  N51  1  0.11836000  0.89226000  0.49796000  1.0 -0.1704658772
N  N52  1  0.00598000  0.09544000  0.58642000  1.0 -0.3605790531
N  N53  1  0.92055000  0.09909000  0.56193000  1.0 -0.1793174783
N  N54  1  0.89226000  0.11836000  0.49142000  1.0 -0.1704658772
N  N55  1  0.31216000  0.58642000  0.09544000  1.0 -0.3605790531
N  N56  1  0.41843000  0.56193000  0.09909000  1.0 -0.1793174783
N  N57  1  0.49796000  0.49142000  0.11836000  1.0 -0.1704658772
N  N58  1  0.58642000  0.31216000  0.00598000  1.0 -0.3605790531
N  N59  1  0.56193000  0.41843000  0.92055000  1.0 -0.1793174783
N  N60  1  0.49142000  0.49796000  0.89226000  1.0 -0.1704658772
N  N61  1  0.58642000  0.00598000  0.09544000  1.0 -0.3605790531
N  N62  1  0.56193000  0.92055000  0.09909000  1.0 -0.1793174783
N  N63  1  0.49142000  0.89226000  0.11836000  1.0 -0.1704658772
N  N64  1  0.31216000  0.09544000  0.00598000  1.0 -0.3605790531
N  N65  1  0.41843000  0.09909000  0.92055000  1.0 -0.1793174783
N  N66  1  0.49796000  0.11836000  0.89226000  1.0 -0.1704658772
N  N67  1  0.00598000  0.58642000  0.31216000  1.0 -0.3605790531
N  N68  1  0.92055000  0.56193000  0.41843000  1.0 -0.1793174783
N  N69  1  0.89226000  0.49142000  0.49796000  1.0 -0.1704658772
N  N70  1  0.09544000  0.31216000  0.58642000  1.0 -0.3605790531
N  N71  1  0.09909000  0.41843000  0.56193000  1.0 -0.1793174783
N  N72  1  0.11836000  0.49796000  0.49142000  1.0 -0.1704658772
N  N73  1  0.81216000  0.59544000  0.08642000  1.0 -0.3605790531
N  N74  1  0.91843000  0.59909000  0.06193000  1.0 -0.1793174783
N  N75  1  0.99796000  0.61836000  0.99142000  1.0 -0.1704658772
N  N76  1  0.08642000  0.50598000  0.81216000  1.0 -0.3605790531
N  N77  1  0.06193000  0.42055000  0.91843000  1.0 -0.1793174783
N  N78  1  0.99142000  0.39226000  0.99796000  1.0 -0.1704658772
N  N79  1  0.59544000  0.81216000  0.50598000  1.0 -0.3605790531
N  N80  1  0.59909000  0.91843000  0.42055000  1.0 -0.1793174783
N  N81  1  0.61836000  0.99796000  0.39226000  1.0 -0.1704658772
N  N82  1  0.50598000  0.08642000  0.59544000  1.0 -0.3605790531
N  N83  1  0.42055000  0.06193000  0.59909000  1.0 -0.1793174783
N  N84  1  0.39226000  0.99142000  0.61836000  1.0 -0.1704658772
N  N85  1  0.59544000  0.08642000  0.81216000  1.0 -0.3605790531
N  N86  1  0.59909000  0.06193000  0.91843000  1.0 -0.1793174783
N  N87  1  0.61836000  0.99142000  0.99796000  1.0 -0.1704658772
N  N88  1  0.50598000  0.81216000  0.08642000  1.0 -0.3605790531
N  N89  1  0.42055000  0.91843000  0.06193000  1.0 -0.1793174783
N  N90  1  0.39226000  0.99796000  0.99142000  1.0 -0.1704658772
N  N91  1  0.81216000  0.50598000  0.59544000  1.0 -0.3605790531
N  N92  1  0.91843000  0.42055000  0.59909000  1.0 -0.1793174783
N  N93  1  0.99796000  0.39226000  0.61836000  1.0 -0.1704658772
N  N94  1  0.08642000  0.59544000  0.50598000  1.0 -0.3605790531
N  N95  1  0.06193000  0.59909000  0.42055000  1.0 -0.1793174783
N  N96  1  0.99142000  0.61836000  0.39226000  1.0 -0.1704658772
N  N97  1  0.08642000  0.81216000  0.59544000  1.0 -0.3605790531
N  N98  1  0.06193000  0.91843000  0.59909000  1.0 -0.1793174783
N  N99  1  0.99142000  0.99796000  0.61836000  1.0 -0.1704658772
N  N100  1  0.81216000  0.08642000  0.50598000  1.0 -0.3605790531
N  N101  1  0.91843000  0.06193000  0.42055000  1.0 -0.1793174783
N  N102  1  0.99796000  0.99142000  0.39226000  1.0 -0.1704658772
N  N103  1  0.50598000  0.59544000  0.81216000  1.0 -0.3605790531
N  N104  1  0.42055000  0.59909000  0.91843000  1.0 -0.1793174783
N  N105  1  0.39226000  0.61836000  0.99796000  1.0 -0.1704658772
N  N106  1  0.59544000  0.50598000  0.08642000  1.0 -0.3605790531
N  N107  1  0.59909000  0.42055000  0.06193000  1.0 -0.1793174783
N  N108  1  0.61836000  0.39226000  0.99142000  1.0 -0.1704658772
N  N109  1  0.43784000  0.74402000  0.16358000  1.0 -0.3605790531
N  N110  1  0.33157000  0.82945000  0.18807000  1.0 -0.1793174783
N  N111  1  0.25204000  0.85774000  0.25858000  1.0 -0.1704658772
N  N112  1  0.16358000  0.65456000  0.43784000  1.0 -0.3605790531
N  N113  1  0.18807000  0.65091000  0.33157000  1.0 -0.1793174783
N  N114  1  0.25858000  0.63164000  0.25204000  1.0 -0.1704658772
N  N115  1  0.65456000  0.16358000  0.74402000  1.0 -0.3605790531
N  N116  1  0.65091000  0.18807000  0.82945000  1.0 -0.1793174783
N  N117  1  0.63164000  0.25858000  0.85774000  1.0 -0.1704658772
N  N118  1  0.74402000  0.43784000  0.65456000  1.0 -0.3605790531
N  N119  1  0.82945000  0.33157000  0.65091000  1.0 -0.1793174783
N  N120  1  0.85774000  0.25204000  0.63164000  1.0 -0.1704658772
N  N121  1  0.65456000  0.74402000  0.43784000  1.0 -0.3605790531
N  N122  1  0.65091000  0.82945000  0.33157000  1.0 -0.1793174783
N  N123  1  0.63164000  0.85774000  0.25204000  1.0 -0.1704658772
N  N124  1  0.74402000  0.65456000  0.16358000  1.0 -0.3605790531
N  N125  1  0.82945000  0.65091000  0.18807000  1.0 -0.1793174783
N  N126  1  0.85774000  0.63164000  0.25858000  1.0 -0.1704658772
N  N127  1  0.43784000  0.16358000  0.65456000  1.0 -0.3605790531
N  N128  1  0.33157000  0.18807000  0.65091000  1.0 -0.1793174783
N  N129  1  0.25204000  0.25858000  0.63164000  1.0 -0.1704658772
N  N130  1  0.16358000  0.43784000  0.74402000  1.0 -0.3605790531
N  N131  1  0.18807000  0.33157000  0.82945000  1.0 -0.1793174783
N  N132  1  0.25858000  0.25204000  0.85774000  1.0 -0.1704658772
N  N133  1  0.16358000  0.74402000  0.65456000  1.0 -0.3605790531
N  N134  1  0.18807000  0.82945000  0.65091000  1.0 -0.1793174783
N  N135  1  0.25858000  0.85774000  0.63164000  1.0 -0.1704658772
N  N136  1  0.43784000  0.65456000  0.74402000  1.0 -0.3605790531
N  N137  1  0.33157000  0.65091000  0.82945000  1.0 -0.1793174783
N  N138  1  0.25204000  0.63164000  0.85774000  1.0 -0.1704658772
N  N139  1  0.74402000  0.16358000  0.43784000  1.0 -0.3605790531
N  N140  1  0.82945000  0.18807000  0.33157000  1.0 -0.1793174783
N  N141  1  0.85774000  0.25858000  0.25204000  1.0 -0.1704658772
N  N142  1  0.65456000  0.43784000  0.16358000  1.0 -0.3605790531
N  N143  1  0.65091000  0.33157000  0.18807000  1.0 -0.1793174783
N  N144  1  0.63164000  0.25204000  0.25858000  1.0 -0.1704658772
