# DDEC6 charges by PACMAN v1.1 (https://github.com/mtap-research/PACMAN-charge/)
data_ISOLIO_ion_pacman
_symmetry_space_group_name_H-M   'P 1'
_cell_length_a   34.67990000
_cell_length_b   34.67990000
_cell_length_c   34.67990000
_cell_angle_alpha   60.00000000
_cell_angle_beta   60.00000000
_cell_angle_gamma   60.00000000
_symmetry_Int_Tables_number   1
_chemical_formula_structural   Ag6B5P6H96C108(N9F10)2
_chemical_formula_sum   'Ag48 B40 P48 H768 C864 N144 F160'
_cell_volume   29492.97017936
_cell_formula_units_Z   8
loop_
 _symmetry_equiv_pos_site_id
 _symmetry_equiv_pos_as_xyz
  1  'x, y, z'
loop_
 _atom_site_type_symbol
 _atom_site_label
 _atom_site_symmetry_multiplicity
 _atom_site_fract_x
 _atom_site_fract_y
 _atom_site_fract_z
 _atom_site_occupancy
 _atom_site_charge
Ag  Ag1  1  0.62347000  0.30147000  0.90023000  1.0 0.2034363483
Ag  Ag2  1  0.90023000  0.17483000  0.62347000  1.0 0.2034363483
Ag  Ag3  1  0.30147000  0.62347000  0.17483000  1.0 0.2034363483
Ag  Ag4  1  0.17483000  0.90023000  0.30147000  1.0 0.2034363483
Ag  Ag5  1  0.30147000  0.90023000  0.62347000  1.0 0.2034363483
Ag  Ag6  1  0.17483000  0.62347000  0.90023000  1.0 0.2034363483
Ag  Ag7  1  0.62347000  0.17483000  0.30147000  1.0 0.2034363483
Ag  Ag8  1  0.90023000  0.30147000  0.17483000  1.0 0.2034363483
Ag  Ag9  1  0.90023000  0.62347000  0.30147000  1.0 0.2034363483
Ag  Ag10  1  0.62347000  0.90023000  0.17483000  1.0 0.2034363483
Ag  Ag11  1  0.17483000  0.30147000  0.62347000  1.0 0.2034363483
Ag  Ag12  1  0.30147000  0.17483000  0.90023000  1.0 0.2034363483
Ag  Ag13  1  0.62653000  0.07517000  0.34977000  1.0 0.2034363483
Ag  Ag14  1  0.34977000  0.94853000  0.62653000  1.0 0.2034363483
Ag  Ag15  1  0.94853000  0.34977000  0.07517000  1.0 0.2034363483
Ag  Ag16  1  0.07517000  0.62653000  0.94853000  1.0 0.2034363483
Ag  Ag17  1  0.94853000  0.07517000  0.62653000  1.0 0.2034363483
Ag  Ag18  1  0.07517000  0.94853000  0.34977000  1.0 0.2034363483
Ag  Ag19  1  0.62653000  0.34977000  0.94853000  1.0 0.2034363483
Ag  Ag20  1  0.34977000  0.62653000  0.07517000  1.0 0.2034363483
Ag  Ag21  1  0.34977000  0.07517000  0.94853000  1.0 0.2034363483
Ag  Ag22  1  0.62653000  0.94853000  0.07517000  1.0 0.2034363483
Ag  Ag23  1  0.07517000  0.34977000  0.62653000  1.0 0.2034363483
Ag  Ag24  1  0.94853000  0.62653000  0.34977000  1.0 0.2034363483
Ag  Ag25  1  0.12653000  0.44853000  0.84977000  1.0 0.2034363483
Ag  Ag26  1  0.84977000  0.57517000  0.12653000  1.0 0.2034363483
Ag  Ag27  1  0.44853000  0.12653000  0.57517000  1.0 0.2034363483
Ag  Ag28  1  0.57517000  0.84977000  0.44853000  1.0 0.2034363483
Ag  Ag29  1  0.44853000  0.84977000  0.12653000  1.0 0.2034363483
Ag  Ag30  1  0.57517000  0.12653000  0.84977000  1.0 0.2034363483
Ag  Ag31  1  0.12653000  0.57517000  0.44853000  1.0 0.2034363483
Ag  Ag32  1  0.84977000  0.44853000  0.57517000  1.0 0.2034363483
Ag  Ag33  1  0.84977000  0.12653000  0.44853000  1.0 0.2034363483
Ag  Ag34  1  0.12653000  0.84977000  0.57517000  1.0 0.2034363483
Ag  Ag35  1  0.57517000  0.44853000  0.12653000  1.0 0.2034363483
Ag  Ag36  1  0.44853000  0.57517000  0.84977000  1.0 0.2034363483
Ag  Ag37  1  0.12347000  0.67483000  0.40023000  1.0 0.2034363483
Ag  Ag38  1  0.40023000  0.80147000  0.12347000  1.0 0.2034363483
Ag  Ag39  1  0.80147000  0.40023000  0.67483000  1.0 0.2034363483
Ag  Ag40  1  0.67483000  0.12347000  0.80147000  1.0 0.2034363483
Ag  Ag41  1  0.80147000  0.67483000  0.12347000  1.0 0.2034363483
Ag  Ag42  1  0.67483000  0.80147000  0.40023000  1.0 0.2034363483
Ag  Ag43  1  0.12347000  0.40023000  0.80147000  1.0 0.2034363483
Ag  Ag44  1  0.40023000  0.12347000  0.67483000  1.0 0.2034363483
Ag  Ag45  1  0.40023000  0.67483000  0.80147000  1.0 0.2034363483
Ag  Ag46  1  0.12347000  0.80147000  0.67483000  1.0 0.2034363483
Ag  Ag47  1  0.67483000  0.40023000  0.12347000  1.0 0.2034363483
Ag  Ag48  1  0.80147000  0.12347000  0.40023000  1.0 0.2034363483
B  B1  1  0.43730000  0.43730000  0.68810000  1.0 1.0556784388
B  B2  1  0.68810000  0.43730000  0.43730000  1.0 1.0521295612
B  B3  1  0.43730000  0.68810000  0.43730000  1.0 1.0521295612
B  B4  1  0.43730000  0.43730000  0.43730000  1.0 1.0521295612
B  B5  1  0.81270000  0.81270000  0.56190000  1.0 1.0521295612
B  B6  1  0.56190000  0.81270000  0.81270000  1.0 1.0521295612
B  B7  1  0.81270000  0.81270000  0.81270000  1.0 1.0521295612
B  B8  1  0.81270000  0.56190000  0.81270000  1.0 1.0521295612
B  B9  1  0.31270000  0.31270000  0.06190000  1.0 1.0521295612
B  B10  1  0.06190000  0.31270000  0.31270000  1.0 1.0521295612
B  B11  1  0.31270000  0.06190000  0.31270000  1.0 1.0521295612
B  B12  1  0.31270000  0.31270000  0.31270000  1.0 1.0521295612
B  B13  1  0.93730000  0.93730000  0.18810000  1.0 1.0521295612
B  B14  1  0.18810000  0.93730000  0.93730000  1.0 1.0521295612
B  B15  1  0.93730000  0.93730000  0.93730000  1.0 1.0521295612
B  B16  1  0.93730000  0.18810000  0.93730000  1.0 1.0556784388
B  B17  1  0.69179000  0.30821000  0.30821000  1.0 0.9767428184
B  B18  1  0.30821000  0.69179000  0.69179000  1.0 0.9767428184
B  B19  1  0.30821000  0.30821000  0.69179000  1.0 0.9767428184
B  B20  1  0.69179000  0.69179000  0.30821000  1.0 0.9748551365
B  B21  1  0.69179000  0.30821000  0.69179000  1.0 0.9767428184
B  B22  1  0.30821000  0.69179000  0.30821000  1.0 0.9767428184
B  B23  1  0.55821000  0.55821000  0.94179000  1.0 0.9767428184
B  B24  1  0.94179000  0.94179000  0.55821000  1.0 0.9767428184
B  B25  1  0.94179000  0.55821000  0.55821000  1.0 0.9767428184
B  B26  1  0.55821000  0.94179000  0.94179000  1.0 0.9767428184
B  B27  1  0.55821000  0.94179000  0.55821000  1.0 0.9767428184
B  B28  1  0.94179000  0.55821000  0.94179000  1.0 0.9767428184
B  B29  1  0.05821000  0.44179000  0.44179000  1.0 0.9767428184
B  B30  1  0.44179000  0.05821000  0.05821000  1.0 0.9767428184
B  B31  1  0.44179000  0.44179000  0.05821000  1.0 0.9767428184
B  B32  1  0.05821000  0.05821000  0.44179000  1.0 0.9767428184
B  B33  1  0.05821000  0.44179000  0.05821000  1.0 0.9748551365
B  B34  1  0.44179000  0.05821000  0.44179000  1.0 0.9767428184
B  B35  1  0.19179000  0.19179000  0.80821000  1.0 0.9767428184
B  B36  1  0.80821000  0.80821000  0.19179000  1.0 0.9767428184
B  B37  1  0.80821000  0.19179000  0.19179000  1.0 0.9767428184
B  B38  1  0.19179000  0.80821000  0.80821000  1.0 0.9767428184
B  B39  1  0.19179000  0.80821000  0.19179000  1.0 0.9748551365
B  B40  1  0.80821000  0.19179000  0.80821000  1.0 0.9767428184
P  P1  1  0.70504000  0.33720000  0.89406000  1.0 0.1835307582
P  P2  1  0.89406000  0.06370000  0.70504000  1.0 0.1835307582
P  P3  1  0.33720000  0.70504000  0.06370000  1.0 0.1872211189
P  P4  1  0.06370000  0.89406000  0.33720000  1.0 0.1872211189
P  P5  1  0.33720000  0.89406000  0.70504000  1.0 0.1872211189
P  P6  1  0.06370000  0.70504000  0.89406000  1.0 0.1835307582
P  P7  1  0.70504000  0.06370000  0.33720000  1.0 0.1872211189
P  P8  1  0.89406000  0.33720000  0.06370000  1.0 0.1872211189
P  P9  1  0.89406000  0.70504000  0.33720000  1.0 0.1835307582
P  P10  1  0.70504000  0.89406000  0.06370000  1.0 0.1872211189
P  P11  1  0.06370000  0.33720000  0.70504000  1.0 0.1872211189
P  P12  1  0.33720000  0.06370000  0.89406000  1.0 0.1835307582
P  P13  1  0.54496000  0.18630000  0.35594000  1.0 0.1835307582
P  P14  1  0.35594000  0.91280000  0.54496000  1.0 0.1872211189
P  P15  1  0.91280000  0.35594000  0.18630000  1.0 0.1872211189
P  P16  1  0.18630000  0.54496000  0.91280000  1.0 0.1872211189
P  P17  1  0.91280000  0.18630000  0.54496000  1.0 0.1835307582
P  P18  1  0.18630000  0.91280000  0.35594000  1.0 0.1872211189
P  P19  1  0.54496000  0.35594000  0.91280000  1.0 0.1872211189
P  P20  1  0.35594000  0.54496000  0.18630000  1.0 0.1872211189
P  P21  1  0.35594000  0.18630000  0.91280000  1.0 0.1872211189
P  P22  1  0.54496000  0.91280000  0.18630000  1.0 0.1835307582
P  P23  1  0.18630000  0.35594000  0.54496000  1.0 0.1835307582
P  P24  1  0.91280000  0.54496000  0.35594000  1.0 0.1872211189
P  P25  1  0.04496000  0.41280000  0.85594000  1.0 0.1872211189
P  P26  1  0.85594000  0.68630000  0.04496000  1.0 0.1835307582
P  P27  1  0.41280000  0.04496000  0.68630000  1.0 0.1872211189
P  P28  1  0.68630000  0.85594000  0.41280000  1.0 0.1872211189
P  P29  1  0.41280000  0.85594000  0.04496000  1.0 0.1835307582
P  P30  1  0.68630000  0.04496000  0.85594000  1.0 0.1835307582
P  P31  1  0.04496000  0.68630000  0.41280000  1.0 0.1835307582
P  P32  1  0.85594000  0.41280000  0.68630000  1.0 0.1835307582
P  P33  1  0.85594000  0.04496000  0.41280000  1.0 0.1835307582
P  P34  1  0.04496000  0.85594000  0.68630000  1.0 0.1835307582
P  P35  1  0.68630000  0.41280000  0.04496000  1.0 0.1835307582
P  P36  1  0.41280000  0.68630000  0.85594000  1.0 0.1835307582
P  P37  1  0.20504000  0.56370000  0.39406000  1.0 0.1872211189
P  P38  1  0.39406000  0.83720000  0.20504000  1.0 0.1835307582
P  P39  1  0.83720000  0.39406000  0.56370000  1.0 0.1835307582
P  P40  1  0.56370000  0.20504000  0.83720000  1.0 0.1872211189
P  P41  1  0.83720000  0.56370000  0.20504000  1.0 0.1835307582
P  P42  1  0.56370000  0.83720000  0.39406000  1.0 0.1872211189
P  P43  1  0.20504000  0.39406000  0.83720000  1.0 0.1835307582
P  P44  1  0.39406000  0.20504000  0.56370000  1.0 0.1835307582
P  P45  1  0.39406000  0.56370000  0.83720000  1.0 0.1872211189
P  P46  1  0.20504000  0.83720000  0.56370000  1.0 0.1872211189
P  P47  1  0.56370000  0.39406000  0.20504000  1.0 0.1872211189
P  P48  1  0.83720000  0.20504000  0.39406000  1.0 0.1835307582
H  H1  1  0.76742000  0.36774000  0.79652000  1.0 0.1098581579
H  H2  1  0.72548000  0.35050000  0.72146000  1.0 0.1190361646
H  H3  1  0.67169000  0.31853000  0.79017000  1.0 0.1190361646
H  H4  1  0.66152000  0.43526000  0.86834000  1.0 0.1098581579
H  H5  1  0.67897000  0.50035000  0.85157000  1.0 0.1190361646
H  H6  1  0.75357000  0.48927000  0.84495000  1.0 0.1361826966
H  H7  1  0.80558000  0.41530000  0.86546000  1.0 0.1190361646
H  H8  1  0.78735000  0.34805000  0.88643000  1.0 0.1190361646
H  H9  1  0.71297000  0.28149000  0.98417000  1.0 0.1098581579
H  H10  1  0.76805000  0.21171000  0.01609000  1.0 0.1098581579
H  H11  1  0.83470000  0.17208000  0.96636000  1.0 0.1190361646
H  H12  1  0.84576000  0.19812000  0.88770000  1.0 0.1291162686
H  H13  1  0.79317000  0.26991000  0.85427000  1.0 0.1098581579
H  H14  1  0.73787000  0.13927000  0.98951000  1.0 0.1600683857
H  H15  1  0.76454000  0.14974000  0.93388000  1.0 0.1700207607
H  H16  1  0.72619000  0.12379000  0.96119000  1.0 0.1600683857
H  H17  1  0.79652000  0.06832000  0.76742000  1.0 0.1098581579
H  H18  1  0.72146000  0.20256000  0.72548000  1.0 0.1190361646
H  H19  1  0.79017000  0.21961000  0.67169000  1.0 0.1190361646
H  H20  1  0.86834000  0.03488000  0.66152000  1.0 0.1098581579
H  H21  1  0.85157000  0.96911000  0.67897000  1.0 0.1190361646
H  H22  1  0.84495000  0.91221000  0.75357000  1.0 0.1361826966
H  H23  1  0.86546000  0.91366000  0.80558000  1.0 0.1190361646
H  H24  1  0.88643000  0.97817000  0.78735000  1.0 0.1190361646
H  H25  1  0.98417000  0.02137000  0.71297000  1.0 0.1098581579
H  H26  1  0.01609000  0.00415000  0.76805000  1.0 0.1098581579
H  H27  1  0.96636000  0.02686000  0.83470000  1.0 0.1190361646
H  H28  1  0.88770000  0.06842000  0.84576000  1.0 0.1291162686
H  H29  1  0.85427000  0.08265000  0.79317000  1.0 0.1098581579
H  H30  1  0.98951000  0.13335000  0.73787000  1.0 0.1600683857
H  H31  1  0.93388000  0.15184000  0.76454000  1.0 0.1700207607
H  H32  1  0.96119000  0.18883000  0.72619000  1.0 0.1600683857
H  H33  1  0.36774000  0.76742000  0.06832000  1.0 0.1098581579
H  H34  1  0.35050000  0.72548000  0.20256000  1.0 0.1190361646
H  H35  1  0.31853000  0.67169000  0.21961000  1.0 0.1190361646
H  H36  1  0.43526000  0.66152000  0.03488000  1.0 0.1098581579
H  H37  1  0.50035000  0.67897000  0.96911000  1.0 0.1190361646
H  H38  1  0.48927000  0.75357000  0.91221000  1.0 0.1361826966
H  H39  1  0.41530000  0.80558000  0.91366000  1.0 0.1190361646
H  H40  1  0.34805000  0.78735000  0.97817000  1.0 0.1190361646
H  H41  1  0.28149000  0.71297000  0.02137000  1.0 0.1098581579
H  H42  1  0.21171000  0.76805000  0.00415000  1.0 0.1098581579
H  H43  1  0.17208000  0.83470000  0.02686000  1.0 0.1190361646
H  H44  1  0.19812000  0.84576000  0.06842000  1.0 0.1291162686
H  H45  1  0.26991000  0.79317000  0.08265000  1.0 0.1098581579
H  H46  1  0.13927000  0.73787000  0.13335000  1.0 0.1600683857
H  H47  1  0.14974000  0.76454000  0.15184000  1.0 0.1700207607
H  H48  1  0.12379000  0.72619000  0.18883000  1.0 0.1600683857
H  H49  1  0.06832000  0.79652000  0.36774000  1.0 0.1098581579
H  H50  1  0.20256000  0.72146000  0.35050000  1.0 0.1190361646
H  H51  1  0.21961000  0.79017000  0.31853000  1.0 0.1190361646
H  H52  1  0.03488000  0.86834000  0.43526000  1.0 0.1098581579
H  H53  1  0.96911000  0.85157000  0.50035000  1.0 0.1190361646
H  H54  1  0.91221000  0.84495000  0.48927000  1.0 0.1361826966
H  H55  1  0.91366000  0.86546000  0.41530000  1.0 0.1190361646
H  H56  1  0.97817000  0.88643000  0.34805000  1.0 0.1190361646
H  H57  1  0.02137000  0.98417000  0.28149000  1.0 0.1098581579
H  H58  1  0.00415000  0.01609000  0.21171000  1.0 0.1098581579
H  H59  1  0.02686000  0.96636000  0.17208000  1.0 0.1190361646
H  H60  1  0.06842000  0.88770000  0.19812000  1.0 0.1291162686
H  H61  1  0.08265000  0.85427000  0.26991000  1.0 0.1098581579
H  H62  1  0.13335000  0.98951000  0.13927000  1.0 0.1600683857
H  H63  1  0.15184000  0.93388000  0.14974000  1.0 0.1700207607
H  H64  1  0.18883000  0.96119000  0.12379000  1.0 0.1600683857
H  H65  1  0.36774000  0.79652000  0.76742000  1.0 0.1098581579
H  H66  1  0.35050000  0.72146000  0.72548000  1.0 0.1190361646
H  H67  1  0.31853000  0.79017000  0.67169000  1.0 0.1190361646
H  H68  1  0.43526000  0.86834000  0.66152000  1.0 0.1098581579
H  H69  1  0.50035000  0.85157000  0.67897000  1.0 0.1190361646
H  H70  1  0.48927000  0.84495000  0.75357000  1.0 0.1361826966
H  H71  1  0.41530000  0.86546000  0.80558000  1.0 0.1190361646
H  H72  1  0.34805000  0.88643000  0.78735000  1.0 0.1190361646
H  H73  1  0.28149000  0.98417000  0.71297000  1.0 0.1098581579
H  H74  1  0.21171000  0.01609000  0.76805000  1.0 0.1098581579
H  H75  1  0.17208000  0.96636000  0.83470000  1.0 0.1190361646
H  H76  1  0.19812000  0.88770000  0.84576000  1.0 0.1291162686
H  H77  1  0.26991000  0.85427000  0.79317000  1.0 0.1098581579
H  H78  1  0.13927000  0.98951000  0.73787000  1.0 0.1600683857
H  H79  1  0.14974000  0.93388000  0.76454000  1.0 0.1700207607
H  H80  1  0.12379000  0.96119000  0.72619000  1.0 0.1600683857
H  H81  1  0.06832000  0.76742000  0.79652000  1.0 0.1098581579
H  H82  1  0.20256000  0.72548000  0.72146000  1.0 0.1190361646
H  H83  1  0.21961000  0.67169000  0.79017000  1.0 0.1190361646
H  H84  1  0.03488000  0.66152000  0.86834000  1.0 0.1098581579
H  H85  1  0.96911000  0.67897000  0.85157000  1.0 0.1190361646
H  H86  1  0.91221000  0.75357000  0.84495000  1.0 0.1361826966
H  H87  1  0.91366000  0.80558000  0.86546000  1.0 0.1190361646
H  H88  1  0.97817000  0.78735000  0.88643000  1.0 0.1190361646
H  H89  1  0.02137000  0.71297000  0.98417000  1.0 0.1098581579
H  H90  1  0.00415000  0.76805000  0.01609000  1.0 0.1098581579
H  H91  1  0.02686000  0.83470000  0.96636000  1.0 0.1190361646
H  H92  1  0.06842000  0.84576000  0.88770000  1.0 0.1291162686
H  H93  1  0.08265000  0.79317000  0.85427000  1.0 0.1098581579
H  H94  1  0.13335000  0.73787000  0.98951000  1.0 0.1600683857
H  H95  1  0.15184000  0.76454000  0.93388000  1.0 0.1700207607
H  H96  1  0.18883000  0.72619000  0.96119000  1.0 0.1600683857
H  H97  1  0.76742000  0.06832000  0.36774000  1.0 0.1098581579
H  H98  1  0.72548000  0.20256000  0.35050000  1.0 0.1190361646
H  H99  1  0.67169000  0.21961000  0.31853000  1.0 0.1190361646
H  H100  1  0.66152000  0.03488000  0.43526000  1.0 0.1098581579
H  H101  1  0.67897000  0.96911000  0.50035000  1.0 0.1190361646
H  H102  1  0.75357000  0.91221000  0.48927000  1.0 0.1361826966
H  H103  1  0.80558000  0.91366000  0.41530000  1.0 0.1190361646
H  H104  1  0.78735000  0.97817000  0.34805000  1.0 0.1190361646
H  H105  1  0.71297000  0.02137000  0.28149000  1.0 0.1098581579
H  H106  1  0.76805000  0.00415000  0.21171000  1.0 0.1098581579
H  H107  1  0.83470000  0.02686000  0.17208000  1.0 0.1190361646
H  H108  1  0.84576000  0.06842000  0.19812000  1.0 0.1291162686
H  H109  1  0.79317000  0.08265000  0.26991000  1.0 0.1098581579
H  H110  1  0.73787000  0.13335000  0.13927000  1.0 0.1600683857
H  H111  1  0.76454000  0.15184000  0.14974000  1.0 0.1700207607
H  H112  1  0.72619000  0.18883000  0.12379000  1.0 0.1600683857
H  H113  1  0.79652000  0.36774000  0.06832000  1.0 0.1098581579
H  H114  1  0.72146000  0.35050000  0.20256000  1.0 0.1190361646
H  H115  1  0.79017000  0.31853000  0.21961000  1.0 0.1190361646
H  H116  1  0.86834000  0.43526000  0.03488000  1.0 0.1098581579
H  H117  1  0.85157000  0.50035000  0.96911000  1.0 0.1190361646
H  H118  1  0.84495000  0.48927000  0.91221000  1.0 0.1361826966
H  H119  1  0.86546000  0.41530000  0.91366000  1.0 0.1190361646
H  H120  1  0.88643000  0.34805000  0.97817000  1.0 0.1190361646
H  H121  1  0.98417000  0.28149000  0.02137000  1.0 0.1098581579
H  H122  1  0.01609000  0.21171000  0.00415000  1.0 0.1098581579
H  H123  1  0.96636000  0.17208000  0.02686000  1.0 0.1190361646
H  H124  1  0.88770000  0.19812000  0.06842000  1.0 0.1291162686
H  H125  1  0.85427000  0.26991000  0.08265000  1.0 0.1098581579
H  H126  1  0.98951000  0.13927000  0.13335000  1.0 0.1600683857
H  H127  1  0.93388000  0.14974000  0.15184000  1.0 0.1700207607
H  H128  1  0.96119000  0.12379000  0.18883000  1.0 0.1600683857
H  H129  1  0.79652000  0.76742000  0.36774000  1.0 0.1098581579
H  H130  1  0.72146000  0.72548000  0.35050000  1.0 0.1190361646
H  H131  1  0.79017000  0.67169000  0.31853000  1.0 0.1190361646
H  H132  1  0.86834000  0.66152000  0.43526000  1.0 0.1098581579
H  H133  1  0.85157000  0.67897000  0.50035000  1.0 0.1190361646
H  H134  1  0.84495000  0.75357000  0.48927000  1.0 0.1361826966
H  H135  1  0.86546000  0.80558000  0.41530000  1.0 0.1190361646
H  H136  1  0.88643000  0.78735000  0.34805000  1.0 0.1190361646
H  H137  1  0.98417000  0.71297000  0.28149000  1.0 0.1098581579
H  H138  1  0.01609000  0.76805000  0.21171000  1.0 0.1098581579
H  H139  1  0.96636000  0.83470000  0.17208000  1.0 0.1190361646
H  H140  1  0.88770000  0.84576000  0.19812000  1.0 0.1291162686
H  H141  1  0.85427000  0.79317000  0.26991000  1.0 0.1098581579
H  H142  1  0.98951000  0.73787000  0.13927000  1.0 0.1600683857
H  H143  1  0.93388000  0.76454000  0.14974000  1.0 0.1700207607
H  H144  1  0.96119000  0.72619000  0.12379000  1.0 0.1600683857
H  H145  1  0.76742000  0.79652000  0.06832000  1.0 0.1098581579
H  H146  1  0.72548000  0.72146000  0.20256000  1.0 0.1190361646
H  H147  1  0.67169000  0.79017000  0.21961000  1.0 0.1190361646
H  H148  1  0.66152000  0.86834000  0.03488000  1.0 0.1098581579
H  H149  1  0.67897000  0.85157000  0.96911000  1.0 0.1190361646
H  H150  1  0.75357000  0.84495000  0.91221000  1.0 0.1361826966
H  H151  1  0.80558000  0.86546000  0.91366000  1.0 0.1190361646
H  H152  1  0.78735000  0.88643000  0.97817000  1.0 0.1190361646
H  H153  1  0.71297000  0.98417000  0.02137000  1.0 0.1098581579
H  H154  1  0.76805000  0.01609000  0.00415000  1.0 0.1098581579
H  H155  1  0.83470000  0.96636000  0.02686000  1.0 0.1190361646
H  H156  1  0.84576000  0.88770000  0.06842000  1.0 0.1291162686
H  H157  1  0.79317000  0.85427000  0.08265000  1.0 0.1098581579
H  H158  1  0.73787000  0.98951000  0.13335000  1.0 0.1600683857
H  H159  1  0.76454000  0.93388000  0.15184000  1.0 0.1700207607
H  H160  1  0.72619000  0.96119000  0.18883000  1.0 0.1600683857
H  H161  1  0.06832000  0.36774000  0.76742000  1.0 0.1098581579
H  H162  1  0.20256000  0.35050000  0.72548000  1.0 0.1190361646
H  H163  1  0.21961000  0.31853000  0.67169000  1.0 0.1190361646
H  H164  1  0.03488000  0.43526000  0.66152000  1.0 0.1098581579
H  H165  1  0.96911000  0.50035000  0.67897000  1.0 0.1190361646
H  H166  1  0.91221000  0.48927000  0.75357000  1.0 0.1361826966
H  H167  1  0.91366000  0.41530000  0.80558000  1.0 0.1190361646
H  H168  1  0.97817000  0.34805000  0.78735000  1.0 0.1190361646
H  H169  1  0.02137000  0.28149000  0.71297000  1.0 0.1098581579
H  H170  1  0.00415000  0.21171000  0.76805000  1.0 0.1098581579
H  H171  1  0.02686000  0.17208000  0.83470000  1.0 0.1190361646
H  H172  1  0.06842000  0.19812000  0.84576000  1.0 0.1291162686
H  H173  1  0.08265000  0.26991000  0.79317000  1.0 0.1098581579
H  H174  1  0.13335000  0.13927000  0.73787000  1.0 0.1600683857
H  H175  1  0.15184000  0.14974000  0.76454000  1.0 0.1700207607
H  H176  1  0.18883000  0.12379000  0.72619000  1.0 0.1600683857
H  H177  1  0.36774000  0.06832000  0.79652000  1.0 0.1098581579
H  H178  1  0.35050000  0.20256000  0.72146000  1.0 0.1190361646
H  H179  1  0.31853000  0.21961000  0.79017000  1.0 0.1190361646
H  H180  1  0.43526000  0.03488000  0.86834000  1.0 0.1098581579
H  H181  1  0.50035000  0.96911000  0.85157000  1.0 0.1190361646
H  H182  1  0.48927000  0.91221000  0.84495000  1.0 0.1361826966
H  H183  1  0.41530000  0.91366000  0.86546000  1.0 0.1190361646
H  H184  1  0.34805000  0.97817000  0.88643000  1.0 0.1190361646
H  H185  1  0.28149000  0.02137000  0.98417000  1.0 0.1098581579
H  H186  1  0.21171000  0.00415000  0.01609000  1.0 0.1098581579
H  H187  1  0.17208000  0.02686000  0.96636000  1.0 0.1190361646
H  H188  1  0.19812000  0.06842000  0.88770000  1.0 0.1291162686
H  H189  1  0.26991000  0.08265000  0.85427000  1.0 0.1098581579
H  H190  1  0.13927000  0.13335000  0.98951000  1.0 0.1600683857
H  H191  1  0.14974000  0.15184000  0.93388000  1.0 0.1700207607
H  H192  1  0.12379000  0.18883000  0.96119000  1.0 0.1600683857
H  H193  1  0.48258000  0.18168000  0.45348000  1.0 0.1098581579
H  H194  1  0.52452000  0.04744000  0.52854000  1.0 0.1190361646
H  H195  1  0.57831000  0.03039000  0.45983000  1.0 0.1190361646
H  H196  1  0.58848000  0.21512000  0.38166000  1.0 0.1098581579
H  H197  1  0.57103000  0.28089000  0.39843000  1.0 0.1190361646
H  H198  1  0.49643000  0.33779000  0.40505000  1.0 0.1361826966
H  H199  1  0.44442000  0.33634000  0.38454000  1.0 0.1190361646
H  H200  1  0.46265000  0.27183000  0.36357000  1.0 0.1190361646
H  H201  1  0.53703000  0.22863000  0.26583000  1.0 0.1098581579
H  H202  1  0.48195000  0.24585000  0.23391000  1.0 0.1098581579
H  H203  1  0.41530000  0.22314000  0.28364000  1.0 0.1190361646
H  H204  1  0.40424000  0.18158000  0.36230000  1.0 0.1291162686
H  H205  1  0.45683000  0.16735000  0.39573000  1.0 0.1098581579
H  H206  1  0.51213000  0.11665000  0.26049000  1.0 0.1600683857
H  H207  1  0.48546000  0.09816000  0.31612000  1.0 0.1700207607
H  H208  1  0.52381000  0.06117000  0.28881000  1.0 0.1600683857
H  H209  1  0.45348000  0.88226000  0.48258000  1.0 0.1098581579
H  H210  1  0.52854000  0.89950000  0.52452000  1.0 0.1190361646
H  H211  1  0.45983000  0.93147000  0.57831000  1.0 0.1190361646
H  H212  1  0.38166000  0.81474000  0.58848000  1.0 0.1098581579
H  H213  1  0.39843000  0.74965000  0.57103000  1.0 0.1190361646
H  H214  1  0.40505000  0.76073000  0.49643000  1.0 0.1361826966
H  H215  1  0.38454000  0.83470000  0.44442000  1.0 0.1190361646
H  H216  1  0.36357000  0.90195000  0.46265000  1.0 0.1190361646
H  H217  1  0.26583000  0.96851000  0.53703000  1.0 0.1098581579
H  H218  1  0.23391000  0.03829000  0.48195000  1.0 0.1098581579
H  H219  1  0.28364000  0.07792000  0.41530000  1.0 0.1190361646
H  H220  1  0.36230000  0.05188000  0.40424000  1.0 0.1291162686
H  H221  1  0.39573000  0.98009000  0.45683000  1.0 0.1098581579
H  H222  1  0.26049000  0.11073000  0.51213000  1.0 0.1600683857
H  H223  1  0.31612000  0.10026000  0.48546000  1.0 0.1700207607
H  H224  1  0.28881000  0.12621000  0.52381000  1.0 0.1600683857
H  H225  1  0.88226000  0.45348000  0.18168000  1.0 0.1098581579
H  H226  1  0.89950000  0.52854000  0.04744000  1.0 0.1190361646
H  H227  1  0.93147000  0.45983000  0.03039000  1.0 0.1190361646
H  H228  1  0.81474000  0.38166000  0.21512000  1.0 0.1098581579
H  H229  1  0.74965000  0.39843000  0.28089000  1.0 0.1190361646
H  H230  1  0.76073000  0.40505000  0.33779000  1.0 0.1361826966
H  H231  1  0.83470000  0.38454000  0.33634000  1.0 0.1190361646
H  H232  1  0.90195000  0.36357000  0.27183000  1.0 0.1190361646
H  H233  1  0.96851000  0.26583000  0.22863000  1.0 0.1098581579
H  H234  1  0.03829000  0.23391000  0.24585000  1.0 0.1098581579
H  H235  1  0.07792000  0.28364000  0.22314000  1.0 0.1190361646
H  H236  1  0.05188000  0.36230000  0.18158000  1.0 0.1291162686
H  H237  1  0.98009000  0.39573000  0.16735000  1.0 0.1098581579
H  H238  1  0.11073000  0.26049000  0.11665000  1.0 0.1600683857
H  H239  1  0.10026000  0.31612000  0.09816000  1.0 0.1700207607
H  H240  1  0.12621000  0.28881000  0.06117000  1.0 0.1600683857
H  H241  1  0.18168000  0.48258000  0.88226000  1.0 0.1098581579
H  H242  1  0.04744000  0.52452000  0.89950000  1.0 0.1190361646
H  H243  1  0.03039000  0.57831000  0.93147000  1.0 0.1190361646
H  H244  1  0.21512000  0.58848000  0.81474000  1.0 0.1098581579
H  H245  1  0.28089000  0.57103000  0.74965000  1.0 0.1190361646
H  H246  1  0.33779000  0.49643000  0.76073000  1.0 0.1361826966
H  H247  1  0.33634000  0.44442000  0.83470000  1.0 0.1190361646
H  H248  1  0.27183000  0.46265000  0.90195000  1.0 0.1190361646
H  H249  1  0.22863000  0.53703000  0.96851000  1.0 0.1098581579
H  H250  1  0.24585000  0.48195000  0.03829000  1.0 0.1098581579
H  H251  1  0.22314000  0.41530000  0.07792000  1.0 0.1190361646
H  H252  1  0.18158000  0.40424000  0.05188000  1.0 0.1291162686
H  H253  1  0.16735000  0.45683000  0.98009000  1.0 0.1098581579
H  H254  1  0.11665000  0.51213000  0.11073000  1.0 0.1600683857
H  H255  1  0.09816000  0.48546000  0.10026000  1.0 0.1700207607
H  H256  1  0.06117000  0.52381000  0.12621000  1.0 0.1600683857
H  H257  1  0.88226000  0.18168000  0.48258000  1.0 0.1098581579
H  H258  1  0.89950000  0.04744000  0.52452000  1.0 0.1190361646
H  H259  1  0.93147000  0.03039000  0.57831000  1.0 0.1190361646
H  H260  1  0.81474000  0.21512000  0.58848000  1.0 0.1098581579
H  H261  1  0.74965000  0.28089000  0.57103000  1.0 0.1190361646
H  H262  1  0.76073000  0.33779000  0.49643000  1.0 0.1361826966
H  H263  1  0.83470000  0.33634000  0.44442000  1.0 0.1190361646
H  H264  1  0.90195000  0.27183000  0.46265000  1.0 0.1190361646
H  H265  1  0.96851000  0.22863000  0.53703000  1.0 0.1098581579
H  H266  1  0.03829000  0.24585000  0.48195000  1.0 0.1098581579
H  H267  1  0.07792000  0.22314000  0.41530000  1.0 0.1190361646
H  H268  1  0.05188000  0.18158000  0.40424000  1.0 0.1291162686
H  H269  1  0.98009000  0.16735000  0.45683000  1.0 0.1098581579
H  H270  1  0.11073000  0.11665000  0.51213000  1.0 0.1600683857
H  H271  1  0.10026000  0.09816000  0.48546000  1.0 0.1700207607
H  H272  1  0.12621000  0.06117000  0.52381000  1.0 0.1600683857
H  H273  1  0.18168000  0.88226000  0.45348000  1.0 0.1098581579
H  H274  1  0.04744000  0.89950000  0.52854000  1.0 0.1190361646
H  H275  1  0.03039000  0.93147000  0.45983000  1.0 0.1190361646
H  H276  1  0.21512000  0.81474000  0.38166000  1.0 0.1098581579
H  H277  1  0.28089000  0.74965000  0.39843000  1.0 0.1190361646
H  H278  1  0.33779000  0.76073000  0.40505000  1.0 0.1361826966
H  H279  1  0.33634000  0.83470000  0.38454000  1.0 0.1190361646
H  H280  1  0.27183000  0.90195000  0.36357000  1.0 0.1190361646
H  H281  1  0.22863000  0.96851000  0.26583000  1.0 0.1098581579
H  H282  1  0.24585000  0.03829000  0.23391000  1.0 0.1098581579
H  H283  1  0.22314000  0.07792000  0.28364000  1.0 0.1190361646
H  H284  1  0.18158000  0.05188000  0.36230000  1.0 0.1291162686
H  H285  1  0.16735000  0.98009000  0.39573000  1.0 0.1098581579
H  H286  1  0.11665000  0.11073000  0.26049000  1.0 0.1600683857
H  H287  1  0.09816000  0.10026000  0.31612000  1.0 0.1700207607
H  H288  1  0.06117000  0.12621000  0.28881000  1.0 0.1600683857
H  H289  1  0.48258000  0.45348000  0.88226000  1.0 0.1098581579
H  H290  1  0.52452000  0.52854000  0.89950000  1.0 0.1190361646
H  H291  1  0.57831000  0.45983000  0.93147000  1.0 0.1190361646
H  H292  1  0.58848000  0.38166000  0.81474000  1.0 0.1098581579
H  H293  1  0.57103000  0.39843000  0.74965000  1.0 0.1190361646
H  H294  1  0.49643000  0.40505000  0.76073000  1.0 0.1361826966
H  H295  1  0.44442000  0.38454000  0.83470000  1.0 0.1190361646
H  H296  1  0.46265000  0.36357000  0.90195000  1.0 0.1190361646
H  H297  1  0.53703000  0.26583000  0.96851000  1.0 0.1098581579
H  H298  1  0.48195000  0.23391000  0.03829000  1.0 0.1098581579
H  H299  1  0.41530000  0.28364000  0.07792000  1.0 0.1190361646
H  H300  1  0.40424000  0.36230000  0.05188000  1.0 0.1291162686
H  H301  1  0.45683000  0.39573000  0.98009000  1.0 0.1098581579
H  H302  1  0.51213000  0.26049000  0.11073000  1.0 0.1600683857
H  H303  1  0.48546000  0.31612000  0.10026000  1.0 0.1700207607
H  H304  1  0.52381000  0.28881000  0.12621000  1.0 0.1600683857
H  H305  1  0.45348000  0.48258000  0.18168000  1.0 0.1098581579
H  H306  1  0.52854000  0.52452000  0.04744000  1.0 0.1190361646
H  H307  1  0.45983000  0.57831000  0.03039000  1.0 0.1190361646
H  H308  1  0.38166000  0.58848000  0.21512000  1.0 0.1098581579
H  H309  1  0.39843000  0.57103000  0.28089000  1.0 0.1190361646
H  H310  1  0.40505000  0.49643000  0.33779000  1.0 0.1361826966
H  H311  1  0.38454000  0.44442000  0.33634000  1.0 0.1190361646
H  H312  1  0.36357000  0.46265000  0.27183000  1.0 0.1190361646
H  H313  1  0.26583000  0.53703000  0.22863000  1.0 0.1098581579
H  H314  1  0.23391000  0.48195000  0.24585000  1.0 0.1098581579
H  H315  1  0.28364000  0.41530000  0.22314000  1.0 0.1190361646
H  H316  1  0.36230000  0.40424000  0.18158000  1.0 0.1291162686
H  H317  1  0.39573000  0.45683000  0.16735000  1.0 0.1098581579
H  H318  1  0.26049000  0.51213000  0.11665000  1.0 0.1600683857
H  H319  1  0.31612000  0.48546000  0.09816000  1.0 0.1700207607
H  H320  1  0.28881000  0.52381000  0.06117000  1.0 0.1600683857
H  H321  1  0.45348000  0.18168000  0.88226000  1.0 0.1098581579
H  H322  1  0.52854000  0.04744000  0.89950000  1.0 0.1190361646
H  H323  1  0.45983000  0.03039000  0.93147000  1.0 0.1190361646
H  H324  1  0.38166000  0.21512000  0.81474000  1.0 0.1098581579
H  H325  1  0.39843000  0.28089000  0.74965000  1.0 0.1190361646
H  H326  1  0.40505000  0.33779000  0.76073000  1.0 0.1361826966
H  H327  1  0.38454000  0.33634000  0.83470000  1.0 0.1190361646
H  H328  1  0.36357000  0.27183000  0.90195000  1.0 0.1190361646
H  H329  1  0.26583000  0.22863000  0.96851000  1.0 0.1098581579
H  H330  1  0.23391000  0.24585000  0.03829000  1.0 0.1098581579
H  H331  1  0.28364000  0.22314000  0.07792000  1.0 0.1190361646
H  H332  1  0.36230000  0.18158000  0.05188000  1.0 0.1291162686
H  H333  1  0.39573000  0.16735000  0.98009000  1.0 0.1098581579
H  H334  1  0.26049000  0.11665000  0.11073000  1.0 0.1600683857
H  H335  1  0.31612000  0.09816000  0.10026000  1.0 0.1700207607
H  H336  1  0.28881000  0.06117000  0.12621000  1.0 0.1600683857
H  H337  1  0.48258000  0.88226000  0.18168000  1.0 0.1098581579
H  H338  1  0.52452000  0.89950000  0.04744000  1.0 0.1190361646
H  H339  1  0.57831000  0.93147000  0.03039000  1.0 0.1190361646
H  H340  1  0.58848000  0.81474000  0.21512000  1.0 0.1098581579
H  H341  1  0.57103000  0.74965000  0.28089000  1.0 0.1190361646
H  H342  1  0.49643000  0.76073000  0.33779000  1.0 0.1361826966
H  H343  1  0.44442000  0.83470000  0.33634000  1.0 0.1190361646
H  H344  1  0.46265000  0.90195000  0.27183000  1.0 0.1190361646
H  H345  1  0.53703000  0.96851000  0.22863000  1.0 0.1098581579
H  H346  1  0.48195000  0.03829000  0.24585000  1.0 0.1098581579
H  H347  1  0.41530000  0.07792000  0.22314000  1.0 0.1190361646
H  H348  1  0.40424000  0.05188000  0.18158000  1.0 0.1291162686
H  H349  1  0.45683000  0.98009000  0.16735000  1.0 0.1098581579
H  H350  1  0.51213000  0.11073000  0.11665000  1.0 0.1600683857
H  H351  1  0.48546000  0.10026000  0.09816000  1.0 0.1700207607
H  H352  1  0.52381000  0.12621000  0.06117000  1.0 0.1600683857
H  H353  1  0.18168000  0.45348000  0.48258000  1.0 0.1098581579
H  H354  1  0.04744000  0.52854000  0.52452000  1.0 0.1190361646
H  H355  1  0.03039000  0.45983000  0.57831000  1.0 0.1190361646
H  H356  1  0.21512000  0.38166000  0.58848000  1.0 0.1098581579
H  H357  1  0.28089000  0.39843000  0.57103000  1.0 0.1190361646
H  H358  1  0.33779000  0.40505000  0.49643000  1.0 0.1361826966
H  H359  1  0.33634000  0.38454000  0.44442000  1.0 0.1190361646
H  H360  1  0.27183000  0.36357000  0.46265000  1.0 0.1190361646
H  H361  1  0.22863000  0.26583000  0.53703000  1.0 0.1098581579
H  H362  1  0.24585000  0.23391000  0.48195000  1.0 0.1098581579
H  H363  1  0.22314000  0.28364000  0.41530000  1.0 0.1190361646
H  H364  1  0.18158000  0.36230000  0.40424000  1.0 0.1291162686
H  H365  1  0.16735000  0.39573000  0.45683000  1.0 0.1098581579
H  H366  1  0.11665000  0.26049000  0.51213000  1.0 0.1600683857
H  H367  1  0.09816000  0.31612000  0.48546000  1.0 0.1700207607
H  H368  1  0.06117000  0.28881000  0.52381000  1.0 0.1600683857
H  H369  1  0.88226000  0.48258000  0.45348000  1.0 0.1098581579
H  H370  1  0.89950000  0.52452000  0.52854000  1.0 0.1190361646
H  H371  1  0.93147000  0.57831000  0.45983000  1.0 0.1190361646
H  H372  1  0.81474000  0.58848000  0.38166000  1.0 0.1098581579
H  H373  1  0.74965000  0.57103000  0.39843000  1.0 0.1190361646
H  H374  1  0.76073000  0.49643000  0.40505000  1.0 0.1361826966
H  H375  1  0.83470000  0.44442000  0.38454000  1.0 0.1190361646
H  H376  1  0.90195000  0.46265000  0.36357000  1.0 0.1190361646
H  H377  1  0.96851000  0.53703000  0.26583000  1.0 0.1098581579
H  H378  1  0.03829000  0.48195000  0.23391000  1.0 0.1098581579
H  H379  1  0.07792000  0.41530000  0.28364000  1.0 0.1190361646
H  H380  1  0.05188000  0.40424000  0.36230000  1.0 0.1291162686
H  H381  1  0.98009000  0.45683000  0.39573000  1.0 0.1098581579
H  H382  1  0.11073000  0.51213000  0.26049000  1.0 0.1600683857
H  H383  1  0.10026000  0.48546000  0.31612000  1.0 0.1700207607
H  H384  1  0.12621000  0.52381000  0.28881000  1.0 0.1600683857
H  H385  1  0.98258000  0.38226000  0.95348000  1.0 0.1098581579
H  H386  1  0.02452000  0.39950000  0.02854000  1.0 0.1190361646
H  H387  1  0.07831000  0.43147000  0.95983000  1.0 0.1190361646
H  H388  1  0.08848000  0.31474000  0.88166000  1.0 0.1098581579
H  H389  1  0.07103000  0.24965000  0.89843000  1.0 0.1190361646
H  H390  1  0.99643000  0.26073000  0.90505000  1.0 0.1361826966
H  H391  1  0.94442000  0.33470000  0.88454000  1.0 0.1190361646
H  H392  1  0.96265000  0.40195000  0.86357000  1.0 0.1190361646
H  H393  1  0.03703000  0.46851000  0.76583000  1.0 0.1098581579
H  H394  1  0.98195000  0.53829000  0.73391000  1.0 0.1098581579
H  H395  1  0.91530000  0.57792000  0.78364000  1.0 0.1190361646
H  H396  1  0.90424000  0.55188000  0.86230000  1.0 0.1291162686
H  H397  1  0.95683000  0.48009000  0.89573000  1.0 0.1098581579
H  H398  1  0.01213000  0.61073000  0.76049000  1.0 0.1600683857
H  H399  1  0.98546000  0.60026000  0.81612000  1.0 0.1700207607
H  H400  1  0.02381000  0.62621000  0.78881000  1.0 0.1600683857
H  H401  1  0.95348000  0.68168000  0.98258000  1.0 0.1098581579
H  H402  1  0.02854000  0.54744000  0.02452000  1.0 0.1190361646
H  H403  1  0.95983000  0.53039000  0.07831000  1.0 0.1190361646
H  H404  1  0.88166000  0.71512000  0.08848000  1.0 0.1098581579
H  H405  1  0.89843000  0.78089000  0.07103000  1.0 0.1190361646
H  H406  1  0.90505000  0.83779000  0.99643000  1.0 0.1361826966
H  H407  1  0.88454000  0.83634000  0.94442000  1.0 0.1190361646
H  H408  1  0.86357000  0.77183000  0.96265000  1.0 0.1190361646
H  H409  1  0.76583000  0.72863000  0.03703000  1.0 0.1098581579
H  H410  1  0.73391000  0.74585000  0.98195000  1.0 0.1098581579
H  H411  1  0.78364000  0.72314000  0.91530000  1.0 0.1190361646
H  H412  1  0.86230000  0.68158000  0.90424000  1.0 0.1291162686
H  H413  1  0.89573000  0.66735000  0.95683000  1.0 0.1098581579
H  H414  1  0.76049000  0.61665000  0.01213000  1.0 0.1600683857
H  H415  1  0.81612000  0.59816000  0.98546000  1.0 0.1700207607
H  H416  1  0.78881000  0.56117000  0.02381000  1.0 0.1600683857
H  H417  1  0.38226000  0.98258000  0.68168000  1.0 0.1098581579
H  H418  1  0.39950000  0.02452000  0.54744000  1.0 0.1190361646
H  H419  1  0.43147000  0.07831000  0.53039000  1.0 0.1190361646
H  H420  1  0.31474000  0.08848000  0.71512000  1.0 0.1098581579
H  H421  1  0.24965000  0.07103000  0.78089000  1.0 0.1190361646
H  H422  1  0.26073000  0.99643000  0.83779000  1.0 0.1361826966
H  H423  1  0.33470000  0.94442000  0.83634000  1.0 0.1190361646
H  H424  1  0.40195000  0.96265000  0.77183000  1.0 0.1190361646
H  H425  1  0.46851000  0.03703000  0.72863000  1.0 0.1098581579
H  H426  1  0.53829000  0.98195000  0.74585000  1.0 0.1098581579
H  H427  1  0.57792000  0.91530000  0.72314000  1.0 0.1190361646
H  H428  1  0.55188000  0.90424000  0.68158000  1.0 0.1291162686
H  H429  1  0.48009000  0.95683000  0.66735000  1.0 0.1098581579
H  H430  1  0.61073000  0.01213000  0.61665000  1.0 0.1600683857
H  H431  1  0.60026000  0.98546000  0.59816000  1.0 0.1700207607
H  H432  1  0.62621000  0.02381000  0.56117000  1.0 0.1600683857
H  H433  1  0.68168000  0.95348000  0.38226000  1.0 0.1098581579
H  H434  1  0.54744000  0.02854000  0.39950000  1.0 0.1190361646
H  H435  1  0.53039000  0.95983000  0.43147000  1.0 0.1190361646
H  H436  1  0.71512000  0.88166000  0.31474000  1.0 0.1098581579
H  H437  1  0.78089000  0.89843000  0.24965000  1.0 0.1190361646
H  H438  1  0.83779000  0.90505000  0.26073000  1.0 0.1361826966
H  H439  1  0.83634000  0.88454000  0.33470000  1.0 0.1190361646
H  H440  1  0.77183000  0.86357000  0.40195000  1.0 0.1190361646
H  H441  1  0.72863000  0.76583000  0.46851000  1.0 0.1098581579
H  H442  1  0.74585000  0.73391000  0.53829000  1.0 0.1098581579
H  H443  1  0.72314000  0.78364000  0.57792000  1.0 0.1190361646
H  H444  1  0.68158000  0.86230000  0.55188000  1.0 0.1291162686
H  H445  1  0.66735000  0.89573000  0.48009000  1.0 0.1098581579
H  H446  1  0.61665000  0.76049000  0.61073000  1.0 0.1600683857
H  H447  1  0.59816000  0.81612000  0.60026000  1.0 0.1700207607
H  H448  1  0.56117000  0.78881000  0.62621000  1.0 0.1600683857
H  H449  1  0.38226000  0.95348000  0.98258000  1.0 0.1098581579
H  H450  1  0.39950000  0.02854000  0.02452000  1.0 0.1190361646
H  H451  1  0.43147000  0.95983000  0.07831000  1.0 0.1190361646
H  H452  1  0.31474000  0.88166000  0.08848000  1.0 0.1098581579
H  H453  1  0.24965000  0.89843000  0.07103000  1.0 0.1190361646
H  H454  1  0.26073000  0.90505000  0.99643000  1.0 0.1361826966
H  H455  1  0.33470000  0.88454000  0.94442000  1.0 0.1190361646
H  H456  1  0.40195000  0.86357000  0.96265000  1.0 0.1190361646
H  H457  1  0.46851000  0.76583000  0.03703000  1.0 0.1098581579
H  H458  1  0.53829000  0.73391000  0.98195000  1.0 0.1098581579
H  H459  1  0.57792000  0.78364000  0.91530000  1.0 0.1190361646
H  H460  1  0.55188000  0.86230000  0.90424000  1.0 0.1291162686
H  H461  1  0.48009000  0.89573000  0.95683000  1.0 0.1098581579
H  H462  1  0.61073000  0.76049000  0.01213000  1.0 0.1600683857
H  H463  1  0.60026000  0.81612000  0.98546000  1.0 0.1700207607
H  H464  1  0.62621000  0.78881000  0.02381000  1.0 0.1600683857
H  H465  1  0.68168000  0.98258000  0.95348000  1.0 0.1098581579
H  H466  1  0.54744000  0.02452000  0.02854000  1.0 0.1190361646
H  H467  1  0.53039000  0.07831000  0.95983000  1.0 0.1190361646
H  H468  1  0.71512000  0.08848000  0.88166000  1.0 0.1098581579
H  H469  1  0.78089000  0.07103000  0.89843000  1.0 0.1190361646
H  H470  1  0.83779000  0.99643000  0.90505000  1.0 0.1361826966
H  H471  1  0.83634000  0.94442000  0.88454000  1.0 0.1190361646
H  H472  1  0.77183000  0.96265000  0.86357000  1.0 0.1190361646
H  H473  1  0.72863000  0.03703000  0.76583000  1.0 0.1098581579
H  H474  1  0.74585000  0.98195000  0.73391000  1.0 0.1098581579
H  H475  1  0.72314000  0.91530000  0.78364000  1.0 0.1190361646
H  H476  1  0.68158000  0.90424000  0.86230000  1.0 0.1291162686
H  H477  1  0.66735000  0.95683000  0.89573000  1.0 0.1098581579
H  H478  1  0.61665000  0.01213000  0.76049000  1.0 0.1600683857
H  H479  1  0.59816000  0.98546000  0.81612000  1.0 0.1700207607
H  H480  1  0.56117000  0.02381000  0.78881000  1.0 0.1600683857
H  H481  1  0.98258000  0.68168000  0.38226000  1.0 0.1098581579
H  H482  1  0.02452000  0.54744000  0.39950000  1.0 0.1190361646
H  H483  1  0.07831000  0.53039000  0.43147000  1.0 0.1190361646
H  H484  1  0.08848000  0.71512000  0.31474000  1.0 0.1098581579
H  H485  1  0.07103000  0.78089000  0.24965000  1.0 0.1190361646
H  H486  1  0.99643000  0.83779000  0.26073000  1.0 0.1361826966
H  H487  1  0.94442000  0.83634000  0.33470000  1.0 0.1190361646
H  H488  1  0.96265000  0.77183000  0.40195000  1.0 0.1190361646
H  H489  1  0.03703000  0.72863000  0.46851000  1.0 0.1098581579
H  H490  1  0.98195000  0.74585000  0.53829000  1.0 0.1098581579
H  H491  1  0.91530000  0.72314000  0.57792000  1.0 0.1190361646
H  H492  1  0.90424000  0.68158000  0.55188000  1.0 0.1291162686
H  H493  1  0.95683000  0.66735000  0.48009000  1.0 0.1098581579
H  H494  1  0.01213000  0.61665000  0.61073000  1.0 0.1600683857
H  H495  1  0.98546000  0.59816000  0.60026000  1.0 0.1700207607
H  H496  1  0.02381000  0.56117000  0.62621000  1.0 0.1600683857
H  H497  1  0.95348000  0.38226000  0.68168000  1.0 0.1098581579
H  H498  1  0.02854000  0.39950000  0.54744000  1.0 0.1190361646
H  H499  1  0.95983000  0.43147000  0.53039000  1.0 0.1190361646
H  H500  1  0.88166000  0.31474000  0.71512000  1.0 0.1098581579
H  H501  1  0.89843000  0.24965000  0.78089000  1.0 0.1190361646
H  H502  1  0.90505000  0.26073000  0.83779000  1.0 0.1361826966
H  H503  1  0.88454000  0.33470000  0.83634000  1.0 0.1190361646
H  H504  1  0.86357000  0.40195000  0.77183000  1.0 0.1190361646
H  H505  1  0.76583000  0.46851000  0.72863000  1.0 0.1098581579
H  H506  1  0.73391000  0.53829000  0.74585000  1.0 0.1098581579
H  H507  1  0.78364000  0.57792000  0.72314000  1.0 0.1190361646
H  H508  1  0.86230000  0.55188000  0.68158000  1.0 0.1291162686
H  H509  1  0.89573000  0.48009000  0.66735000  1.0 0.1098581579
H  H510  1  0.76049000  0.61073000  0.61665000  1.0 0.1600683857
H  H511  1  0.81612000  0.60026000  0.59816000  1.0 0.1700207607
H  H512  1  0.78881000  0.62621000  0.56117000  1.0 0.1600683857
H  H513  1  0.95348000  0.98258000  0.38226000  1.0 0.1098581579
H  H514  1  0.02854000  0.02452000  0.39950000  1.0 0.1190361646
H  H515  1  0.95983000  0.07831000  0.43147000  1.0 0.1190361646
H  H516  1  0.88166000  0.08848000  0.31474000  1.0 0.1098581579
H  H517  1  0.89843000  0.07103000  0.24965000  1.0 0.1190361646
H  H518  1  0.90505000  0.99643000  0.26073000  1.0 0.1361826966
H  H519  1  0.88454000  0.94442000  0.33470000  1.0 0.1190361646
H  H520  1  0.86357000  0.96265000  0.40195000  1.0 0.1190361646
H  H521  1  0.76583000  0.03703000  0.46851000  1.0 0.1098581579
H  H522  1  0.73391000  0.98195000  0.53829000  1.0 0.1098581579
H  H523  1  0.78364000  0.91530000  0.57792000  1.0 0.1190361646
H  H524  1  0.86230000  0.90424000  0.55188000  1.0 0.1291162686
H  H525  1  0.89573000  0.95683000  0.48009000  1.0 0.1098581579
H  H526  1  0.76049000  0.01213000  0.61073000  1.0 0.1600683857
H  H527  1  0.81612000  0.98546000  0.60026000  1.0 0.1700207607
H  H528  1  0.78881000  0.02381000  0.62621000  1.0 0.1600683857
H  H529  1  0.98258000  0.95348000  0.68168000  1.0 0.1098581579
H  H530  1  0.02452000  0.02854000  0.54744000  1.0 0.1190361646
H  H531  1  0.07831000  0.95983000  0.53039000  1.0 0.1190361646
H  H532  1  0.08848000  0.88166000  0.71512000  1.0 0.1098581579
H  H533  1  0.07103000  0.89843000  0.78089000  1.0 0.1190361646
H  H534  1  0.99643000  0.90505000  0.83779000  1.0 0.1361826966
H  H535  1  0.94442000  0.88454000  0.83634000  1.0 0.1190361646
H  H536  1  0.96265000  0.86357000  0.77183000  1.0 0.1190361646
H  H537  1  0.03703000  0.76583000  0.72863000  1.0 0.1098581579
H  H538  1  0.98195000  0.73391000  0.74585000  1.0 0.1098581579
H  H539  1  0.91530000  0.78364000  0.72314000  1.0 0.1190361646
H  H540  1  0.90424000  0.86230000  0.68158000  1.0 0.1291162686
H  H541  1  0.95683000  0.89573000  0.66735000  1.0 0.1098581579
H  H542  1  0.01213000  0.76049000  0.61665000  1.0 0.1600683857
H  H543  1  0.98546000  0.81612000  0.59816000  1.0 0.1700207607
H  H544  1  0.02381000  0.78881000  0.56117000  1.0 0.1600683857
H  H545  1  0.68168000  0.38226000  0.98258000  1.0 0.1098581579
H  H546  1  0.54744000  0.39950000  0.02452000  1.0 0.1190361646
H  H547  1  0.53039000  0.43147000  0.07831000  1.0 0.1190361646
H  H548  1  0.71512000  0.31474000  0.08848000  1.0 0.1098581579
H  H549  1  0.78089000  0.24965000  0.07103000  1.0 0.1190361646
H  H550  1  0.83779000  0.26073000  0.99643000  1.0 0.1361826966
H  H551  1  0.83634000  0.33470000  0.94442000  1.0 0.1190361646
H  H552  1  0.77183000  0.40195000  0.96265000  1.0 0.1190361646
H  H553  1  0.72863000  0.46851000  0.03703000  1.0 0.1098581579
H  H554  1  0.74585000  0.53829000  0.98195000  1.0 0.1098581579
H  H555  1  0.72314000  0.57792000  0.91530000  1.0 0.1190361646
H  H556  1  0.68158000  0.55188000  0.90424000  1.0 0.1291162686
H  H557  1  0.66735000  0.48009000  0.95683000  1.0 0.1098581579
H  H558  1  0.61665000  0.61073000  0.01213000  1.0 0.1600683857
H  H559  1  0.59816000  0.60026000  0.98546000  1.0 0.1700207607
H  H560  1  0.56117000  0.62621000  0.02381000  1.0 0.1600683857
H  H561  1  0.38226000  0.68168000  0.95348000  1.0 0.1098581579
H  H562  1  0.39950000  0.54744000  0.02854000  1.0 0.1190361646
H  H563  1  0.43147000  0.53039000  0.95983000  1.0 0.1190361646
H  H564  1  0.31474000  0.71512000  0.88166000  1.0 0.1098581579
H  H565  1  0.24965000  0.78089000  0.89843000  1.0 0.1190361646
H  H566  1  0.26073000  0.83779000  0.90505000  1.0 0.1361826966
H  H567  1  0.33470000  0.83634000  0.88454000  1.0 0.1190361646
H  H568  1  0.40195000  0.77183000  0.86357000  1.0 0.1190361646
H  H569  1  0.46851000  0.72863000  0.76583000  1.0 0.1098581579
H  H570  1  0.53829000  0.74585000  0.73391000  1.0 0.1098581579
H  H571  1  0.57792000  0.72314000  0.78364000  1.0 0.1190361646
H  H572  1  0.55188000  0.68158000  0.86230000  1.0 0.1291162686
H  H573  1  0.48009000  0.66735000  0.89573000  1.0 0.1098581579
H  H574  1  0.61073000  0.61665000  0.76049000  1.0 0.1600683857
H  H575  1  0.60026000  0.59816000  0.81612000  1.0 0.1700207607
H  H576  1  0.62621000  0.56117000  0.78881000  1.0 0.1600683857
H  H577  1  0.26742000  0.56832000  0.29652000  1.0 0.1098581579
H  H578  1  0.22548000  0.70256000  0.22146000  1.0 0.1190361646
H  H579  1  0.17169000  0.71961000  0.29017000  1.0 0.1190361646
H  H580  1  0.16152000  0.53488000  0.36834000  1.0 0.1098581579
H  H581  1  0.17897000  0.46911000  0.35157000  1.0 0.1190361646
H  H582  1  0.25357000  0.41221000  0.34495000  1.0 0.1361826966
H  H583  1  0.30558000  0.41366000  0.36546000  1.0 0.1190361646
H  H584  1  0.28735000  0.47817000  0.38643000  1.0 0.1190361646
H  H585  1  0.21297000  0.52137000  0.48417000  1.0 0.1098581579
H  H586  1  0.26805000  0.50415000  0.51609000  1.0 0.1098581579
H  H587  1  0.33470000  0.52686000  0.46636000  1.0 0.1190361646
H  H588  1  0.34576000  0.56842000  0.38770000  1.0 0.1291162686
H  H589  1  0.29317000  0.58265000  0.35427000  1.0 0.1098581579
H  H590  1  0.23787000  0.63335000  0.48951000  1.0 0.1600683857
H  H591  1  0.26454000  0.65184000  0.43388000  1.0 0.1700207607
H  H592  1  0.22619000  0.68883000  0.46119000  1.0 0.1600683857
H  H593  1  0.29652000  0.86774000  0.26742000  1.0 0.1098581579
H  H594  1  0.22146000  0.85050000  0.22548000  1.0 0.1190361646
H  H595  1  0.29017000  0.81853000  0.17169000  1.0 0.1190361646
H  H596  1  0.36834000  0.93526000  0.16152000  1.0 0.1098581579
H  H597  1  0.35157000  0.00035000  0.17897000  1.0 0.1190361646
H  H598  1  0.34495000  0.98927000  0.25357000  1.0 0.1361826966
H  H599  1  0.36546000  0.91530000  0.30558000  1.0 0.1190361646
H  H600  1  0.38643000  0.84805000  0.28735000  1.0 0.1190361646
H  H601  1  0.48417000  0.78149000  0.21297000  1.0 0.1098581579
H  H602  1  0.51609000  0.71171000  0.26805000  1.0 0.1098581579
H  H603  1  0.46636000  0.67208000  0.33470000  1.0 0.1190361646
H  H604  1  0.38770000  0.69812000  0.34576000  1.0 0.1291162686
H  H605  1  0.35427000  0.76991000  0.29317000  1.0 0.1098581579
H  H606  1  0.48951000  0.63927000  0.23787000  1.0 0.1600683857
H  H607  1  0.43388000  0.64974000  0.26454000  1.0 0.1700207607
H  H608  1  0.46119000  0.62379000  0.22619000  1.0 0.1600683857
H  H609  1  0.86774000  0.29652000  0.56832000  1.0 0.1098581579
H  H610  1  0.85050000  0.22146000  0.70256000  1.0 0.1190361646
H  H611  1  0.81853000  0.29017000  0.71961000  1.0 0.1190361646
H  H612  1  0.93526000  0.36834000  0.53488000  1.0 0.1098581579
H  H613  1  0.00035000  0.35157000  0.46911000  1.0 0.1190361646
H  H614  1  0.98927000  0.34495000  0.41221000  1.0 0.1361826966
H  H615  1  0.91530000  0.36546000  0.41366000  1.0 0.1190361646
H  H616  1  0.84805000  0.38643000  0.47817000  1.0 0.1190361646
H  H617  1  0.78149000  0.48417000  0.52137000  1.0 0.1098581579
H  H618  1  0.71171000  0.51609000  0.50415000  1.0 0.1098581579
H  H619  1  0.67208000  0.46636000  0.52686000  1.0 0.1190361646
H  H620  1  0.69812000  0.38770000  0.56842000  1.0 0.1291162686
H  H621  1  0.76991000  0.35427000  0.58265000  1.0 0.1098581579
H  H622  1  0.63927000  0.48951000  0.63335000  1.0 0.1600683857
H  H623  1  0.64974000  0.43388000  0.65184000  1.0 0.1700207607
H  H624  1  0.62379000  0.46119000  0.68883000  1.0 0.1600683857
H  H625  1  0.56832000  0.26742000  0.86774000  1.0 0.1098581579
H  H626  1  0.70256000  0.22548000  0.85050000  1.0 0.1190361646
H  H627  1  0.71961000  0.17169000  0.81853000  1.0 0.1190361646
H  H628  1  0.53488000  0.16152000  0.93526000  1.0 0.1098581579
H  H629  1  0.46911000  0.17897000  0.00035000  1.0 0.1190361646
H  H630  1  0.41221000  0.25357000  0.98927000  1.0 0.1361826966
H  H631  1  0.41366000  0.30558000  0.91530000  1.0 0.1190361646
H  H632  1  0.47817000  0.28735000  0.84805000  1.0 0.1190361646
H  H633  1  0.52137000  0.21297000  0.78149000  1.0 0.1098581579
H  H634  1  0.50415000  0.26805000  0.71171000  1.0 0.1098581579
H  H635  1  0.52686000  0.33470000  0.67208000  1.0 0.1190361646
H  H636  1  0.56842000  0.34576000  0.69812000  1.0 0.1291162686
H  H637  1  0.58265000  0.29317000  0.76991000  1.0 0.1098581579
H  H638  1  0.63335000  0.23787000  0.63927000  1.0 0.1600683857
H  H639  1  0.65184000  0.26454000  0.64974000  1.0 0.1700207607
H  H640  1  0.68883000  0.22619000  0.62379000  1.0 0.1600683857
H  H641  1  0.86774000  0.56832000  0.26742000  1.0 0.1098581579
H  H642  1  0.85050000  0.70256000  0.22548000  1.0 0.1190361646
H  H643  1  0.81853000  0.71961000  0.17169000  1.0 0.1190361646
H  H644  1  0.93526000  0.53488000  0.16152000  1.0 0.1098581579
H  H645  1  0.00035000  0.46911000  0.17897000  1.0 0.1190361646
H  H646  1  0.98927000  0.41221000  0.25357000  1.0 0.1361826966
H  H647  1  0.91530000  0.41366000  0.30558000  1.0 0.1190361646
H  H648  1  0.84805000  0.47817000  0.28735000  1.0 0.1190361646
H  H649  1  0.78149000  0.52137000  0.21297000  1.0 0.1098581579
H  H650  1  0.71171000  0.50415000  0.26805000  1.0 0.1098581579
H  H651  1  0.67208000  0.52686000  0.33470000  1.0 0.1190361646
H  H652  1  0.69812000  0.56842000  0.34576000  1.0 0.1291162686
H  H653  1  0.76991000  0.58265000  0.29317000  1.0 0.1098581579
H  H654  1  0.63927000  0.63335000  0.23787000  1.0 0.1600683857
H  H655  1  0.64974000  0.65184000  0.26454000  1.0 0.1700207607
H  H656  1  0.62379000  0.68883000  0.22619000  1.0 0.1600683857
H  H657  1  0.56832000  0.86774000  0.29652000  1.0 0.1098581579
H  H658  1  0.70256000  0.85050000  0.22146000  1.0 0.1190361646
H  H659  1  0.71961000  0.81853000  0.29017000  1.0 0.1190361646
H  H660  1  0.53488000  0.93526000  0.36834000  1.0 0.1098581579
H  H661  1  0.46911000  0.00035000  0.35157000  1.0 0.1190361646
H  H662  1  0.41221000  0.98927000  0.34495000  1.0 0.1361826966
H  H663  1  0.41366000  0.91530000  0.36546000  1.0 0.1190361646
H  H664  1  0.47817000  0.84805000  0.38643000  1.0 0.1190361646
H  H665  1  0.52137000  0.78149000  0.48417000  1.0 0.1098581579
H  H666  1  0.50415000  0.71171000  0.51609000  1.0 0.1098581579
H  H667  1  0.52686000  0.67208000  0.46636000  1.0 0.1190361646
H  H668  1  0.56842000  0.69812000  0.38770000  1.0 0.1291162686
H  H669  1  0.58265000  0.76991000  0.35427000  1.0 0.1098581579
H  H670  1  0.63335000  0.63927000  0.48951000  1.0 0.1600683857
H  H671  1  0.65184000  0.64974000  0.43388000  1.0 0.1700207607
H  H672  1  0.68883000  0.62379000  0.46119000  1.0 0.1600683857
H  H673  1  0.26742000  0.29652000  0.86774000  1.0 0.1098581579
H  H674  1  0.22548000  0.22146000  0.85050000  1.0 0.1190361646
H  H675  1  0.17169000  0.29017000  0.81853000  1.0 0.1190361646
H  H676  1  0.16152000  0.36834000  0.93526000  1.0 0.1098581579
H  H677  1  0.17897000  0.35157000  0.00035000  1.0 0.1190361646
H  H678  1  0.25357000  0.34495000  0.98927000  1.0 0.1361826966
H  H679  1  0.30558000  0.36546000  0.91530000  1.0 0.1190361646
H  H680  1  0.28735000  0.38643000  0.84805000  1.0 0.1190361646
H  H681  1  0.21297000  0.48417000  0.78149000  1.0 0.1098581579
H  H682  1  0.26805000  0.51609000  0.71171000  1.0 0.1098581579
H  H683  1  0.33470000  0.46636000  0.67208000  1.0 0.1190361646
H  H684  1  0.34576000  0.38770000  0.69812000  1.0 0.1291162686
H  H685  1  0.29317000  0.35427000  0.76991000  1.0 0.1098581579
H  H686  1  0.23787000  0.48951000  0.63927000  1.0 0.1600683857
H  H687  1  0.26454000  0.43388000  0.64974000  1.0 0.1700207607
H  H688  1  0.22619000  0.46119000  0.62379000  1.0 0.1600683857
H  H689  1  0.29652000  0.26742000  0.56832000  1.0 0.1098581579
H  H690  1  0.22146000  0.22548000  0.70256000  1.0 0.1190361646
H  H691  1  0.29017000  0.17169000  0.71961000  1.0 0.1190361646
H  H692  1  0.36834000  0.16152000  0.53488000  1.0 0.1098581579
H  H693  1  0.35157000  0.17897000  0.46911000  1.0 0.1190361646
H  H694  1  0.34495000  0.25357000  0.41221000  1.0 0.1361826966
H  H695  1  0.36546000  0.30558000  0.41366000  1.0 0.1190361646
H  H696  1  0.38643000  0.28735000  0.47817000  1.0 0.1190361646
H  H697  1  0.48417000  0.21297000  0.52137000  1.0 0.1098581579
H  H698  1  0.51609000  0.26805000  0.50415000  1.0 0.1098581579
H  H699  1  0.46636000  0.33470000  0.52686000  1.0 0.1190361646
H  H700  1  0.38770000  0.34576000  0.56842000  1.0 0.1291162686
H  H701  1  0.35427000  0.29317000  0.58265000  1.0 0.1098581579
H  H702  1  0.48951000  0.23787000  0.63335000  1.0 0.1600683857
H  H703  1  0.43388000  0.26454000  0.65184000  1.0 0.1700207607
H  H704  1  0.46119000  0.22619000  0.68883000  1.0 0.1600683857
H  H705  1  0.29652000  0.56832000  0.86774000  1.0 0.1098581579
H  H706  1  0.22146000  0.70256000  0.85050000  1.0 0.1190361646
H  H707  1  0.29017000  0.71961000  0.81853000  1.0 0.1190361646
H  H708  1  0.36834000  0.53488000  0.93526000  1.0 0.1098581579
H  H709  1  0.35157000  0.46911000  0.00035000  1.0 0.1190361646
H  H710  1  0.34495000  0.41221000  0.98927000  1.0 0.1361826966
H  H711  1  0.36546000  0.41366000  0.91530000  1.0 0.1190361646
H  H712  1  0.38643000  0.47817000  0.84805000  1.0 0.1190361646
H  H713  1  0.48417000  0.52137000  0.78149000  1.0 0.1098581579
H  H714  1  0.51609000  0.50415000  0.71171000  1.0 0.1098581579
H  H715  1  0.46636000  0.52686000  0.67208000  1.0 0.1190361646
H  H716  1  0.38770000  0.56842000  0.69812000  1.0 0.1291162686
H  H717  1  0.35427000  0.58265000  0.76991000  1.0 0.1098581579
H  H718  1  0.48951000  0.63335000  0.63927000  1.0 0.1600683857
H  H719  1  0.43388000  0.65184000  0.64974000  1.0 0.1700207607
H  H720  1  0.46119000  0.68883000  0.62379000  1.0 0.1600683857
H  H721  1  0.26742000  0.86774000  0.56832000  1.0 0.1098581579
H  H722  1  0.22548000  0.85050000  0.70256000  1.0 0.1190361646
H  H723  1  0.17169000  0.81853000  0.71961000  1.0 0.1190361646
H  H724  1  0.16152000  0.93526000  0.53488000  1.0 0.1098581579
H  H725  1  0.17897000  0.00035000  0.46911000  1.0 0.1190361646
H  H726  1  0.25357000  0.98927000  0.41221000  1.0 0.1361826966
H  H727  1  0.30558000  0.91530000  0.41366000  1.0 0.1190361646
H  H728  1  0.28735000  0.84805000  0.47817000  1.0 0.1190361646
H  H729  1  0.21297000  0.78149000  0.52137000  1.0 0.1098581579
H  H730  1  0.26805000  0.71171000  0.50415000  1.0 0.1098581579
H  H731  1  0.33470000  0.67208000  0.52686000  1.0 0.1190361646
H  H732  1  0.34576000  0.69812000  0.56842000  1.0 0.1291162686
H  H733  1  0.29317000  0.76991000  0.58265000  1.0 0.1098581579
H  H734  1  0.23787000  0.63927000  0.63335000  1.0 0.1600683857
H  H735  1  0.26454000  0.64974000  0.65184000  1.0 0.1700207607
H  H736  1  0.22619000  0.62379000  0.68883000  1.0 0.1600683857
H  H737  1  0.56832000  0.29652000  0.26742000  1.0 0.1098581579
H  H738  1  0.70256000  0.22146000  0.22548000  1.0 0.1190361646
H  H739  1  0.71961000  0.29017000  0.17169000  1.0 0.1190361646
H  H740  1  0.53488000  0.36834000  0.16152000  1.0 0.1098581579
H  H741  1  0.46911000  0.35157000  0.17897000  1.0 0.1190361646
H  H742  1  0.41221000  0.34495000  0.25357000  1.0 0.1361826966
H  H743  1  0.41366000  0.36546000  0.30558000  1.0 0.1190361646
H  H744  1  0.47817000  0.38643000  0.28735000  1.0 0.1190361646
H  H745  1  0.52137000  0.48417000  0.21297000  1.0 0.1098581579
H  H746  1  0.50415000  0.51609000  0.26805000  1.0 0.1098581579
H  H747  1  0.52686000  0.46636000  0.33470000  1.0 0.1190361646
H  H748  1  0.56842000  0.38770000  0.34576000  1.0 0.1291162686
H  H749  1  0.58265000  0.35427000  0.29317000  1.0 0.1098581579
H  H750  1  0.63335000  0.48951000  0.23787000  1.0 0.1600683857
H  H751  1  0.65184000  0.43388000  0.26454000  1.0 0.1700207607
H  H752  1  0.68883000  0.46119000  0.22619000  1.0 0.1600683857
H  H753  1  0.86774000  0.26742000  0.29652000  1.0 0.1098581579
H  H754  1  0.85050000  0.22548000  0.22146000  1.0 0.1190361646
H  H755  1  0.81853000  0.17169000  0.29017000  1.0 0.1190361646
H  H756  1  0.93526000  0.16152000  0.36834000  1.0 0.1098581579
H  H757  1  0.00035000  0.17897000  0.35157000  1.0 0.1190361646
H  H758  1  0.98927000  0.25357000  0.34495000  1.0 0.1361826966
H  H759  1  0.91530000  0.30558000  0.36546000  1.0 0.1190361646
H  H760  1  0.84805000  0.28735000  0.38643000  1.0 0.1190361646
H  H761  1  0.78149000  0.21297000  0.48417000  1.0 0.1098581579
H  H762  1  0.71171000  0.26805000  0.51609000  1.0 0.1098581579
H  H763  1  0.67208000  0.33470000  0.46636000  1.0 0.1190361646
H  H764  1  0.69812000  0.34576000  0.38770000  1.0 0.1291162686
H  H765  1  0.76991000  0.29317000  0.35427000  1.0 0.1098581579
H  H766  1  0.63927000  0.23787000  0.48951000  1.0 0.1600683857
H  H767  1  0.64974000  0.26454000  0.43388000  1.0 0.1700207607
H  H768  1  0.62379000  0.22619000  0.46119000  1.0 0.1600683857
C  C1  1  0.71472000  0.33996000  0.83574000  1.0 0.0515233955
C  C2  1  0.74741000  0.35811000  0.79449000  1.0 0.0156391066
C  C3  1  0.72348000  0.34790000  0.75096000  1.0 0.0272296343
C  C4  1  0.69114000  0.32886000  0.79218000  1.0 0.0353771894
C  C5  1  0.72364000  0.38500000  0.87892000  1.0 -0.0528985894
C  C6  1  0.69096000  0.43078000  0.86816000  1.0 -0.1339201672
C  C7  1  0.70158000  0.46954000  0.85722000  1.0 -0.0885430103
C  C8  1  0.74525000  0.46269000  0.85475000  1.0 -0.0803714161
C  C9  1  0.77619000  0.41935000  0.86589000  1.0 -0.0995715988
C  C10  1  0.76533000  0.37889000  0.87847000  1.0 -0.1132724244
C  C11  1  0.74871000  0.28283000  0.91557000  1.0 -0.0402376089
C  C12  1  0.74053000  0.26519000  0.96419000  1.0 -0.1207385432
C  C13  1  0.77298000  0.22362000  0.98322000  1.0 -0.0885430103
C  C14  1  0.81213000  0.20007000  0.95373000  1.0 -0.0885430103
C  C15  1  0.81933000  0.21575000  0.90705000  1.0 -0.0803714161
C  C16  1  0.78761000  0.25827000  0.88723000  1.0 -0.0995715988
C  C17  1  0.69410000  0.19790000  0.94950000  1.0 0.4132326361
C  C18  1  0.73450000  0.14790000  0.95950000  1.0 -0.4707132286
C  C19  1  0.83574000  0.10958000  0.71472000  1.0 0.0515233955
C  C20  1  0.79449000  0.09999000  0.74741000  1.0 0.0156391066
C  C21  1  0.75096000  0.17766000  0.72348000  1.0 0.0272296343
C  C22  1  0.79218000  0.18782000  0.69114000  1.0 0.0353771894
C  C23  1  0.87892000  0.01244000  0.72364000  1.0 -0.0528985894
C  C24  1  0.86816000  0.01010000  0.69096000  1.0 -0.1339201672
C  C25  1  0.85722000  0.97166000  0.70158000  1.0 -0.0885430103
C  C26  1  0.85475000  0.93731000  0.74525000  1.0 -0.0803714161
C  C27  1  0.86589000  0.93857000  0.77619000  1.0 -0.0995715988
C  C28  1  0.87847000  0.97731000  0.76533000  1.0 -0.1132724244
C  C29  1  0.91557000  0.05289000  0.74871000  1.0 -0.0402376089
C  C30  1  0.96419000  0.03009000  0.74053000  1.0 -0.1207385432
C  C31  1  0.98322000  0.02018000  0.77298000  1.0 -0.0995715988
C  C32  1  0.95373000  0.03407000  0.81213000  1.0 -0.0885430103
C  C33  1  0.90705000  0.05787000  0.81933000  1.0 -0.0803714161
C  C34  1  0.88723000  0.06689000  0.78761000  1.0 -0.0995715988
C  C35  1  0.94950000  0.15850000  0.69410000  1.0 0.4132326361
C  C36  1  0.95950000  0.15810000  0.73450000  1.0 -0.4707132286
C  C37  1  0.33996000  0.71472000  0.10958000  1.0 0.0515233955
C  C38  1  0.35811000  0.74741000  0.09999000  1.0 0.0156391066
C  C39  1  0.34790000  0.72348000  0.17766000  1.0 0.0272296343
C  C40  1  0.32886000  0.69114000  0.18782000  1.0 0.0353771894
C  C41  1  0.38500000  0.72364000  0.01244000  1.0 -0.0528985894
C  C42  1  0.43078000  0.69096000  0.01010000  1.0 -0.1339201672
C  C43  1  0.46954000  0.70158000  0.97166000  1.0 -0.0885430103
C  C44  1  0.46269000  0.74525000  0.93731000  1.0 -0.0803714161
C  C45  1  0.41935000  0.77619000  0.93857000  1.0 -0.0995715988
C  C46  1  0.37889000  0.76533000  0.97731000  1.0 -0.1132724244
C  C47  1  0.28283000  0.74871000  0.05289000  1.0 -0.0402376089
C  C48  1  0.26519000  0.74053000  0.03009000  1.0 -0.1207385432
C  C49  1  0.22362000  0.77298000  0.02018000  1.0 -0.0885430103
C  C50  1  0.20007000  0.81213000  0.03407000  1.0 -0.0885430103
C  C51  1  0.21575000  0.81933000  0.05787000  1.0 -0.0803714161
C  C52  1  0.25827000  0.78761000  0.06689000  1.0 -0.0995715988
C  C53  1  0.19790000  0.69410000  0.15850000  1.0 0.4132326361
C  C54  1  0.14790000  0.73450000  0.15810000  1.0 -0.4707132286
C  C55  1  0.10958000  0.83574000  0.33996000  1.0 0.0515233955
C  C56  1  0.09999000  0.79449000  0.35811000  1.0 0.0156391066
C  C57  1  0.17766000  0.75096000  0.34790000  1.0 0.0272296343
C  C58  1  0.18782000  0.79218000  0.32886000  1.0 0.0353771894
C  C59  1  0.01244000  0.87892000  0.38500000  1.0 -0.0528985894
C  C60  1  0.01010000  0.86816000  0.43078000  1.0 -0.1339201672
C  C61  1  0.97166000  0.85722000  0.46954000  1.0 -0.0885430103
C  C62  1  0.93731000  0.85475000  0.46269000  1.0 -0.0803714161
C  C63  1  0.93857000  0.86589000  0.41935000  1.0 -0.0995715988
C  C64  1  0.97731000  0.87847000  0.37889000  1.0 -0.1132724244
C  C65  1  0.05289000  0.91557000  0.28283000  1.0 -0.0402376089
C  C66  1  0.03009000  0.96419000  0.26519000  1.0 -0.1207385432
C  C67  1  0.02018000  0.98322000  0.22362000  1.0 -0.0885430103
C  C68  1  0.03407000  0.95373000  0.20007000  1.0 -0.0885430103
C  C69  1  0.05787000  0.90705000  0.21575000  1.0 -0.0803714161
C  C70  1  0.06689000  0.88723000  0.25827000  1.0 -0.0995715988
C  C71  1  0.15850000  0.94950000  0.19790000  1.0 0.4132326361
C  C72  1  0.15810000  0.95950000  0.14790000  1.0 -0.4707132286
C  C73  1  0.33996000  0.83574000  0.71472000  1.0 0.0515233955
C  C74  1  0.35811000  0.79449000  0.74741000  1.0 0.0156391066
C  C75  1  0.34790000  0.75096000  0.72348000  1.0 0.0272296343
C  C76  1  0.32886000  0.79218000  0.69114000  1.0 0.0353771894
C  C77  1  0.38500000  0.87892000  0.72364000  1.0 -0.0528985894
C  C78  1  0.43078000  0.86816000  0.69096000  1.0 -0.1339201672
C  C79  1  0.46954000  0.85722000  0.70158000  1.0 -0.0885430103
C  C80  1  0.46269000  0.85475000  0.74525000  1.0 -0.0803714161
C  C81  1  0.41935000  0.86589000  0.77619000  1.0 -0.0995715988
C  C82  1  0.37889000  0.87847000  0.76533000  1.0 -0.1132724244
C  C83  1  0.28283000  0.91557000  0.74871000  1.0 -0.0402376089
C  C84  1  0.26519000  0.96419000  0.74053000  1.0 -0.1207385432
C  C85  1  0.22362000  0.98322000  0.77298000  1.0 -0.0885430103
C  C86  1  0.20007000  0.95373000  0.81213000  1.0 -0.0885430103
C  C87  1  0.21575000  0.90705000  0.81933000  1.0 -0.0803714161
C  C88  1  0.25827000  0.88723000  0.78761000  1.0 -0.0995715988
C  C89  1  0.19790000  0.94950000  0.69410000  1.0 0.4132326361
C  C90  1  0.14790000  0.95950000  0.73450000  1.0 -0.4707132286
C  C91  1  0.10958000  0.71472000  0.83574000  1.0 0.0515233955
C  C92  1  0.09999000  0.74741000  0.79449000  1.0 0.0156391066
C  C93  1  0.17766000  0.72348000  0.75096000  1.0 0.0272296343
C  C94  1  0.18782000  0.69114000  0.79218000  1.0 0.0353771894
C  C95  1  0.01244000  0.72364000  0.87892000  1.0 -0.0528985894
C  C96  1  0.01010000  0.69096000  0.86816000  1.0 -0.1339201672
C  C97  1  0.97166000  0.70158000  0.85722000  1.0 -0.0885430103
C  C98  1  0.93731000  0.74525000  0.85475000  1.0 -0.0803714161
C  C99  1  0.93857000  0.77619000  0.86589000  1.0 -0.0995715988
C  C100  1  0.97731000  0.76533000  0.87847000  1.0 -0.1132724244
C  C101  1  0.05289000  0.74871000  0.91557000  1.0 -0.0402376089
C  C102  1  0.03009000  0.74053000  0.96419000  1.0 -0.1207385432
C  C103  1  0.02018000  0.77298000  0.98322000  1.0 -0.0995715988
C  C104  1  0.03407000  0.81213000  0.95373000  1.0 -0.0885430103
C  C105  1  0.05787000  0.81933000  0.90705000  1.0 -0.0803714161
C  C106  1  0.06689000  0.78761000  0.88723000  1.0 -0.0995715988
C  C107  1  0.15850000  0.69410000  0.94950000  1.0 0.4132326361
C  C108  1  0.15810000  0.73450000  0.95950000  1.0 -0.4707132286
C  C109  1  0.71472000  0.10958000  0.33996000  1.0 0.0515233955
C  C110  1  0.74741000  0.09999000  0.35811000  1.0 0.0156391066
C  C111  1  0.72348000  0.17766000  0.34790000  1.0 0.0272296343
C  C112  1  0.69114000  0.18782000  0.32886000  1.0 0.0353771894
C  C113  1  0.72364000  0.01244000  0.38500000  1.0 -0.0528985894
C  C114  1  0.69096000  0.01010000  0.43078000  1.0 -0.1339201672
C  C115  1  0.70158000  0.97166000  0.46954000  1.0 -0.0885430103
C  C116  1  0.74525000  0.93731000  0.46269000  1.0 -0.0803714161
C  C117  1  0.77619000  0.93857000  0.41935000  1.0 -0.0995715988
C  C118  1  0.76533000  0.97731000  0.37889000  1.0 -0.1132724244
C  C119  1  0.74871000  0.05289000  0.28283000  1.0 -0.0402376089
C  C120  1  0.74053000  0.03009000  0.26519000  1.0 -0.1207385432
C  C121  1  0.77298000  0.02018000  0.22362000  1.0 -0.0885430103
C  C122  1  0.81213000  0.03407000  0.20007000  1.0 -0.0885430103
C  C123  1  0.81933000  0.05787000  0.21575000  1.0 -0.0803714161
C  C124  1  0.78761000  0.06689000  0.25827000  1.0 -0.0995715988
C  C125  1  0.69410000  0.15850000  0.19790000  1.0 0.4132326361
C  C126  1  0.73450000  0.15810000  0.14790000  1.0 -0.4707132286
C  C127  1  0.83574000  0.33996000  0.10958000  1.0 0.0515233955
C  C128  1  0.79449000  0.35811000  0.09999000  1.0 0.0156391066
C  C129  1  0.75096000  0.34790000  0.17766000  1.0 0.0272296343
C  C130  1  0.79218000  0.32886000  0.18782000  1.0 0.0353771894
C  C131  1  0.87892000  0.38500000  0.01244000  1.0 -0.0528985894
C  C132  1  0.86816000  0.43078000  0.01010000  1.0 -0.1339201672
C  C133  1  0.85722000  0.46954000  0.97166000  1.0 -0.0885430103
C  C134  1  0.85475000  0.46269000  0.93731000  1.0 -0.0803714161
C  C135  1  0.86589000  0.41935000  0.93857000  1.0 -0.0995715988
C  C136  1  0.87847000  0.37889000  0.97731000  1.0 -0.1132724244
C  C137  1  0.91557000  0.28283000  0.05289000  1.0 -0.0402376089
C  C138  1  0.96419000  0.26519000  0.03009000  1.0 -0.1207385432
C  C139  1  0.98322000  0.22362000  0.02018000  1.0 -0.0885430103
C  C140  1  0.95373000  0.20007000  0.03407000  1.0 -0.0885430103
C  C141  1  0.90705000  0.21575000  0.05787000  1.0 -0.0803714161
C  C142  1  0.88723000  0.25827000  0.06689000  1.0 -0.0995715988
C  C143  1  0.94950000  0.19790000  0.15850000  1.0 0.4132326361
C  C144  1  0.95950000  0.14790000  0.15810000  1.0 -0.4707132286
C  C145  1  0.83574000  0.71472000  0.33996000  1.0 0.0515233955
C  C146  1  0.79449000  0.74741000  0.35811000  1.0 0.0156391066
C  C147  1  0.75096000  0.72348000  0.34790000  1.0 0.0272296343
C  C148  1  0.79218000  0.69114000  0.32886000  1.0 0.0353771894
C  C149  1  0.87892000  0.72364000  0.38500000  1.0 -0.0528985894
C  C150  1  0.86816000  0.69096000  0.43078000  1.0 -0.1339201672
C  C151  1  0.85722000  0.70158000  0.46954000  1.0 -0.0885430103
C  C152  1  0.85475000  0.74525000  0.46269000  1.0 -0.0803714161
C  C153  1  0.86589000  0.77619000  0.41935000  1.0 -0.0995715988
C  C154  1  0.87847000  0.76533000  0.37889000  1.0 -0.1132724244
C  C155  1  0.91557000  0.74871000  0.28283000  1.0 -0.0402376089
C  C156  1  0.96419000  0.74053000  0.26519000  1.0 -0.1207385432
C  C157  1  0.98322000  0.77298000  0.22362000  1.0 -0.0885430103
C  C158  1  0.95373000  0.81213000  0.20007000  1.0 -0.0885430103
C  C159  1  0.90705000  0.81933000  0.21575000  1.0 -0.0803714161
C  C160  1  0.88723000  0.78761000  0.25827000  1.0 -0.0995715988
C  C161  1  0.94950000  0.69410000  0.19790000  1.0 0.4132326361
C  C162  1  0.95950000  0.73450000  0.14790000  1.0 -0.4707132286
C  C163  1  0.71472000  0.83574000  0.10958000  1.0 0.0515233955
C  C164  1  0.74741000  0.79449000  0.09999000  1.0 0.0156391066
C  C165  1  0.72348000  0.75096000  0.17766000  1.0 0.0272296343
C  C166  1  0.69114000  0.79218000  0.18782000  1.0 0.0353771894
C  C167  1  0.72364000  0.87892000  0.01244000  1.0 -0.0528985894
C  C168  1  0.69096000  0.86816000  0.01010000  1.0 -0.1339201672
C  C169  1  0.70158000  0.85722000  0.97166000  1.0 -0.0885430103
C  C170  1  0.74525000  0.85475000  0.93731000  1.0 -0.0803714161
C  C171  1  0.77619000  0.86589000  0.93857000  1.0 -0.0995715988
C  C172  1  0.76533000  0.87847000  0.97731000  1.0 -0.1132724244
C  C173  1  0.74871000  0.91557000  0.05289000  1.0 -0.0402376089
C  C174  1  0.74053000  0.96419000  0.03009000  1.0 -0.1207385432
C  C175  1  0.77298000  0.98322000  0.02018000  1.0 -0.0995715988
C  C176  1  0.81213000  0.95373000  0.03407000  1.0 -0.0885430103
C  C177  1  0.81933000  0.90705000  0.05787000  1.0 -0.0803714161
C  C178  1  0.78761000  0.88723000  0.06689000  1.0 -0.0995715988
C  C179  1  0.69410000  0.94950000  0.15850000  1.0 0.4132326361
C  C180  1  0.73450000  0.95950000  0.15810000  1.0 -0.4707132286
C  C181  1  0.10958000  0.33996000  0.71472000  1.0 0.0515233955
C  C182  1  0.09999000  0.35811000  0.74741000  1.0 0.0156391066
C  C183  1  0.17766000  0.34790000  0.72348000  1.0 0.0272296343
C  C184  1  0.18782000  0.32886000  0.69114000  1.0 0.0353771894
C  C185  1  0.01244000  0.38500000  0.72364000  1.0 -0.0528985894
C  C186  1  0.01010000  0.43078000  0.69096000  1.0 -0.1339201672
C  C187  1  0.97166000  0.46954000  0.70158000  1.0 -0.0885430103
C  C188  1  0.93731000  0.46269000  0.74525000  1.0 -0.0803714161
C  C189  1  0.93857000  0.41935000  0.77619000  1.0 -0.0995715988
C  C190  1  0.97731000  0.37889000  0.76533000  1.0 -0.1132724244
C  C191  1  0.05289000  0.28283000  0.74871000  1.0 -0.0402376089
C  C192  1  0.03009000  0.26519000  0.74053000  1.0 -0.1207385432
C  C193  1  0.02018000  0.22362000  0.77298000  1.0 -0.0885430103
C  C194  1  0.03407000  0.20007000  0.81213000  1.0 -0.0885430103
C  C195  1  0.05787000  0.21575000  0.81933000  1.0 -0.0803714161
C  C196  1  0.06689000  0.25827000  0.78761000  1.0 -0.0995715988
C  C197  1  0.15850000  0.19790000  0.69410000  1.0 0.4132326361
C  C198  1  0.15810000  0.14790000  0.73450000  1.0 -0.4707132286
C  C199  1  0.33996000  0.10958000  0.83574000  1.0 0.0515233955
C  C200  1  0.35811000  0.09999000  0.79449000  1.0 0.0156391066
C  C201  1  0.34790000  0.17766000  0.75096000  1.0 0.0272296343
C  C202  1  0.32886000  0.18782000  0.79218000  1.0 0.0353771894
C  C203  1  0.38500000  0.01244000  0.87892000  1.0 -0.0528985894
C  C204  1  0.43078000  0.01010000  0.86816000  1.0 -0.1339201672
C  C205  1  0.46954000  0.97166000  0.85722000  1.0 -0.0885430103
C  C206  1  0.46269000  0.93731000  0.85475000  1.0 -0.0803714161
C  C207  1  0.41935000  0.93857000  0.86589000  1.0 -0.0995715988
C  C208  1  0.37889000  0.97731000  0.87847000  1.0 -0.1132724244
C  C209  1  0.28283000  0.05289000  0.91557000  1.0 -0.0402376089
C  C210  1  0.26519000  0.03009000  0.96419000  1.0 -0.1207385432
C  C211  1  0.22362000  0.02018000  0.98322000  1.0 -0.0885430103
C  C212  1  0.20007000  0.03407000  0.95373000  1.0 -0.0885430103
C  C213  1  0.21575000  0.05787000  0.90705000  1.0 -0.0803714161
C  C214  1  0.25827000  0.06689000  0.88723000  1.0 -0.0995715988
C  C215  1  0.19790000  0.15850000  0.94950000  1.0 0.4132326361
C  C216  1  0.14790000  0.15810000  0.95950000  1.0 -0.4707132286
C  C217  1  0.53528000  0.14042000  0.41426000  1.0 0.0515233955
C  C218  1  0.50259000  0.15001000  0.45551000  1.0 0.0156391066
C  C219  1  0.52652000  0.07234000  0.49904000  1.0 0.0272296343
C  C220  1  0.55886000  0.06218000  0.45782000  1.0 0.0353771894
C  C221  1  0.52636000  0.23756000  0.37108000  1.0 -0.0528985894
C  C222  1  0.55904000  0.23990000  0.38184000  1.0 -0.1339201672
C  C223  1  0.54842000  0.27834000  0.39278000  1.0 -0.0885430103
C  C224  1  0.50475000  0.31269000  0.39525000  1.0 -0.0803714161
C  C225  1  0.47381000  0.31143000  0.38411000  1.0 -0.0995715988
C  C226  1  0.48467000  0.27269000  0.37153000  1.0 -0.1132724244
C  C227  1  0.50129000  0.19711000  0.33443000  1.0 -0.0402376089
C  C228  1  0.50947000  0.21991000  0.28581000  1.0 -0.1207385432
C  C229  1  0.47702000  0.22982000  0.26678000  1.0 -0.0885430103
C  C230  1  0.43787000  0.21593000  0.29627000  1.0 -0.0885430103
C  C231  1  0.43067000  0.19213000  0.34295000  1.0 -0.0803714161
C  C232  1  0.46239000  0.18311000  0.36277000  1.0 -0.0995715988
C  C233  1  0.55590000  0.09150000  0.30050000  1.0 0.4132326361
C  C234  1  0.51550000  0.09190000  0.29050000  1.0 -0.4707132286
C  C235  1  0.41426000  0.91004000  0.53528000  1.0 0.0515233955
C  C236  1  0.45551000  0.89189000  0.50259000  1.0 0.0156391066
C  C237  1  0.49904000  0.90210000  0.52652000  1.0 0.0272296343
C  C238  1  0.45782000  0.92114000  0.55886000  1.0 0.0353771894
C  C239  1  0.37108000  0.86500000  0.52636000  1.0 -0.0528985894
C  C240  1  0.38184000  0.81922000  0.55904000  1.0 -0.1339201672
C  C241  1  0.39278000  0.78046000  0.54842000  1.0 -0.0885430103
C  C242  1  0.39525000  0.78731000  0.50475000  1.0 -0.0803714161
C  C243  1  0.38411000  0.83065000  0.47381000  1.0 -0.0995715988
C  C244  1  0.37153000  0.87111000  0.48467000  1.0 -0.1132724244
C  C245  1  0.33443000  0.96717000  0.50129000  1.0 -0.0402376089
C  C246  1  0.28581000  0.98481000  0.50947000  1.0 -0.1207385432
C  C247  1  0.26678000  0.02638000  0.47702000  1.0 -0.0995715988
C  C248  1  0.29627000  0.04993000  0.43787000  1.0 -0.0885430103
C  C249  1  0.34295000  0.03425000  0.43067000  1.0 -0.0803714161
C  C250  1  0.36277000  0.99173000  0.46239000  1.0 -0.0995715988
C  C251  1  0.30050000  0.05210000  0.55590000  1.0 0.4132326361
C  C252  1  0.29050000  0.10210000  0.51550000  1.0 -0.4707132286
C  C253  1  0.91004000  0.41426000  0.14042000  1.0 0.0515233955
C  C254  1  0.89189000  0.45551000  0.15001000  1.0 0.0156391066
C  C255  1  0.90210000  0.49904000  0.07234000  1.0 0.0272296343
C  C256  1  0.92114000  0.45782000  0.06218000  1.0 0.0353771894
C  C257  1  0.86500000  0.37108000  0.23756000  1.0 -0.0528985894
C  C258  1  0.81922000  0.38184000  0.23990000  1.0 -0.1339201672
C  C259  1  0.78046000  0.39278000  0.27834000  1.0 -0.0885430103
C  C260  1  0.78731000  0.39525000  0.31269000  1.0 -0.0803714161
C  C261  1  0.83065000  0.38411000  0.31143000  1.0 -0.0995715988
C  C262  1  0.87111000  0.37153000  0.27269000  1.0 -0.1132724244
C  C263  1  0.96717000  0.33443000  0.19711000  1.0 -0.0402376089
C  C264  1  0.98481000  0.28581000  0.21991000  1.0 -0.1207385432
C  C265  1  0.02638000  0.26678000  0.22982000  1.0 -0.0885430103
C  C266  1  0.04993000  0.29627000  0.21593000  1.0 -0.0885430103
C  C267  1  0.03425000  0.34295000  0.19213000  1.0 -0.0803714161
C  C268  1  0.99173000  0.36277000  0.18311000  1.0 -0.0995715988
C  C269  1  0.05210000  0.30050000  0.09150000  1.0 0.4132326361
C  C270  1  0.10210000  0.29050000  0.09190000  1.0 -0.4707132286
C  C271  1  0.14042000  0.53528000  0.91004000  1.0 0.0515233955
C  C272  1  0.15001000  0.50259000  0.89189000  1.0 0.0156391066
C  C273  1  0.07234000  0.52652000  0.90210000  1.0 0.0272296343
C  C274  1  0.06218000  0.55886000  0.92114000  1.0 0.0353771894
C  C275  1  0.23756000  0.52636000  0.86500000  1.0 -0.0528985894
C  C276  1  0.23990000  0.55904000  0.81922000  1.0 -0.1339201672
C  C277  1  0.27834000  0.54842000  0.78046000  1.0 -0.0885430103
C  C278  1  0.31269000  0.50475000  0.78731000  1.0 -0.0803714161
C  C279  1  0.31143000  0.47381000  0.83065000  1.0 -0.0995715988
C  C280  1  0.27269000  0.48467000  0.87111000  1.0 -0.1132724244
C  C281  1  0.19711000  0.50129000  0.96717000  1.0 -0.0402376089
C  C282  1  0.21991000  0.50947000  0.98481000  1.0 -0.1207385432
C  C283  1  0.22982000  0.47702000  0.02638000  1.0 -0.0885430103
C  C284  1  0.21593000  0.43787000  0.04993000  1.0 -0.0885430103
C  C285  1  0.19213000  0.43067000  0.03425000  1.0 -0.0803714161
C  C286  1  0.18311000  0.46239000  0.99173000  1.0 -0.0995715988
C  C287  1  0.09150000  0.55590000  0.05210000  1.0 0.4132326361
C  C288  1  0.09190000  0.51550000  0.10210000  1.0 -0.4707132286
C  C289  1  0.91004000  0.14042000  0.53528000  1.0 0.0515233955
C  C290  1  0.89189000  0.15001000  0.50259000  1.0 0.0156391066
C  C291  1  0.90210000  0.07234000  0.52652000  1.0 0.0272296343
C  C292  1  0.92114000  0.06218000  0.55886000  1.0 0.0353771894
C  C293  1  0.86500000  0.23756000  0.52636000  1.0 -0.0528985894
C  C294  1  0.81922000  0.23990000  0.55904000  1.0 -0.1339201672
C  C295  1  0.78046000  0.27834000  0.54842000  1.0 -0.0885430103
C  C296  1  0.78731000  0.31269000  0.50475000  1.0 -0.0803714161
C  C297  1  0.83065000  0.31143000  0.47381000  1.0 -0.0995715988
C  C298  1  0.87111000  0.27269000  0.48467000  1.0 -0.1132724244
C  C299  1  0.96717000  0.19711000  0.50129000  1.0 -0.0402376089
C  C300  1  0.98481000  0.21991000  0.50947000  1.0 -0.1207385432
C  C301  1  0.02638000  0.22982000  0.47702000  1.0 -0.0885430103
C  C302  1  0.04993000  0.21593000  0.43787000  1.0 -0.0885430103
C  C303  1  0.03425000  0.19213000  0.43067000  1.0 -0.0803714161
C  C304  1  0.99173000  0.18311000  0.46239000  1.0 -0.0995715988
C  C305  1  0.05210000  0.09150000  0.55590000  1.0 0.4132326361
C  C306  1  0.10210000  0.09190000  0.51550000  1.0 -0.4707132286
C  C307  1  0.14042000  0.91004000  0.41426000  1.0 0.0515233955
C  C308  1  0.15001000  0.89189000  0.45551000  1.0 0.0156391066
C  C309  1  0.07234000  0.90210000  0.49904000  1.0 0.0272296343
C  C310  1  0.06218000  0.92114000  0.45782000  1.0 0.0353771894
C  C311  1  0.23756000  0.86500000  0.37108000  1.0 -0.0528985894
C  C312  1  0.23990000  0.81922000  0.38184000  1.0 -0.1339201672
C  C313  1  0.27834000  0.78046000  0.39278000  1.0 -0.0885430103
C  C314  1  0.31269000  0.78731000  0.39525000  1.0 -0.0803714161
C  C315  1  0.31143000  0.83065000  0.38411000  1.0 -0.0995715988
C  C316  1  0.27269000  0.87111000  0.37153000  1.0 -0.1132724244
C  C317  1  0.19711000  0.96717000  0.33443000  1.0 -0.0402376089
C  C318  1  0.21991000  0.98481000  0.28581000  1.0 -0.1207385432
C  C319  1  0.22982000  0.02638000  0.26678000  1.0 -0.0885430103
C  C320  1  0.21593000  0.04993000  0.29627000  1.0 -0.0885430103
C  C321  1  0.19213000  0.03425000  0.34295000  1.0 -0.0803714161
C  C322  1  0.18311000  0.99173000  0.36277000  1.0 -0.0995715988
C  C323  1  0.09150000  0.05210000  0.30050000  1.0 0.4132326361
C  C324  1  0.09190000  0.10210000  0.29050000  1.0 -0.4707132286
C  C325  1  0.53528000  0.41426000  0.91004000  1.0 0.0515233955
C  C326  1  0.50259000  0.45551000  0.89189000  1.0 0.0156391066
C  C327  1  0.52652000  0.49904000  0.90210000  1.0 0.0272296343
C  C328  1  0.55886000  0.45782000  0.92114000  1.0 0.0353771894
C  C329  1  0.52636000  0.37108000  0.86500000  1.0 -0.0528985894
C  C330  1  0.55904000  0.38184000  0.81922000  1.0 -0.1339201672
C  C331  1  0.54842000  0.39278000  0.78046000  1.0 -0.0885430103
C  C332  1  0.50475000  0.39525000  0.78731000  1.0 -0.0803714161
C  C333  1  0.47381000  0.38411000  0.83065000  1.0 -0.0995715988
C  C334  1  0.48467000  0.37153000  0.87111000  1.0 -0.1132724244
C  C335  1  0.50129000  0.33443000  0.96717000  1.0 -0.0402376089
C  C336  1  0.50947000  0.28581000  0.98481000  1.0 -0.1207385432
C  C337  1  0.47702000  0.26678000  0.02638000  1.0 -0.0885430103
C  C338  1  0.43787000  0.29627000  0.04993000  1.0 -0.0885430103
C  C339  1  0.43067000  0.34295000  0.03425000  1.0 -0.0803714161
C  C340  1  0.46239000  0.36277000  0.99173000  1.0 -0.0995715988
C  C341  1  0.55590000  0.30050000  0.05210000  1.0 0.4132326361
C  C342  1  0.51550000  0.29050000  0.10210000  1.0 -0.4707132286
C  C343  1  0.41426000  0.53528000  0.14042000  1.0 0.0515233955
C  C344  1  0.45551000  0.50259000  0.15001000  1.0 0.0156391066
C  C345  1  0.49904000  0.52652000  0.07234000  1.0 0.0272296343
C  C346  1  0.45782000  0.55886000  0.06218000  1.0 0.0353771894
C  C347  1  0.37108000  0.52636000  0.23756000  1.0 -0.0528985894
C  C348  1  0.38184000  0.55904000  0.23990000  1.0 -0.1339201672
C  C349  1  0.39278000  0.54842000  0.27834000  1.0 -0.0885430103
C  C350  1  0.39525000  0.50475000  0.31269000  1.0 -0.0803714161
C  C351  1  0.38411000  0.47381000  0.31143000  1.0 -0.0995715988
C  C352  1  0.37153000  0.48467000  0.27269000  1.0 -0.1132724244
C  C353  1  0.33443000  0.50129000  0.19711000  1.0 -0.0402376089
C  C354  1  0.28581000  0.50947000  0.21991000  1.0 -0.1207385432
C  C355  1  0.26678000  0.47702000  0.22982000  1.0 -0.0885430103
C  C356  1  0.29627000  0.43787000  0.21593000  1.0 -0.0885430103
C  C357  1  0.34295000  0.43067000  0.19213000  1.0 -0.0803714161
C  C358  1  0.36277000  0.46239000  0.18311000  1.0 -0.0995715988
C  C359  1  0.30050000  0.55590000  0.09150000  1.0 0.4132326361
C  C360  1  0.29050000  0.51550000  0.09190000  1.0 -0.4707132286
C  C361  1  0.41426000  0.14042000  0.91004000  1.0 0.0515233955
C  C362  1  0.45551000  0.15001000  0.89189000  1.0 0.0156391066
C  C363  1  0.49904000  0.07234000  0.90210000  1.0 0.0272296343
C  C364  1  0.45782000  0.06218000  0.92114000  1.0 0.0353771894
C  C365  1  0.37108000  0.23756000  0.86500000  1.0 -0.0528985894
C  C366  1  0.38184000  0.23990000  0.81922000  1.0 -0.1339201672
C  C367  1  0.39278000  0.27834000  0.78046000  1.0 -0.0885430103
C  C368  1  0.39525000  0.31269000  0.78731000  1.0 -0.0803714161
C  C369  1  0.38411000  0.31143000  0.83065000  1.0 -0.0995715988
C  C370  1  0.37153000  0.27269000  0.87111000  1.0 -0.1132724244
C  C371  1  0.33443000  0.19711000  0.96717000  1.0 -0.0402376089
C  C372  1  0.28581000  0.21991000  0.98481000  1.0 -0.1207385432
C  C373  1  0.26678000  0.22982000  0.02638000  1.0 -0.0885430103
C  C374  1  0.29627000  0.21593000  0.04993000  1.0 -0.0885430103
C  C375  1  0.34295000  0.19213000  0.03425000  1.0 -0.0803714161
C  C376  1  0.36277000  0.18311000  0.99173000  1.0 -0.0995715988
C  C377  1  0.30050000  0.09150000  0.05210000  1.0 0.4132326361
C  C378  1  0.29050000  0.09190000  0.10210000  1.0 -0.4707132286
C  C379  1  0.53528000  0.91004000  0.14042000  1.0 0.0515233955
C  C380  1  0.50259000  0.89189000  0.15001000  1.0 0.0156391066
C  C381  1  0.52652000  0.90210000  0.07234000  1.0 0.0272296343
C  C382  1  0.55886000  0.92114000  0.06218000  1.0 0.0353771894
C  C383  1  0.52636000  0.86500000  0.23756000  1.0 -0.0528985894
C  C384  1  0.55904000  0.81922000  0.23990000  1.0 -0.1339201672
C  C385  1  0.54842000  0.78046000  0.27834000  1.0 -0.0885430103
C  C386  1  0.50475000  0.78731000  0.31269000  1.0 -0.0803714161
C  C387  1  0.47381000  0.83065000  0.31143000  1.0 -0.0995715988
C  C388  1  0.48467000  0.87111000  0.27269000  1.0 -0.1132724244
C  C389  1  0.50129000  0.96717000  0.19711000  1.0 -0.0402376089
C  C390  1  0.50947000  0.98481000  0.21991000  1.0 -0.1207385432
C  C391  1  0.47702000  0.02638000  0.22982000  1.0 -0.0885430103
C  C392  1  0.43787000  0.04993000  0.21593000  1.0 -0.0885430103
C  C393  1  0.43067000  0.03425000  0.19213000  1.0 -0.0803714161
C  C394  1  0.46239000  0.99173000  0.18311000  1.0 -0.0995715988
C  C395  1  0.55590000  0.05210000  0.09150000  1.0 0.4132326361
C  C396  1  0.51550000  0.10210000  0.09190000  1.0 -0.4707132286
C  C397  1  0.14042000  0.41426000  0.53528000  1.0 0.0515233955
C  C398  1  0.15001000  0.45551000  0.50259000  1.0 0.0156391066
C  C399  1  0.07234000  0.49904000  0.52652000  1.0 0.0272296343
C  C400  1  0.06218000  0.45782000  0.55886000  1.0 0.0353771894
C  C401  1  0.23756000  0.37108000  0.52636000  1.0 -0.0528985894
C  C402  1  0.23990000  0.38184000  0.55904000  1.0 -0.1339201672
C  C403  1  0.27834000  0.39278000  0.54842000  1.0 -0.0885430103
C  C404  1  0.31269000  0.39525000  0.50475000  1.0 -0.0803714161
C  C405  1  0.31143000  0.38411000  0.47381000  1.0 -0.0995715988
C  C406  1  0.27269000  0.37153000  0.48467000  1.0 -0.1132724244
C  C407  1  0.19711000  0.33443000  0.50129000  1.0 -0.0402376089
C  C408  1  0.21991000  0.28581000  0.50947000  1.0 -0.1207385432
C  C409  1  0.22982000  0.26678000  0.47702000  1.0 -0.0995715988
C  C410  1  0.21593000  0.29627000  0.43787000  1.0 -0.0885430103
C  C411  1  0.19213000  0.34295000  0.43067000  1.0 -0.0803714161
C  C412  1  0.18311000  0.36277000  0.46239000  1.0 -0.0995715988
C  C413  1  0.09150000  0.30050000  0.55590000  1.0 0.4132326361
C  C414  1  0.09190000  0.29050000  0.51550000  1.0 -0.4707132286
C  C415  1  0.91004000  0.53528000  0.41426000  1.0 0.0515233955
C  C416  1  0.89189000  0.50259000  0.45551000  1.0 0.0156391066
C  C417  1  0.90210000  0.52652000  0.49904000  1.0 0.0272296343
C  C418  1  0.92114000  0.55886000  0.45782000  1.0 0.0353771894
C  C419  1  0.86500000  0.52636000  0.37108000  1.0 -0.0528985894
C  C420  1  0.81922000  0.55904000  0.38184000  1.0 -0.1339201672
C  C421  1  0.78046000  0.54842000  0.39278000  1.0 -0.0885430103
C  C422  1  0.78731000  0.50475000  0.39525000  1.0 -0.0803714161
C  C423  1  0.83065000  0.47381000  0.38411000  1.0 -0.0995715988
C  C424  1  0.87111000  0.48467000  0.37153000  1.0 -0.1132724244
C  C425  1  0.96717000  0.50129000  0.33443000  1.0 -0.0402376089
C  C426  1  0.98481000  0.50947000  0.28581000  1.0 -0.1207385432
C  C427  1  0.02638000  0.47702000  0.26678000  1.0 -0.0995715988
C  C428  1  0.04993000  0.43787000  0.29627000  1.0 -0.0885430103
C  C429  1  0.03425000  0.43067000  0.34295000  1.0 -0.0803714161
C  C430  1  0.99173000  0.46239000  0.36277000  1.0 -0.0995715988
C  C431  1  0.05210000  0.55590000  0.30050000  1.0 0.4132326361
C  C432  1  0.10210000  0.51550000  0.29050000  1.0 -0.4707132286
C  C433  1  0.03528000  0.41004000  0.91426000  1.0 0.0515233955
C  C434  1  0.00259000  0.39189000  0.95551000  1.0 0.0156391066
C  C435  1  0.02652000  0.40210000  0.99904000  1.0 0.0272296343
C  C436  1  0.05886000  0.42114000  0.95782000  1.0 0.0353771894
C  C437  1  0.02636000  0.36500000  0.87108000  1.0 -0.0528985894
C  C438  1  0.05904000  0.31922000  0.88184000  1.0 -0.1339201672
C  C439  1  0.04842000  0.28046000  0.89278000  1.0 -0.0885430103
C  C440  1  0.00475000  0.28731000  0.89525000  1.0 -0.0803714161
C  C441  1  0.97381000  0.33065000  0.88411000  1.0 -0.0995715988
C  C442  1  0.98467000  0.37111000  0.87153000  1.0 -0.1132724244
C  C443  1  0.00129000  0.46717000  0.83443000  1.0 -0.0402376089
C  C444  1  0.00947000  0.48481000  0.78581000  1.0 -0.1207385432
C  C445  1  0.97702000  0.52638000  0.76678000  1.0 -0.0885430103
C  C446  1  0.93787000  0.54993000  0.79627000  1.0 -0.0885430103
C  C447  1  0.93067000  0.53425000  0.84295000  1.0 -0.0803714161
C  C448  1  0.96239000  0.49173000  0.86277000  1.0 -0.0995715988
C  C449  1  0.05590000  0.55210000  0.80050000  1.0 0.4132326361
C  C450  1  0.01550000  0.60210000  0.79050000  1.0 -0.4707132286
C  C451  1  0.91426000  0.64042000  0.03528000  1.0 0.0515233955
C  C452  1  0.95551000  0.65001000  0.00259000  1.0 0.0156391066
C  C453  1  0.99904000  0.57234000  0.02652000  1.0 0.0272296343
C  C454  1  0.95782000  0.56218000  0.05886000  1.0 0.0353771894
C  C455  1  0.87108000  0.73756000  0.02636000  1.0 -0.0528985894
C  C456  1  0.88184000  0.73990000  0.05904000  1.0 -0.1339201672
C  C457  1  0.89278000  0.77834000  0.04842000  1.0 -0.0885430103
C  C458  1  0.89525000  0.81269000  0.00475000  1.0 -0.0803714161
C  C459  1  0.88411000  0.81143000  0.97381000  1.0 -0.0995715988
C  C460  1  0.87153000  0.77269000  0.98467000  1.0 -0.1132724244
C  C461  1  0.83443000  0.69711000  0.00129000  1.0 -0.0402376089
C  C462  1  0.78581000  0.71991000  0.00947000  1.0 -0.1207385432
C  C463  1  0.76678000  0.72982000  0.97702000  1.0 -0.0885430103
C  C464  1  0.79627000  0.71593000  0.93787000  1.0 -0.0885430103
C  C465  1  0.84295000  0.69213000  0.93067000  1.0 -0.0803714161
C  C466  1  0.86277000  0.68311000  0.96239000  1.0 -0.0995715988
C  C467  1  0.80050000  0.59150000  0.05590000  1.0 0.4132326361
C  C468  1  0.79050000  0.59190000  0.01550000  1.0 -0.4707132286
C  C469  1  0.41004000  0.03528000  0.64042000  1.0 0.0515233955
C  C470  1  0.39189000  0.00259000  0.65001000  1.0 0.0156391066
C  C471  1  0.40210000  0.02652000  0.57234000  1.0 0.0272296343
C  C472  1  0.42114000  0.05886000  0.56218000  1.0 0.0353771894
C  C473  1  0.36500000  0.02636000  0.73756000  1.0 -0.0528985894
C  C474  1  0.31922000  0.05904000  0.73990000  1.0 -0.1339201672
C  C475  1  0.28046000  0.04842000  0.77834000  1.0 -0.0803714161
C  C476  1  0.28731000  0.00475000  0.81269000  1.0 -0.0803714161
C  C477  1  0.33065000  0.97381000  0.81143000  1.0 -0.0995715988
C  C478  1  0.37111000  0.98467000  0.77269000  1.0 -0.1132724244
C  C479  1  0.46717000  0.00129000  0.69711000  1.0 -0.0402376089
C  C480  1  0.48481000  0.00947000  0.71991000  1.0 -0.1207385432
C  C481  1  0.52638000  0.97702000  0.72982000  1.0 -0.0885430103
C  C482  1  0.54993000  0.93787000  0.71593000  1.0 -0.0885430103
C  C483  1  0.53425000  0.93067000  0.69213000  1.0 -0.0803714161
C  C484  1  0.49173000  0.96239000  0.68311000  1.0 -0.0995715988
C  C485  1  0.55210000  0.05590000  0.59150000  1.0 0.4132326361
C  C486  1  0.60210000  0.01550000  0.59190000  1.0 -0.4707132286
C  C487  1  0.64042000  0.91426000  0.41004000  1.0 0.0515233955
C  C488  1  0.65001000  0.95551000  0.39189000  1.0 0.0156391066
C  C489  1  0.57234000  0.99904000  0.40210000  1.0 0.0272296343
C  C490  1  0.56218000  0.95782000  0.42114000  1.0 0.0353771894
C  C491  1  0.73756000  0.87108000  0.36500000  1.0 -0.0528985894
C  C492  1  0.73990000  0.88184000  0.31922000  1.0 -0.1339201672
C  C493  1  0.77834000  0.89278000  0.28046000  1.0 -0.0885430103
C  C494  1  0.81269000  0.89525000  0.28731000  1.0 -0.0803714161
C  C495  1  0.81143000  0.88411000  0.33065000  1.0 -0.0995715988
C  C496  1  0.77269000  0.87153000  0.37111000  1.0 -0.1132724244
C  C497  1  0.69711000  0.83443000  0.46717000  1.0 -0.0402376089
C  C498  1  0.71991000  0.78581000  0.48481000  1.0 -0.1207385432
C  C499  1  0.72982000  0.76678000  0.52638000  1.0 -0.0885430103
C  C500  1  0.71593000  0.79627000  0.54993000  1.0 -0.0885430103
C  C501  1  0.69213000  0.84295000  0.53425000  1.0 -0.0803714161
C  C502  1  0.68311000  0.86277000  0.49173000  1.0 -0.0995715988
C  C503  1  0.59150000  0.80050000  0.55210000  1.0 0.4132326361
C  C504  1  0.59190000  0.79050000  0.60210000  1.0 -0.4707132286
C  C505  1  0.41004000  0.91426000  0.03528000  1.0 0.0515233955
C  C506  1  0.39189000  0.95551000  0.00259000  1.0 0.0156391066
C  C507  1  0.40210000  0.99904000  0.02652000  1.0 0.0272296343
C  C508  1  0.42114000  0.95782000  0.05886000  1.0 0.0353771894
C  C509  1  0.36500000  0.87108000  0.02636000  1.0 -0.0528985894
C  C510  1  0.31922000  0.88184000  0.05904000  1.0 -0.1339201672
C  C511  1  0.28046000  0.89278000  0.04842000  1.0 -0.0885430103
C  C512  1  0.28731000  0.89525000  0.00475000  1.0 -0.0803714161
C  C513  1  0.33065000  0.88411000  0.97381000  1.0 -0.0995715988
C  C514  1  0.37111000  0.87153000  0.98467000  1.0 -0.1132724244
C  C515  1  0.46717000  0.83443000  0.00129000  1.0 -0.0402376089
C  C516  1  0.48481000  0.78581000  0.00947000  1.0 -0.1207385432
C  C517  1  0.52638000  0.76678000  0.97702000  1.0 -0.0885430103
C  C518  1  0.54993000  0.79627000  0.93787000  1.0 -0.0885430103
C  C519  1  0.53425000  0.84295000  0.93067000  1.0 -0.0803714161
C  C520  1  0.49173000  0.86277000  0.96239000  1.0 -0.0995715988
C  C521  1  0.55210000  0.80050000  0.05590000  1.0 0.4132326361
C  C522  1  0.60210000  0.79050000  0.01550000  1.0 -0.4707132286
C  C523  1  0.64042000  0.03528000  0.91426000  1.0 0.0515233955
C  C524  1  0.65001000  0.00259000  0.95551000  1.0 0.0156391066
C  C525  1  0.57234000  0.02652000  0.99904000  1.0 0.0272296343
C  C526  1  0.56218000  0.05886000  0.95782000  1.0 0.0353771894
C  C527  1  0.73756000  0.02636000  0.87108000  1.0 -0.0528985894
C  C528  1  0.73990000  0.05904000  0.88184000  1.0 -0.1339201672
C  C529  1  0.77834000  0.04842000  0.89278000  1.0 -0.0885430103
C  C530  1  0.81269000  0.00475000  0.89525000  1.0 -0.0803714161
C  C531  1  0.81143000  0.97381000  0.88411000  1.0 -0.0995715988
C  C532  1  0.77269000  0.98467000  0.87153000  1.0 -0.1132724244
C  C533  1  0.69711000  0.00129000  0.83443000  1.0 -0.0402376089
C  C534  1  0.71991000  0.00947000  0.78581000  1.0 -0.1207385432
C  C535  1  0.72982000  0.97702000  0.76678000  1.0 -0.0995715988
C  C536  1  0.71593000  0.93787000  0.79627000  1.0 -0.0885430103
C  C537  1  0.69213000  0.93067000  0.84295000  1.0 -0.0803714161
C  C538  1  0.68311000  0.96239000  0.86277000  1.0 -0.0995715988
C  C539  1  0.59150000  0.05590000  0.80050000  1.0 0.4132326361
C  C540  1  0.59190000  0.01550000  0.79050000  1.0 -0.4707132286
C  C541  1  0.03528000  0.64042000  0.41004000  1.0 0.0515233955
C  C542  1  0.00259000  0.65001000  0.39189000  1.0 0.0156391066
C  C543  1  0.02652000  0.57234000  0.40210000  1.0 0.0272296343
C  C544  1  0.05886000  0.56218000  0.42114000  1.0 0.0353771894
C  C545  1  0.02636000  0.73756000  0.36500000  1.0 -0.0528985894
C  C546  1  0.05904000  0.73990000  0.31922000  1.0 -0.1339201672
C  C547  1  0.04842000  0.77834000  0.28046000  1.0 -0.0885430103
C  C548  1  0.00475000  0.81269000  0.28731000  1.0 -0.0803714161
C  C549  1  0.97381000  0.81143000  0.33065000  1.0 -0.0995715988
C  C550  1  0.98467000  0.77269000  0.37111000  1.0 -0.1132724244
C  C551  1  0.00129000  0.69711000  0.46717000  1.0 -0.0402376089
C  C552  1  0.00947000  0.71991000  0.48481000  1.0 -0.1207385432
C  C553  1  0.97702000  0.72982000  0.52638000  1.0 -0.0995715988
C  C554  1  0.93787000  0.71593000  0.54993000  1.0 -0.0885430103
C  C555  1  0.93067000  0.69213000  0.53425000  1.0 -0.0803714161
C  C556  1  0.96239000  0.68311000  0.49173000  1.0 -0.0995715988
C  C557  1  0.05590000  0.59150000  0.55210000  1.0 0.4132326361
C  C558  1  0.01550000  0.59190000  0.60210000  1.0 -0.4707132286
C  C559  1  0.91426000  0.41004000  0.64042000  1.0 0.0515233955
C  C560  1  0.95551000  0.39189000  0.65001000  1.0 0.0156391066
C  C561  1  0.99904000  0.40210000  0.57234000  1.0 0.0272296343
C  C562  1  0.95782000  0.42114000  0.56218000  1.0 0.0353771894
C  C563  1  0.87108000  0.36500000  0.73756000  1.0 -0.0528985894
C  C564  1  0.88184000  0.31922000  0.73990000  1.0 -0.1339201672
C  C565  1  0.89278000  0.28046000  0.77834000  1.0 -0.0885430103
C  C566  1  0.89525000  0.28731000  0.81269000  1.0 -0.0803714161
C  C567  1  0.88411000  0.33065000  0.81143000  1.0 -0.0995715988
C  C568  1  0.87153000  0.37111000  0.77269000  1.0 -0.1132724244
C  C569  1  0.83443000  0.46717000  0.69711000  1.0 -0.0402376089
C  C570  1  0.78581000  0.48481000  0.71991000  1.0 -0.1207385432
C  C571  1  0.76678000  0.52638000  0.72982000  1.0 -0.0885430103
C  C572  1  0.79627000  0.54993000  0.71593000  1.0 -0.0885430103
C  C573  1  0.84295000  0.53425000  0.69213000  1.0 -0.0803714161
C  C574  1  0.86277000  0.49173000  0.68311000  1.0 -0.0995715988
C  C575  1  0.80050000  0.55210000  0.59150000  1.0 0.4132326361
C  C576  1  0.79050000  0.60210000  0.59190000  1.0 -0.4707132286
C  C577  1  0.91426000  0.03528000  0.41004000  1.0 0.0515233955
C  C578  1  0.95551000  0.00259000  0.39189000  1.0 0.0156391066
C  C579  1  0.99904000  0.02652000  0.40210000  1.0 0.0272296343
C  C580  1  0.95782000  0.05886000  0.42114000  1.0 0.0353771894
C  C581  1  0.87108000  0.02636000  0.36500000  1.0 -0.0528985894
C  C582  1  0.88184000  0.05904000  0.31922000  1.0 -0.1339201672
C  C583  1  0.89278000  0.04842000  0.28046000  1.0 -0.0803714161
C  C584  1  0.89525000  0.00475000  0.28731000  1.0 -0.0803714161
C  C585  1  0.88411000  0.97381000  0.33065000  1.0 -0.0995715988
C  C586  1  0.87153000  0.98467000  0.37111000  1.0 -0.1132724244
C  C587  1  0.83443000  0.00129000  0.46717000  1.0 -0.0402376089
C  C588  1  0.78581000  0.00947000  0.48481000  1.0 -0.1207385432
C  C589  1  0.76678000  0.97702000  0.52638000  1.0 -0.0995715988
C  C590  1  0.79627000  0.93787000  0.54993000  1.0 -0.0885430103
C  C591  1  0.84295000  0.93067000  0.53425000  1.0 -0.0803714161
C  C592  1  0.86277000  0.96239000  0.49173000  1.0 -0.0995715988
C  C593  1  0.80050000  0.05590000  0.55210000  1.0 0.4132326361
C  C594  1  0.79050000  0.01550000  0.60210000  1.0 -0.4707132286
C  C595  1  0.03528000  0.91426000  0.64042000  1.0 0.0515233955
C  C596  1  0.00259000  0.95551000  0.65001000  1.0 0.0156391066
C  C597  1  0.02652000  0.99904000  0.57234000  1.0 0.0272296343
C  C598  1  0.05886000  0.95782000  0.56218000  1.0 0.0353771894
C  C599  1  0.02636000  0.87108000  0.73756000  1.0 -0.0528985894
C  C600  1  0.05904000  0.88184000  0.73990000  1.0 -0.1339201672
C  C601  1  0.04842000  0.89278000  0.77834000  1.0 -0.0885430103
C  C602  1  0.00475000  0.89525000  0.81269000  1.0 -0.0803714161
C  C603  1  0.97381000  0.88411000  0.81143000  1.0 -0.0995715988
C  C604  1  0.98467000  0.87153000  0.77269000  1.0 -0.1132724244
C  C605  1  0.00129000  0.83443000  0.69711000  1.0 -0.0402376089
C  C606  1  0.00947000  0.78581000  0.71991000  1.0 -0.1207385432
C  C607  1  0.97702000  0.76678000  0.72982000  1.0 -0.0885430103
C  C608  1  0.93787000  0.79627000  0.71593000  1.0 -0.0885430103
C  C609  1  0.93067000  0.84295000  0.69213000  1.0 -0.0803714161
C  C610  1  0.96239000  0.86277000  0.68311000  1.0 -0.0995715988
C  C611  1  0.05590000  0.80050000  0.59150000  1.0 0.4132326361
C  C612  1  0.01550000  0.79050000  0.59190000  1.0 -0.4707132286
C  C613  1  0.64042000  0.41004000  0.03528000  1.0 0.0515233955
C  C614  1  0.65001000  0.39189000  0.00259000  1.0 0.0156391066
C  C615  1  0.57234000  0.40210000  0.02652000  1.0 0.0272296343
C  C616  1  0.56218000  0.42114000  0.05886000  1.0 0.0353771894
C  C617  1  0.73756000  0.36500000  0.02636000  1.0 -0.0528985894
C  C618  1  0.73990000  0.31922000  0.05904000  1.0 -0.1339201672
C  C619  1  0.77834000  0.28046000  0.04842000  1.0 -0.0885430103
C  C620  1  0.81269000  0.28731000  0.00475000  1.0 -0.0803714161
C  C621  1  0.81143000  0.33065000  0.97381000  1.0 -0.0995715988
C  C622  1  0.77269000  0.37111000  0.98467000  1.0 -0.1132724244
C  C623  1  0.69711000  0.46717000  0.00129000  1.0 -0.0402376089
C  C624  1  0.71991000  0.48481000  0.00947000  1.0 -0.1207385432
C  C625  1  0.72982000  0.52638000  0.97702000  1.0 -0.0885430103
C  C626  1  0.71593000  0.54993000  0.93787000  1.0 -0.0885430103
C  C627  1  0.69213000  0.53425000  0.93067000  1.0 -0.0803714161
C  C628  1  0.68311000  0.49173000  0.96239000  1.0 -0.0995715988
C  C629  1  0.59150000  0.55210000  0.05590000  1.0 0.4132326361
C  C630  1  0.59190000  0.60210000  0.01550000  1.0 -0.4707132286
C  C631  1  0.41004000  0.64042000  0.91426000  1.0 0.0515233955
C  C632  1  0.39189000  0.65001000  0.95551000  1.0 0.0156391066
C  C633  1  0.40210000  0.57234000  0.99904000  1.0 0.0272296343
C  C634  1  0.42114000  0.56218000  0.95782000  1.0 0.0353771894
C  C635  1  0.36500000  0.73756000  0.87108000  1.0 -0.0528985894
C  C636  1  0.31922000  0.73990000  0.88184000  1.0 -0.1339201672
C  C637  1  0.28046000  0.77834000  0.89278000  1.0 -0.0885430103
C  C638  1  0.28731000  0.81269000  0.89525000  1.0 -0.0803714161
C  C639  1  0.33065000  0.81143000  0.88411000  1.0 -0.0995715988
C  C640  1  0.37111000  0.77269000  0.87153000  1.0 -0.1132724244
C  C641  1  0.46717000  0.69711000  0.83443000  1.0 -0.0402376089
C  C642  1  0.48481000  0.71991000  0.78581000  1.0 -0.1207385432
C  C643  1  0.52638000  0.72982000  0.76678000  1.0 -0.0885430103
C  C644  1  0.54993000  0.71593000  0.79627000  1.0 -0.0885430103
C  C645  1  0.53425000  0.69213000  0.84295000  1.0 -0.0803714161
C  C646  1  0.49173000  0.68311000  0.86277000  1.0 -0.0995715988
C  C647  1  0.55210000  0.59150000  0.80050000  1.0 0.4132326361
C  C648  1  0.60210000  0.59190000  0.79050000  1.0 -0.4707132286
C  C649  1  0.21472000  0.60958000  0.33574000  1.0 0.0515233955
C  C650  1  0.24741000  0.59999000  0.29449000  1.0 0.0156391066
C  C651  1  0.22348000  0.67766000  0.25096000  1.0 0.0272296343
C  C652  1  0.19114000  0.68782000  0.29218000  1.0 0.0353771894
C  C653  1  0.22364000  0.51244000  0.37892000  1.0 -0.0528985894
C  C654  1  0.19096000  0.51010000  0.36816000  1.0 -0.1339201672
C  C655  1  0.20158000  0.47166000  0.35722000  1.0 -0.0885430103
C  C656  1  0.24525000  0.43731000  0.35475000  1.0 -0.0803714161
C  C657  1  0.27619000  0.43857000  0.36589000  1.0 -0.0995715988
C  C658  1  0.26533000  0.47731000  0.37847000  1.0 -0.1132724244
C  C659  1  0.24871000  0.55289000  0.41557000  1.0 -0.0402376089
C  C660  1  0.24053000  0.53009000  0.46419000  1.0 -0.1207385432
C  C661  1  0.27298000  0.52018000  0.48322000  1.0 -0.0885430103
C  C662  1  0.31213000  0.53407000  0.45373000  1.0 -0.0885430103
C  C663  1  0.31933000  0.55787000  0.40705000  1.0 -0.0803714161
C  C664  1  0.28761000  0.56689000  0.38723000  1.0 -0.0995715988
C  C665  1  0.19410000  0.65850000  0.44950000  1.0 0.4132326361
C  C666  1  0.23450000  0.65810000  0.45950000  1.0 -0.4707132286
C  C667  1  0.33574000  0.83996000  0.21472000  1.0 0.0515233955
C  C668  1  0.29449000  0.85811000  0.24741000  1.0 0.0156391066
C  C669  1  0.25096000  0.84790000  0.22348000  1.0 0.0272296343
C  C670  1  0.29218000  0.82886000  0.19114000  1.0 0.0353771894
C  C671  1  0.37892000  0.88500000  0.22364000  1.0 -0.0528985894
C  C672  1  0.36816000  0.93078000  0.19096000  1.0 -0.1339201672
C  C673  1  0.35722000  0.96954000  0.20158000  1.0 -0.0885430103
C  C674  1  0.35475000  0.96269000  0.24525000  1.0 -0.0803714161
C  C675  1  0.36589000  0.91935000  0.27619000  1.0 -0.0995715988
C  C676  1  0.37847000  0.87889000  0.26533000  1.0 -0.1132724244
C  C677  1  0.41557000  0.78283000  0.24871000  1.0 -0.0402376089
C  C678  1  0.46419000  0.76519000  0.24053000  1.0 -0.1207385432
C  C679  1  0.48322000  0.72362000  0.27298000  1.0 -0.0885430103
C  C680  1  0.45373000  0.70007000  0.31213000  1.0 -0.0885430103
C  C681  1  0.40705000  0.71575000  0.31933000  1.0 -0.0803714161
C  C682  1  0.38723000  0.75827000  0.28761000  1.0 -0.0995715988
C  C683  1  0.44950000  0.69790000  0.19410000  1.0 0.4132326361
C  C684  1  0.45950000  0.64790000  0.23450000  1.0 -0.4707132286
C  C685  1  0.83996000  0.33574000  0.60958000  1.0 0.0515233955
C  C686  1  0.85811000  0.29449000  0.59999000  1.0 0.0156391066
C  C687  1  0.84790000  0.25096000  0.67766000  1.0 0.0272296343
C  C688  1  0.82886000  0.29218000  0.68782000  1.0 0.0353771894
C  C689  1  0.88500000  0.37892000  0.51244000  1.0 -0.0528985894
C  C690  1  0.93078000  0.36816000  0.51010000  1.0 -0.1339201672
C  C691  1  0.96954000  0.35722000  0.47166000  1.0 -0.0885430103
C  C692  1  0.96269000  0.35475000  0.43731000  1.0 -0.0803714161
C  C693  1  0.91935000  0.36589000  0.43857000  1.0 -0.0995715988
C  C694  1  0.87889000  0.37847000  0.47731000  1.0 -0.1132724244
C  C695  1  0.78283000  0.41557000  0.55289000  1.0 -0.0402376089
C  C696  1  0.76519000  0.46419000  0.53009000  1.0 -0.1207385432
C  C697  1  0.72362000  0.48322000  0.52018000  1.0 -0.0885430103
C  C698  1  0.70007000  0.45373000  0.53407000  1.0 -0.0885430103
C  C699  1  0.71575000  0.40705000  0.55787000  1.0 -0.0803714161
C  C700  1  0.75827000  0.38723000  0.56689000  1.0 -0.0995715988
C  C701  1  0.69790000  0.44950000  0.65850000  1.0 0.4132326361
C  C702  1  0.64790000  0.45950000  0.65810000  1.0 -0.4707132286
C  C703  1  0.60958000  0.21472000  0.83996000  1.0 0.0515233955
C  C704  1  0.59999000  0.24741000  0.85811000  1.0 0.0156391066
C  C705  1  0.67766000  0.22348000  0.84790000  1.0 0.0272296343
C  C706  1  0.68782000  0.19114000  0.82886000  1.0 0.0353771894
C  C707  1  0.51244000  0.22364000  0.88500000  1.0 -0.0528985894
C  C708  1  0.51010000  0.19096000  0.93078000  1.0 -0.1339201672
C  C709  1  0.47166000  0.20158000  0.96954000  1.0 -0.0885430103
C  C710  1  0.43731000  0.24525000  0.96269000  1.0 -0.0803714161
C  C711  1  0.43857000  0.27619000  0.91935000  1.0 -0.0995715988
C  C712  1  0.47731000  0.26533000  0.87889000  1.0 -0.1132724244
C  C713  1  0.55289000  0.24871000  0.78283000  1.0 -0.0402376089
C  C714  1  0.53009000  0.24053000  0.76519000  1.0 -0.1207385432
C  C715  1  0.52018000  0.27298000  0.72362000  1.0 -0.0885430103
C  C716  1  0.53407000  0.31213000  0.70007000  1.0 -0.0885430103
C  C717  1  0.55787000  0.31933000  0.71575000  1.0 -0.0803714161
C  C718  1  0.56689000  0.28761000  0.75827000  1.0 -0.0995715988
C  C719  1  0.65850000  0.19410000  0.69790000  1.0 0.4132326361
C  C720  1  0.65810000  0.23450000  0.64790000  1.0 -0.4707132286
C  C721  1  0.83996000  0.60958000  0.21472000  1.0 0.0515233955
C  C722  1  0.85811000  0.59999000  0.24741000  1.0 0.0156391066
C  C723  1  0.84790000  0.67766000  0.22348000  1.0 0.0272296343
C  C724  1  0.82886000  0.68782000  0.19114000  1.0 0.0353771894
C  C725  1  0.88500000  0.51244000  0.22364000  1.0 -0.0528985894
C  C726  1  0.93078000  0.51010000  0.19096000  1.0 -0.1339201672
C  C727  1  0.96954000  0.47166000  0.20158000  1.0 -0.0885430103
C  C728  1  0.96269000  0.43731000  0.24525000  1.0 -0.0803714161
C  C729  1  0.91935000  0.43857000  0.27619000  1.0 -0.0995715988
C  C730  1  0.87889000  0.47731000  0.26533000  1.0 -0.1132724244
C  C731  1  0.78283000  0.55289000  0.24871000  1.0 -0.0402376089
C  C732  1  0.76519000  0.53009000  0.24053000  1.0 -0.1207385432
C  C733  1  0.72362000  0.52018000  0.27298000  1.0 -0.0885430103
C  C734  1  0.70007000  0.53407000  0.31213000  1.0 -0.0885430103
C  C735  1  0.71575000  0.55787000  0.31933000  1.0 -0.0803714161
C  C736  1  0.75827000  0.56689000  0.28761000  1.0 -0.0995715988
C  C737  1  0.69790000  0.65850000  0.19410000  1.0 0.4132326361
C  C738  1  0.64790000  0.65810000  0.23450000  1.0 -0.4707132286
C  C739  1  0.60958000  0.83996000  0.33574000  1.0 0.0515233955
C  C740  1  0.59999000  0.85811000  0.29449000  1.0 0.0156391066
C  C741  1  0.67766000  0.84790000  0.25096000  1.0 0.0272296343
C  C742  1  0.68782000  0.82886000  0.29218000  1.0 0.0353771894
C  C743  1  0.51244000  0.88500000  0.37892000  1.0 -0.0528985894
C  C744  1  0.51010000  0.93078000  0.36816000  1.0 -0.1339201672
C  C745  1  0.47166000  0.96954000  0.35722000  1.0 -0.0885430103
C  C746  1  0.43731000  0.96269000  0.35475000  1.0 -0.0803714161
C  C747  1  0.43857000  0.91935000  0.36589000  1.0 -0.0995715988
C  C748  1  0.47731000  0.87889000  0.37847000  1.0 -0.1132724244
C  C749  1  0.55289000  0.78283000  0.41557000  1.0 -0.0402376089
C  C750  1  0.53009000  0.76519000  0.46419000  1.0 -0.1207385432
C  C751  1  0.52018000  0.72362000  0.48322000  1.0 -0.0885430103
C  C752  1  0.53407000  0.70007000  0.45373000  1.0 -0.0885430103
C  C753  1  0.55787000  0.71575000  0.40705000  1.0 -0.0803714161
C  C754  1  0.56689000  0.75827000  0.38723000  1.0 -0.0995715988
C  C755  1  0.65850000  0.69790000  0.44950000  1.0 0.4132326361
C  C756  1  0.65810000  0.64790000  0.45950000  1.0 -0.4707132286
C  C757  1  0.21472000  0.33574000  0.83996000  1.0 0.0515233955
C  C758  1  0.24741000  0.29449000  0.85811000  1.0 0.0156391066
C  C759  1  0.22348000  0.25096000  0.84790000  1.0 0.0272296343
C  C760  1  0.19114000  0.29218000  0.82886000  1.0 0.0353771894
C  C761  1  0.22364000  0.37892000  0.88500000  1.0 -0.0528985894
C  C762  1  0.19096000  0.36816000  0.93078000  1.0 -0.1339201672
C  C763  1  0.20158000  0.35722000  0.96954000  1.0 -0.0885430103
C  C764  1  0.24525000  0.35475000  0.96269000  1.0 -0.0803714161
C  C765  1  0.27619000  0.36589000  0.91935000  1.0 -0.0995715988
C  C766  1  0.26533000  0.37847000  0.87889000  1.0 -0.1132724244
C  C767  1  0.24871000  0.41557000  0.78283000  1.0 -0.0402376089
C  C768  1  0.24053000  0.46419000  0.76519000  1.0 -0.1207385432
C  C769  1  0.27298000  0.48322000  0.72362000  1.0 -0.0885430103
C  C770  1  0.31213000  0.45373000  0.70007000  1.0 -0.0885430103
C  C771  1  0.31933000  0.40705000  0.71575000  1.0 -0.0803714161
C  C772  1  0.28761000  0.38723000  0.75827000  1.0 -0.0995715988
C  C773  1  0.19410000  0.44950000  0.69790000  1.0 0.4132326361
C  C774  1  0.23450000  0.45950000  0.64790000  1.0 -0.4707132286
C  C775  1  0.33574000  0.21472000  0.60958000  1.0 0.0515233955
C  C776  1  0.29449000  0.24741000  0.59999000  1.0 0.0156391066
C  C777  1  0.25096000  0.22348000  0.67766000  1.0 0.0272296343
C  C778  1  0.29218000  0.19114000  0.68782000  1.0 0.0353771894
C  C779  1  0.37892000  0.22364000  0.51244000  1.0 -0.0528985894
C  C780  1  0.36816000  0.19096000  0.51010000  1.0 -0.1339201672
C  C781  1  0.35722000  0.20158000  0.47166000  1.0 -0.0885430103
C  C782  1  0.35475000  0.24525000  0.43731000  1.0 -0.0803714161
C  C783  1  0.36589000  0.27619000  0.43857000  1.0 -0.0995715988
C  C784  1  0.37847000  0.26533000  0.47731000  1.0 -0.1132724244
C  C785  1  0.41557000  0.24871000  0.55289000  1.0 -0.0402376089
C  C786  1  0.46419000  0.24053000  0.53009000  1.0 -0.1207385432
C  C787  1  0.48322000  0.27298000  0.52018000  1.0 -0.0885430103
C  C788  1  0.45373000  0.31213000  0.53407000  1.0 -0.0885430103
C  C789  1  0.40705000  0.31933000  0.55787000  1.0 -0.0803714161
C  C790  1  0.38723000  0.28761000  0.56689000  1.0 -0.0995715988
C  C791  1  0.44950000  0.19410000  0.65850000  1.0 0.4132326361
C  C792  1  0.45950000  0.23450000  0.65810000  1.0 -0.4707132286
C  C793  1  0.33574000  0.60958000  0.83996000  1.0 0.0515233955
C  C794  1  0.29449000  0.59999000  0.85811000  1.0 0.0156391066
C  C795  1  0.25096000  0.67766000  0.84790000  1.0 0.0272296343
C  C796  1  0.29218000  0.68782000  0.82886000  1.0 0.0353771894
C  C797  1  0.37892000  0.51244000  0.88500000  1.0 -0.0528985894
C  C798  1  0.36816000  0.51010000  0.93078000  1.0 -0.1339201672
C  C799  1  0.35722000  0.47166000  0.96954000  1.0 -0.0885430103
C  C800  1  0.35475000  0.43731000  0.96269000  1.0 -0.0803714161
C  C801  1  0.36589000  0.43857000  0.91935000  1.0 -0.0995715988
C  C802  1  0.37847000  0.47731000  0.87889000  1.0 -0.1132724244
C  C803  1  0.41557000  0.55289000  0.78283000  1.0 -0.0402376089
C  C804  1  0.46419000  0.53009000  0.76519000  1.0 -0.1207385432
C  C805  1  0.48322000  0.52018000  0.72362000  1.0 -0.0995715988
C  C806  1  0.45373000  0.53407000  0.70007000  1.0 -0.0885430103
C  C807  1  0.40705000  0.55787000  0.71575000  1.0 -0.0803714161
C  C808  1  0.38723000  0.56689000  0.75827000  1.0 -0.0995715988
C  C809  1  0.44950000  0.65850000  0.69790000  1.0 0.4132326361
C  C810  1  0.45950000  0.65810000  0.64790000  1.0 -0.4707132286
C  C811  1  0.21472000  0.83996000  0.60958000  1.0 0.0515233955
C  C812  1  0.24741000  0.85811000  0.59999000  1.0 0.0156391066
C  C813  1  0.22348000  0.84790000  0.67766000  1.0 0.0272296343
C  C814  1  0.19114000  0.82886000  0.68782000  1.0 0.0353771894
C  C815  1  0.22364000  0.88500000  0.51244000  1.0 -0.0528985894
C  C816  1  0.19096000  0.93078000  0.51010000  1.0 -0.1339201672
C  C817  1  0.20158000  0.96954000  0.47166000  1.0 -0.0885430103
C  C818  1  0.24525000  0.96269000  0.43731000  1.0 -0.0803714161
C  C819  1  0.27619000  0.91935000  0.43857000  1.0 -0.0995715988
C  C820  1  0.26533000  0.87889000  0.47731000  1.0 -0.1132724244
C  C821  1  0.24871000  0.78283000  0.55289000  1.0 -0.0402376089
C  C822  1  0.24053000  0.76519000  0.53009000  1.0 -0.1207385432
C  C823  1  0.27298000  0.72362000  0.52018000  1.0 -0.0885430103
C  C824  1  0.31213000  0.70007000  0.53407000  1.0 -0.0885430103
C  C825  1  0.31933000  0.71575000  0.55787000  1.0 -0.0803714161
C  C826  1  0.28761000  0.75827000  0.56689000  1.0 -0.0995715988
C  C827  1  0.19410000  0.69790000  0.65850000  1.0 0.4132326361
C  C828  1  0.23450000  0.64790000  0.65810000  1.0 -0.4707132286
C  C829  1  0.60958000  0.33574000  0.21472000  1.0 0.0515233955
C  C830  1  0.59999000  0.29449000  0.24741000  1.0 0.0156391066
C  C831  1  0.67766000  0.25096000  0.22348000  1.0 0.0272296343
C  C832  1  0.68782000  0.29218000  0.19114000  1.0 0.0353771894
C  C833  1  0.51244000  0.37892000  0.22364000  1.0 -0.0528985894
C  C834  1  0.51010000  0.36816000  0.19096000  1.0 -0.1339201672
C  C835  1  0.47166000  0.35722000  0.20158000  1.0 -0.0803714161
C  C836  1  0.43731000  0.35475000  0.24525000  1.0 -0.0803714161
C  C837  1  0.43857000  0.36589000  0.27619000  1.0 -0.0995715988
C  C838  1  0.47731000  0.37847000  0.26533000  1.0 -0.1132724244
C  C839  1  0.55289000  0.41557000  0.24871000  1.0 -0.0402376089
C  C840  1  0.53009000  0.46419000  0.24053000  1.0 -0.1207385432
C  C841  1  0.52018000  0.48322000  0.27298000  1.0 -0.0885430103
C  C842  1  0.53407000  0.45373000  0.31213000  1.0 -0.0885430103
C  C843  1  0.55787000  0.40705000  0.31933000  1.0 -0.0803714161
C  C844  1  0.56689000  0.38723000  0.28761000  1.0 -0.0995715988
C  C845  1  0.65850000  0.44950000  0.19410000  1.0 0.4132326361
C  C846  1  0.65810000  0.45950000  0.23450000  1.0 -0.4707132286
C  C847  1  0.83996000  0.21472000  0.33574000  1.0 0.0515233955
C  C848  1  0.85811000  0.24741000  0.29449000  1.0 0.0156391066
C  C849  1  0.84790000  0.22348000  0.25096000  1.0 0.0272296343
C  C850  1  0.82886000  0.19114000  0.29218000  1.0 0.0353771894
C  C851  1  0.88500000  0.22364000  0.37892000  1.0 -0.0528985894
C  C852  1  0.93078000  0.19096000  0.36816000  1.0 -0.1339201672
C  C853  1  0.96954000  0.20158000  0.35722000  1.0 -0.0885430103
C  C854  1  0.96269000  0.24525000  0.35475000  1.0 -0.0803714161
C  C855  1  0.91935000  0.27619000  0.36589000  1.0 -0.0995715988
C  C856  1  0.87889000  0.26533000  0.37847000  1.0 -0.1132724244
C  C857  1  0.78283000  0.24871000  0.41557000  1.0 -0.0402376089
C  C858  1  0.76519000  0.24053000  0.46419000  1.0 -0.1207385432
C  C859  1  0.72362000  0.27298000  0.48322000  1.0 -0.0885430103
C  C860  1  0.70007000  0.31213000  0.45373000  1.0 -0.0885430103
C  C861  1  0.71575000  0.31933000  0.40705000  1.0 -0.0803714161
C  C862  1  0.75827000  0.28761000  0.38723000  1.0 -0.0995715988
C  C863  1  0.69790000  0.19410000  0.44950000  1.0 0.4132326361
C  C864  1  0.64790000  0.23450000  0.45950000  1.0 -0.4707132286
N  N1  1  0.68658000  0.32466000  0.83466000  1.0 -0.1674412967
N  N2  1  0.75193000  0.36263000  0.75207000  1.0 -0.1555142666
N  N3  1  0.66540000  0.23370000  0.94354000  1.0 -0.4158985567
N  N4  1  0.83466000  0.15410000  0.68658000  1.0 -0.1674412967
N  N5  1  0.75207000  0.13337000  0.75193000  1.0 -0.1555142666
N  N6  1  0.94354000  0.15736000  0.66540000  1.0 -0.4158985567
N  N7  1  0.32466000  0.68658000  0.15410000  1.0 -0.1674412967
N  N8  1  0.36263000  0.75193000  0.13337000  1.0 -0.1555142666
N  N9  1  0.23370000  0.66540000  0.15736000  1.0 -0.4158985567
N  N10  1  0.15410000  0.83466000  0.32466000  1.0 -0.1674412967
N  N11  1  0.13337000  0.75207000  0.36263000  1.0 -0.1555142666
N  N12  1  0.15736000  0.94354000  0.23370000  1.0 -0.4158985567
N  N13  1  0.32466000  0.83466000  0.68658000  1.0 -0.1674412967
N  N14  1  0.36263000  0.75207000  0.75193000  1.0 -0.1555142666
N  N15  1  0.23370000  0.94354000  0.66540000  1.0 -0.4158985567
N  N16  1  0.15410000  0.68658000  0.83466000  1.0 -0.1674412967
N  N17  1  0.13337000  0.75193000  0.75207000  1.0 -0.1555142666
N  N18  1  0.15736000  0.66540000  0.94354000  1.0 -0.4158985567
N  N19  1  0.68658000  0.15410000  0.32466000  1.0 -0.1674412967
N  N20  1  0.75193000  0.13337000  0.36263000  1.0 -0.1555142666
N  N21  1  0.66540000  0.15736000  0.23370000  1.0 -0.4158985567
N  N22  1  0.83466000  0.32466000  0.15410000  1.0 -0.1674412967
N  N23  1  0.75207000  0.36263000  0.13337000  1.0 -0.1555142666
N  N24  1  0.94354000  0.23370000  0.15736000  1.0 -0.4158985567
N  N25  1  0.83466000  0.68658000  0.32466000  1.0 -0.1674412967
N  N26  1  0.75207000  0.75193000  0.36263000  1.0 -0.1555142666
N  N27  1  0.94354000  0.66540000  0.23370000  1.0 -0.4158985567
N  N28  1  0.68658000  0.83466000  0.15410000  1.0 -0.1674412967
N  N29  1  0.75193000  0.75207000  0.13337000  1.0 -0.1555142666
N  N30  1  0.66540000  0.94354000  0.15736000  1.0 -0.4158985567
N  N31  1  0.15410000  0.32466000  0.68658000  1.0 -0.1674412967
N  N32  1  0.13337000  0.36263000  0.75193000  1.0 -0.1555142666
N  N33  1  0.15736000  0.23370000  0.66540000  1.0 -0.4158985567
N  N34  1  0.32466000  0.15410000  0.83466000  1.0 -0.1674412967
N  N35  1  0.36263000  0.13337000  0.75207000  1.0 -0.1555142666
N  N36  1  0.23370000  0.15736000  0.94354000  1.0 -0.4158985567
N  N37  1  0.56342000  0.09590000  0.41534000  1.0 -0.1674412967
N  N38  1  0.49807000  0.11663000  0.49793000  1.0 -0.1555142666
N  N39  1  0.58460000  0.09264000  0.30646000  1.0 -0.4158985567
N  N40  1  0.41534000  0.92534000  0.56342000  1.0 -0.1674412967
N  N41  1  0.49793000  0.88737000  0.49807000  1.0 -0.1555142666
N  N42  1  0.30646000  0.01630000  0.58460000  1.0 -0.4158985567
N  N43  1  0.92534000  0.41534000  0.09590000  1.0 -0.1674412967
N  N44  1  0.88737000  0.49793000  0.11663000  1.0 -0.1555142666
N  N45  1  0.01630000  0.30646000  0.09264000  1.0 -0.4158985567
N  N46  1  0.09590000  0.56342000  0.92534000  1.0 -0.1674412967
N  N47  1  0.11663000  0.49807000  0.88737000  1.0 -0.1555142666
N  N48  1  0.09264000  0.58460000  0.01630000  1.0 -0.4158985567
N  N49  1  0.92534000  0.09590000  0.56342000  1.0 -0.1674412967
N  N50  1  0.88737000  0.11663000  0.49807000  1.0 -0.1555142666
N  N51  1  0.01630000  0.09264000  0.58460000  1.0 -0.4158985567
N  N52  1  0.09590000  0.92534000  0.41534000  1.0 -0.1674412967
N  N53  1  0.11663000  0.88737000  0.49793000  1.0 -0.1555142666
N  N54  1  0.09264000  0.01630000  0.30646000  1.0 -0.4158985567
N  N55  1  0.56342000  0.41534000  0.92534000  1.0 -0.1674412967
N  N56  1  0.49807000  0.49793000  0.88737000  1.0 -0.1555142666
N  N57  1  0.58460000  0.30646000  0.01630000  1.0 -0.4158985567
N  N58  1  0.41534000  0.56342000  0.09590000  1.0 -0.1674412967
N  N59  1  0.49793000  0.49807000  0.11663000  1.0 -0.1555142666
N  N60  1  0.30646000  0.58460000  0.09264000  1.0 -0.4158985567
N  N61  1  0.41534000  0.09590000  0.92534000  1.0 -0.1674412967
N  N62  1  0.49793000  0.11663000  0.88737000  1.0 -0.1555142666
N  N63  1  0.30646000  0.09264000  0.01630000  1.0 -0.4158985567
N  N64  1  0.56342000  0.92534000  0.09590000  1.0 -0.1674412967
N  N65  1  0.49807000  0.88737000  0.11663000  1.0 -0.1555142666
N  N66  1  0.58460000  0.01630000  0.09264000  1.0 -0.4158985567
N  N67  1  0.09590000  0.41534000  0.56342000  1.0 -0.1674412967
N  N68  1  0.11663000  0.49793000  0.49807000  1.0 -0.1555142666
N  N69  1  0.09264000  0.30646000  0.58460000  1.0 -0.4158985567
N  N70  1  0.92534000  0.56342000  0.41534000  1.0 -0.1674412967
N  N71  1  0.88737000  0.49807000  0.49793000  1.0 -0.1555142666
N  N72  1  0.01630000  0.58460000  0.30646000  1.0 -0.4158985567
N  N73  1  0.06342000  0.42534000  0.91534000  1.0 -0.1674412967
N  N74  1  0.99807000  0.38737000  0.99793000  1.0 -0.1555142666
N  N75  1  0.08460000  0.51630000  0.80646000  1.0 -0.4158985567
N  N76  1  0.91534000  0.59590000  0.06342000  1.0 -0.1674412967
N  N77  1  0.99793000  0.61663000  0.99807000  1.0 -0.1555142666
N  N78  1  0.80646000  0.59264000  0.08460000  1.0 -0.4158985567
N  N79  1  0.42534000  0.06342000  0.59590000  1.0 -0.1674412967
N  N80  1  0.38737000  0.99807000  0.61663000  1.0 -0.1555142666
N  N81  1  0.51630000  0.08460000  0.59264000  1.0 -0.4158985567
N  N82  1  0.59590000  0.91534000  0.42534000  1.0 -0.1674412967
N  N83  1  0.61663000  0.99793000  0.38737000  1.0 -0.1555142666
N  N84  1  0.59264000  0.80646000  0.51630000  1.0 -0.4158985567
N  N85  1  0.42534000  0.91534000  0.06342000  1.0 -0.1674412967
N  N86  1  0.38737000  0.99793000  0.99807000  1.0 -0.1555142666
N  N87  1  0.51630000  0.80646000  0.08460000  1.0 -0.4158985567
N  N88  1  0.59590000  0.06342000  0.91534000  1.0 -0.1674412967
N  N89  1  0.61663000  0.99807000  0.99793000  1.0 -0.1555142666
N  N90  1  0.59264000  0.08460000  0.80646000  1.0 -0.4158985567
N  N91  1  0.06342000  0.59590000  0.42534000  1.0 -0.1674412967
N  N92  1  0.99807000  0.61663000  0.38737000  1.0 -0.1555142666
N  N93  1  0.08460000  0.59264000  0.51630000  1.0 -0.4158985567
N  N94  1  0.91534000  0.42534000  0.59590000  1.0 -0.1674412967
N  N95  1  0.99793000  0.38737000  0.61663000  1.0 -0.1555142666
N  N96  1  0.80646000  0.51630000  0.59264000  1.0 -0.4158985567
N  N97  1  0.91534000  0.06342000  0.42534000  1.0 -0.1674412967
N  N98  1  0.99793000  0.99807000  0.38737000  1.0 -0.1555142666
N  N99  1  0.80646000  0.08460000  0.51630000  1.0 -0.4158985567
N  N100  1  0.06342000  0.91534000  0.59590000  1.0 -0.1674412967
N  N101  1  0.99807000  0.99793000  0.61663000  1.0 -0.1555142666
N  N102  1  0.08460000  0.80646000  0.59264000  1.0 -0.4158985567
N  N103  1  0.59590000  0.42534000  0.06342000  1.0 -0.1674412967
N  N104  1  0.61663000  0.38737000  0.99807000  1.0 -0.1555142666
N  N105  1  0.59264000  0.51630000  0.08460000  1.0 -0.4158985567
N  N106  1  0.42534000  0.59590000  0.91534000  1.0 -0.1674412967
N  N107  1  0.38737000  0.61663000  0.99793000  1.0 -0.1555142666
N  N108  1  0.51630000  0.59264000  0.80646000  1.0 -0.4158985567
N  N109  1  0.18658000  0.65410000  0.33466000  1.0 -0.1674412967
N  N110  1  0.25193000  0.63337000  0.25207000  1.0 -0.1555142666
N  N111  1  0.16540000  0.65736000  0.44354000  1.0 -0.4158985567
N  N112  1  0.33466000  0.82466000  0.18658000  1.0 -0.1674412967
N  N113  1  0.25207000  0.86263000  0.25193000  1.0 -0.1555142666
N  N114  1  0.44354000  0.73370000  0.16540000  1.0 -0.4158985567
N  N115  1  0.82466000  0.33466000  0.65410000  1.0 -0.1674412967
N  N116  1  0.86263000  0.25207000  0.63337000  1.0 -0.1555142666
N  N117  1  0.73370000  0.44354000  0.65736000  1.0 -0.4158985567
N  N118  1  0.65410000  0.18658000  0.82466000  1.0 -0.1674412967
N  N119  1  0.63337000  0.25193000  0.86263000  1.0 -0.1555142666
N  N120  1  0.65736000  0.16540000  0.73370000  1.0 -0.4158985567
N  N121  1  0.82466000  0.65410000  0.18658000  1.0 -0.1674412967
N  N122  1  0.86263000  0.63337000  0.25193000  1.0 -0.1555142666
N  N123  1  0.73370000  0.65736000  0.16540000  1.0 -0.4158985567
N  N124  1  0.65410000  0.82466000  0.33466000  1.0 -0.1674412967
N  N125  1  0.63337000  0.86263000  0.25207000  1.0 -0.1555142666
N  N126  1  0.65736000  0.73370000  0.44354000  1.0 -0.4158985567
N  N127  1  0.18658000  0.33466000  0.82466000  1.0 -0.1674412967
N  N128  1  0.25193000  0.25207000  0.86263000  1.0 -0.1555142666
N  N129  1  0.16540000  0.44354000  0.73370000  1.0 -0.4158985567
N  N130  1  0.33466000  0.18658000  0.65410000  1.0 -0.1674412967
N  N131  1  0.25207000  0.25193000  0.63337000  1.0 -0.1555142666
N  N132  1  0.44354000  0.16540000  0.65736000  1.0 -0.4158985567
N  N133  1  0.33466000  0.65410000  0.82466000  1.0 -0.1674412967
N  N134  1  0.25207000  0.63337000  0.86263000  1.0 -0.1555142666
N  N135  1  0.44354000  0.65736000  0.73370000  1.0 -0.4158985567
N  N136  1  0.18658000  0.82466000  0.65410000  1.0 -0.1674412967
N  N137  1  0.25193000  0.86263000  0.63337000  1.0 -0.1555142666
N  N138  1  0.16540000  0.73370000  0.65736000  1.0 -0.4158985567
N  N139  1  0.65410000  0.33466000  0.18658000  1.0 -0.1674412967
N  N140  1  0.63337000  0.25207000  0.25193000  1.0 -0.1555142666
N  N141  1  0.65736000  0.44354000  0.16540000  1.0 -0.4158985567
N  N142  1  0.82466000  0.18658000  0.33466000  1.0 -0.1674412967
N  N143  1  0.86263000  0.25193000  0.25207000  1.0 -0.1555142666
N  N144  1  0.73370000  0.16540000  0.44354000  1.0 -0.4158985567
F  F1  1  0.40940000  0.48160000  0.67220000  1.0 -0.4707132286
F  F2  1  0.48160000  0.43680000  0.67220000  1.0 -0.4707132286
F  F3  1  0.43680000  0.40940000  0.67220000  1.0 -0.4707132286
F  F4  1  0.42152000  0.42152000  0.73544000  1.0 -0.4707132286
F  F5  1  0.67220000  0.43680000  0.40940000  1.0 -0.4707132286
F  F6  1  0.67220000  0.40940000  0.48160000  1.0 -0.4707132286
F  F7  1  0.67220000  0.48160000  0.43680000  1.0 -0.4707132286
F  F8  1  0.73544000  0.42152000  0.42152000  1.0 -0.4707132286
F  F9  1  0.43680000  0.67220000  0.48160000  1.0 -0.4707132286
F  F10  1  0.40940000  0.67220000  0.43680000  1.0 -0.4707132286
F  F11  1  0.48160000  0.67220000  0.40940000  1.0 -0.4707132286
F  F12  1  0.42152000  0.73544000  0.42152000  1.0 -0.4707132286
F  F13  1  0.48160000  0.40940000  0.43680000  1.0 -0.4707132286
F  F14  1  0.43680000  0.48160000  0.40940000  1.0 -0.4707132286
F  F15  1  0.40940000  0.43680000  0.48160000  1.0 -0.4707132286
F  F16  1  0.42152000  0.42152000  0.42152000  1.0 -0.4707132286
F  F17  1  0.84060000  0.81320000  0.57780000  1.0 -0.4707132286
F  F18  1  0.76840000  0.84060000  0.57780000  1.0 -0.4707132286
F  F19  1  0.81320000  0.76840000  0.57780000  1.0 -0.4707132286
F  F20  1  0.82848000  0.82848000  0.51456000  1.0 -0.4707132286
F  F21  1  0.57780000  0.76840000  0.84060000  1.0 -0.4707132286
F  F22  1  0.57780000  0.81320000  0.76840000  1.0 -0.4707132286
F  F23  1  0.57780000  0.84060000  0.81320000  1.0 -0.4707132286
F  F24  1  0.51456000  0.82848000  0.82848000  1.0 -0.4707132286
F  F25  1  0.81320000  0.84060000  0.76840000  1.0 -0.4707132286
F  F26  1  0.84060000  0.76840000  0.81320000  1.0 -0.4707132286
F  F27  1  0.76840000  0.81320000  0.84060000  1.0 -0.4707132286
F  F28  1  0.82848000  0.82848000  0.82848000  1.0 -0.4646639708
F  F29  1  0.76840000  0.57780000  0.81320000  1.0 -0.4707132286
F  F30  1  0.81320000  0.57780000  0.84060000  1.0 -0.4707132286
F  F31  1  0.84060000  0.57780000  0.76840000  1.0 -0.4707132286
F  F32  1  0.82848000  0.51456000  0.82848000  1.0 -0.4707132286
F  F33  1  0.34060000  0.26840000  0.07780000  1.0 -0.4707132286
F  F34  1  0.26840000  0.31320000  0.07780000  1.0 -0.4707132286
F  F35  1  0.31320000  0.34060000  0.07780000  1.0 -0.4707132286
F  F36  1  0.32848000  0.32848000  0.01456000  1.0 -0.4707132286
F  F37  1  0.07780000  0.31320000  0.34060000  1.0 -0.4707132286
F  F38  1  0.07780000  0.34060000  0.26840000  1.0 -0.4707132286
F  F39  1  0.07780000  0.26840000  0.31320000  1.0 -0.4707132286
F  F40  1  0.01456000  0.32848000  0.32848000  1.0 -0.4646639708
F  F41  1  0.31320000  0.07780000  0.26840000  1.0 -0.4707132286
F  F42  1  0.34060000  0.07780000  0.31320000  1.0 -0.4707132286
F  F43  1  0.26840000  0.07780000  0.34060000  1.0 -0.4707132286
F  F44  1  0.32848000  0.01456000  0.32848000  1.0 -0.4707132286
F  F45  1  0.26840000  0.34060000  0.31320000  1.0 -0.4707132286
F  F46  1  0.31320000  0.26840000  0.34060000  1.0 -0.4707132286
F  F47  1  0.34060000  0.31320000  0.26840000  1.0 -0.4707132286
F  F48  1  0.32848000  0.32848000  0.32848000  1.0 -0.4707132286
F  F49  1  0.90940000  0.93680000  0.17220000  1.0 -0.4707132286
F  F50  1  0.98160000  0.90940000  0.17220000  1.0 -0.4707132286
F  F51  1  0.93680000  0.98160000  0.17220000  1.0 -0.4707132286
F  F52  1  0.92152000  0.92152000  0.23544000  1.0 -0.4707132286
F  F53  1  0.17220000  0.98160000  0.90940000  1.0 -0.4707132286
F  F54  1  0.17220000  0.93680000  0.98160000  1.0 -0.4707132286
F  F55  1  0.17220000  0.90940000  0.93680000  1.0 -0.4707132286
F  F56  1  0.23544000  0.92152000  0.92152000  1.0 -0.4707132286
F  F57  1  0.93680000  0.90940000  0.98160000  1.0 -0.4707132286
F  F58  1  0.90940000  0.98160000  0.93680000  1.0 -0.4707132286
F  F59  1  0.98160000  0.93680000  0.90940000  1.0 -0.4707132286
F  F60  1  0.92152000  0.92152000  0.92152000  1.0 -0.4707132286
F  F61  1  0.98160000  0.17220000  0.93680000  1.0 -0.4707132286
F  F62  1  0.93680000  0.17220000  0.90940000  1.0 -0.4707132286
F  F63  1  0.90940000  0.17220000  0.98160000  1.0 -0.4707132286
F  F64  1  0.92152000  0.23544000  0.92152000  1.0 -0.4707132286
F  F65  1  0.67778000  0.30428000  0.28088000  1.0 -0.4322937248
F  F66  1  0.68820000  0.35316000  0.29388000  1.0 -0.4322937248
F  F67  1  0.73706000  0.28088000  0.30428000  1.0 -0.4322937248
F  F68  1  0.66476000  0.29388000  0.35316000  1.0 -0.4322937248
F  F69  1  0.30428000  0.67778000  0.73706000  1.0 -0.4322937248
F  F70  1  0.35316000  0.68820000  0.66476000  1.0 -0.4322937248
F  F71  1  0.28088000  0.73706000  0.67778000  1.0 -0.4322937248
F  F72  1  0.29388000  0.66476000  0.68820000  1.0 -0.4322937248
F  F73  1  0.28088000  0.30428000  0.73706000  1.0 -0.4322937248
F  F74  1  0.29388000  0.35316000  0.66476000  1.0 -0.4322937248
F  F75  1  0.30428000  0.28088000  0.67778000  1.0 -0.4322937248
F  F76  1  0.35316000  0.29388000  0.68820000  1.0 -0.4322937248
F  F77  1  0.73706000  0.67778000  0.28088000  1.0 -0.4322937248
F  F78  1  0.66476000  0.68820000  0.29388000  1.0 -0.4322937248
F  F79  1  0.67778000  0.73706000  0.30428000  1.0 -0.4322937248
F  F80  1  0.68820000  0.66476000  0.35316000  1.0 -0.4322937248
F  F81  1  0.73706000  0.30428000  0.67778000  1.0 -0.4322937248
F  F82  1  0.66476000  0.35316000  0.68820000  1.0 -0.4322937248
F  F83  1  0.67778000  0.28088000  0.73706000  1.0 -0.4322937248
F  F84  1  0.68820000  0.29388000  0.66476000  1.0 -0.4322937248
F  F85  1  0.28088000  0.67778000  0.30428000  1.0 -0.4322937248
F  F86  1  0.29388000  0.68820000  0.35316000  1.0 -0.4322937248
F  F87  1  0.30428000  0.73706000  0.28088000  1.0 -0.4322937248
F  F88  1  0.35316000  0.66476000  0.29388000  1.0 -0.4322937248
F  F89  1  0.57222000  0.51294000  0.96912000  1.0 -0.4322937248
F  F90  1  0.56180000  0.58524000  0.95612000  1.0 -0.4322937248
F  F91  1  0.51294000  0.57222000  0.94572000  1.0 -0.4322937248
F  F92  1  0.58524000  0.56180000  0.89684000  1.0 -0.4322937248
F  F93  1  0.94572000  0.96912000  0.51294000  1.0 -0.4322937248
F  F94  1  0.89684000  0.95612000  0.58524000  1.0 -0.4322937248
F  F95  1  0.96912000  0.94572000  0.57222000  1.0 -0.4322937248
F  F96  1  0.95612000  0.89684000  0.56180000  1.0 -0.4322937248
F  F97  1  0.96912000  0.57222000  0.51294000  1.0 -0.4322937248
F  F98  1  0.95612000  0.56180000  0.58524000  1.0 -0.4322937248
F  F99  1  0.94572000  0.51294000  0.57222000  1.0 -0.4322937248
F  F100  1  0.89684000  0.58524000  0.56180000  1.0 -0.4322937248
F  F101  1  0.51294000  0.94572000  0.96912000  1.0 -0.4322937248
F  F102  1  0.58524000  0.89684000  0.95612000  1.0 -0.4322937248
F  F103  1  0.57222000  0.96912000  0.94572000  1.0 -0.4322937248
F  F104  1  0.56180000  0.95612000  0.89684000  1.0 -0.4322937248
F  F105  1  0.51294000  0.96912000  0.57222000  1.0 -0.4322937248
F  F106  1  0.58524000  0.95612000  0.56180000  1.0 -0.4322937248
F  F107  1  0.57222000  0.94572000  0.51294000  1.0 -0.4322937248
F  F108  1  0.56180000  0.89684000  0.58524000  1.0 -0.4322937248
F  F109  1  0.96912000  0.51294000  0.94572000  1.0 -0.4322937248
F  F110  1  0.95612000  0.58524000  0.89684000  1.0 -0.4322937248
F  F111  1  0.94572000  0.57222000  0.96912000  1.0 -0.4322937248
F  F112  1  0.89684000  0.56180000  0.95612000  1.0 -0.4322937248
F  F113  1  0.07222000  0.44572000  0.46912000  1.0 -0.4322937248
F  F114  1  0.06180000  0.39684000  0.45612000  1.0 -0.4322937248
F  F115  1  0.01294000  0.46912000  0.44572000  1.0 -0.4322937248
F  F116  1  0.08524000  0.45612000  0.39684000  1.0 -0.4322937248
F  F117  1  0.44572000  0.07222000  0.01294000  1.0 -0.4322937248
F  F118  1  0.39684000  0.06180000  0.08524000  1.0 -0.4322937248
F  F119  1  0.46912000  0.01294000  0.07222000  1.0 -0.4322937248
F  F120  1  0.45612000  0.08524000  0.06180000  1.0 -0.4322937248
F  F121  1  0.46912000  0.44572000  0.01294000  1.0 -0.4322937248
F  F122  1  0.45612000  0.39684000  0.08524000  1.0 -0.4322937248
F  F123  1  0.44572000  0.46912000  0.07222000  1.0 -0.4322937248
F  F124  1  0.39684000  0.45612000  0.06180000  1.0 -0.4322937248
F  F125  1  0.01294000  0.07222000  0.46912000  1.0 -0.4322937248
F  F126  1  0.08524000  0.06180000  0.45612000  1.0 -0.4322937248
F  F127  1  0.07222000  0.01294000  0.44572000  1.0 -0.4322937248
F  F128  1  0.06180000  0.08524000  0.39684000  1.0 -0.4322937248
F  F129  1  0.01294000  0.44572000  0.07222000  1.0 -0.4322937248
F  F130  1  0.08524000  0.39684000  0.06180000  1.0 -0.4322937248
F  F131  1  0.07222000  0.46912000  0.01294000  1.0 -0.4322937248
F  F132  1  0.06180000  0.45612000  0.08524000  1.0 -0.4322937248
F  F133  1  0.46912000  0.07222000  0.44572000  1.0 -0.4322937248
F  F134  1  0.45612000  0.06180000  0.39684000  1.0 -0.4322937248
F  F135  1  0.44572000  0.01294000  0.46912000  1.0 -0.4322937248
F  F136  1  0.39684000  0.08524000  0.45612000  1.0 -0.4322937248
F  F137  1  0.17778000  0.23706000  0.78088000  1.0 -0.4322937248
F  F138  1  0.18820000  0.16476000  0.79388000  1.0 -0.4322937248
F  F139  1  0.23706000  0.17778000  0.80428000  1.0 -0.4322937248
F  F140  1  0.16476000  0.18820000  0.85316000  1.0 -0.4322937248
F  F141  1  0.80428000  0.78088000  0.23706000  1.0 -0.4322937248
F  F142  1  0.85316000  0.79388000  0.16476000  1.0 -0.4322937248
F  F143  1  0.78088000  0.80428000  0.17778000  1.0 -0.4322937248
F  F144  1  0.79388000  0.85316000  0.18820000  1.0 -0.4322937248
F  F145  1  0.78088000  0.17778000  0.23706000  1.0 -0.4322937248
F  F146  1  0.79388000  0.18820000  0.16476000  1.0 -0.4322937248
F  F147  1  0.80428000  0.23706000  0.17778000  1.0 -0.4322937248
F  F148  1  0.85316000  0.16476000  0.18820000  1.0 -0.4322937248
F  F149  1  0.23706000  0.80428000  0.78088000  1.0 -0.4322937248
F  F150  1  0.16476000  0.85316000  0.79388000  1.0 -0.4322937248
F  F151  1  0.17778000  0.78088000  0.80428000  1.0 -0.4322937248
F  F152  1  0.18820000  0.79388000  0.85316000  1.0 -0.4322937248
F  F153  1  0.23706000  0.78088000  0.17778000  1.0 -0.4322937248
F  F154  1  0.16476000  0.79388000  0.18820000  1.0 -0.4322937248
F  F155  1  0.17778000  0.80428000  0.23706000  1.0 -0.4322937248
F  F156  1  0.18820000  0.85316000  0.16476000  1.0 -0.4322937248
F  F157  1  0.78088000  0.23706000  0.80428000  1.0 -0.4322937248
F  F158  1  0.79388000  0.16476000  0.85316000  1.0 -0.4322937248
F  F159  1  0.80428000  0.17778000  0.78088000  1.0 -0.4322937248
F  F160  1  0.85316000  0.18820000  0.79388000  1.0 -0.4322937248
