# DDEC6 charges by PACMAN v1.1 (https://github.com/mtap-research/PACMAN-charge/)
data_ITIWOY_ion_pacman
_symmetry_space_group_name_H-M   'P 1'
_cell_length_a   15.87630000
_cell_length_b   15.87630000
_cell_length_c   21.50700000
_cell_angle_alpha   90.00000000
_cell_angle_beta   90.00000000
_cell_angle_gamma   90.00000000
_symmetry_Int_Tables_number   1
_chemical_formula_structural   CdH36C48I6N12ClO4
_chemical_formula_sum   'Cd4 H144 C192 I24 N48 Cl4 O16'
_cell_volume   5420.98778465
_cell_formula_units_Z   4
loop_
 _symmetry_equiv_pos_site_id
 _symmetry_equiv_pos_as_xyz
  1  'x, y, z'
loop_
 _atom_site_type_symbol
 _atom_site_label
 _atom_site_symmetry_multiplicity
 _atom_site_fract_x
 _atom_site_fract_y
 _atom_site_fract_z
 _atom_site_occupancy
 _atom_site_charge
Cd  Cd1  1  0.55890000  0.55890000  0.00000000  1.0 0.649537681
Cd  Cd2  1  0.44110000  0.44110000  0.50000000  1.0 0.649537681
Cd  Cd3  1  0.94110000  0.05890000  0.75000000  1.0 0.649537681
Cd  Cd4  1  0.05890000  0.94110000  0.25000000  1.0 0.649537681
H  H1  1  0.01330000  0.23170000  0.67340000  1.0 0.0908454045
H  H2  1  0.98670000  0.76830000  0.17340000  1.0 0.0908454045
H  H3  1  0.26830000  0.51330000  0.42340000  1.0 0.0908454045
H  H4  1  0.73170000  0.48670000  0.92340000  1.0 0.0908454045
H  H5  1  0.48670000  0.73170000  0.07660000  1.0 0.0908454045
H  H6  1  0.51330000  0.26830000  0.57660000  1.0 0.0908454045
H  H7  1  0.23170000  0.01330000  0.32660000  1.0 0.0908454045
H  H8  1  0.76830000  0.98670000  0.82660000  1.0 0.0908454045
H  H9  1  0.10690000  0.34500000  0.68280000  1.0 0.1096822095
H  H10  1  0.89310000  0.65500000  0.18280000  1.0 0.1096822095
H  H11  1  0.15500000  0.60690000  0.43280000  1.0 0.1096822095
H  H12  1  0.84500000  0.39310000  0.93280000  1.0 0.1096822095
H  H13  1  0.39310000  0.84500000  0.06720000  1.0 0.1096822095
H  H14  1  0.60690000  0.15500000  0.56720000  1.0 0.1096822095
H  H15  1  0.34500000  0.10690000  0.31720000  1.0 0.1096822095
H  H16  1  0.65500000  0.89310000  0.81720000  1.0 0.1096822095
H  H17  1  0.14940000  0.27080000  0.86020000  1.0 0.1271385721
H  H18  1  0.85060000  0.72920000  0.36020000  1.0 0.1271385721
H  H19  1  0.22920000  0.64940000  0.61020000  1.0 0.1271385721
H  H20  1  0.77080000  0.35060000  0.11020000  1.0 0.1271385721
H  H21  1  0.35060000  0.77080000  0.88980000  1.0 0.1271385721
H  H22  1  0.64940000  0.22920000  0.38980000  1.0 0.1271385721
H  H23  1  0.27080000  0.14940000  0.13980000  1.0 0.1271385721
H  H24  1  0.72920000  0.85060000  0.63980000  1.0 0.1271385721
H  H25  1  0.05350000  0.16340000  0.84530000  1.0 0.0908454045
H  H26  1  0.94650000  0.83660000  0.34530000  1.0 0.0908454045
H  H27  1  0.33660000  0.55350000  0.59530000  1.0 0.0908454045
H  H28  1  0.66340000  0.44650000  0.09530000  1.0 0.0908454045
H  H29  1  0.44650000  0.66340000  0.90470000  1.0 0.0908454045
H  H30  1  0.55350000  0.33660000  0.40470000  1.0 0.0908454045
H  H31  1  0.16340000  0.05350000  0.15470000  1.0 0.0908454045
H  H32  1  0.83660000  0.94650000  0.65470000  1.0 0.0908454045
H  H33  1  0.16390000  0.46330000  0.70940000  1.0 0.099128947
H  H34  1  0.83610000  0.53670000  0.20940000  1.0 0.099128947
H  H35  1  0.03670000  0.66390000  0.45940000  1.0 0.099128947
H  H36  1  0.96330000  0.33610000  0.95940000  1.0 0.099128947
H  H37  1  0.33610000  0.96330000  0.04060000  1.0 0.099128947
H  H38  1  0.66390000  0.03670000  0.54060000  1.0 0.099128947
H  H39  1  0.46330000  0.16390000  0.29060000  1.0 0.099128947
H  H40  1  0.53670000  0.83610000  0.79060000  1.0 0.099128947
H  H41  1  0.26750000  0.56710000  0.72250000  1.0 0.1096822095
H  H42  1  0.73250000  0.43290000  0.22250000  1.0 0.1096822095
H  H43  1  0.93290000  0.76750000  0.47250000  1.0 0.1096822095
H  H44  1  0.06710000  0.23250000  0.97250000  1.0 0.1096822095
H  H45  1  0.23250000  0.06710000  0.02750000  1.0 0.1096822095
H  H46  1  0.76750000  0.93290000  0.52750000  1.0 0.1096822095
H  H47  1  0.56710000  0.26750000  0.27750000  1.0 0.1096822095
H  H48  1  0.43290000  0.73250000  0.77750000  1.0 0.1096822095
H  H49  1  0.37730000  0.54570000  0.79090000  1.0 0.1096822095
H  H50  1  0.62270000  0.45430000  0.29090000  1.0 0.1096822095
H  H51  1  0.95430000  0.87730000  0.54090000  1.0 0.1096822095
H  H52  1  0.04570000  0.12270000  0.04090000  1.0 0.1096822095
H  H53  1  0.12270000  0.04570000  0.95910000  1.0 0.1096822095
H  H54  1  0.87730000  0.95430000  0.45910000  1.0 0.1096822095
H  H55  1  0.54570000  0.37730000  0.20910000  1.0 0.1096822095
H  H56  1  0.45430000  0.62270000  0.70910000  1.0 0.1096822095
H  H57  1  0.27580000  0.32510000  0.84470000  1.0 0.099128947
H  H58  1  0.72420000  0.67490000  0.34470000  1.0 0.099128947
H  H59  1  0.17490000  0.77580000  0.59470000  1.0 0.099128947
H  H60  1  0.82510000  0.22420000  0.09470000  1.0 0.099128947
H  H61  1  0.22420000  0.82510000  0.90530000  1.0 0.099128947
H  H62  1  0.77580000  0.17490000  0.40530000  1.0 0.099128947
H  H63  1  0.32510000  0.27580000  0.15530000  1.0 0.099128947
H  H64  1  0.67490000  0.72420000  0.65530000  1.0 0.099128947
H  H65  1  0.49500000  0.30040000  0.04400000  1.0 0.1096822095
H  H66  1  0.50500000  0.69960000  0.54400000  1.0 0.1096822095
H  H67  1  0.19960000  0.99500000  0.79400000  1.0 0.1096822095
H  H68  1  0.80040000  0.00500000  0.29400000  1.0 0.1096822095
H  H69  1  0.00500000  0.80040000  0.70600000  1.0 0.1096822095
H  H70  1  0.99500000  0.19960000  0.20600000  1.0 0.1096822095
H  H71  1  0.30040000  0.49500000  0.95600000  1.0 0.1096822095
H  H72  1  0.69960000  0.50500000  0.45600000  1.0 0.1096822095
H  H73  1  0.58760000  0.20150000  0.08690000  1.0 0.099128947
H  H74  1  0.41240000  0.79850000  0.58690000  1.0 0.099128947
H  H75  1  0.29850000  0.08760000  0.83690000  1.0 0.099128947
H  H76  1  0.70150000  0.91240000  0.33690000  1.0 0.099128947
H  H77  1  0.91240000  0.70150000  0.66310000  1.0 0.099128947
H  H78  1  0.08760000  0.29850000  0.16310000  1.0 0.099128947
H  H79  1  0.20150000  0.58760000  0.91310000  1.0 0.099128947
H  H80  1  0.79850000  0.41240000  0.41310000  1.0 0.099128947
H  H81  1  0.70140000  0.15370000  0.03320000  1.0 0.0908454045
H  H82  1  0.29860000  0.84630000  0.53320000  1.0 0.0908454045
H  H83  1  0.34630000  0.20140000  0.78320000  1.0 0.0908454045
H  H84  1  0.65370000  0.79860000  0.28320000  1.0 0.0908454045
H  H85  1  0.79860000  0.65370000  0.71680000  1.0 0.0908454045
H  H86  1  0.20140000  0.34630000  0.21680000  1.0 0.0908454045
H  H87  1  0.15370000  0.70140000  0.96680000  1.0 0.0908454045
H  H88  1  0.84630000  0.29860000  0.46680000  1.0 0.0908454045
H  H89  1  0.63770000  0.30280000  0.88750000  1.0 0.1096822095
H  H90  1  0.36230000  0.69720000  0.38750000  1.0 0.1096822095
H  H91  1  0.19720000  0.13770000  0.63750000  1.0 0.1096822095
H  H92  1  0.80280000  0.86230000  0.13750000  1.0 0.1096822095
H  H93  1  0.86230000  0.80280000  0.86250000  1.0 0.1096822095
H  H94  1  0.13770000  0.19720000  0.36250000  1.0 0.1096822095
H  H95  1  0.30280000  0.63770000  0.11250000  1.0 0.1096822095
H  H96  1  0.69720000  0.36230000  0.61250000  1.0 0.1096822095
H  H97  1  0.78600000  0.08880000  0.96830000  1.0 0.1212259714
H  H98  1  0.21400000  0.91120000  0.46830000  1.0 0.1212259714
H  H99  1  0.41120000  0.28600000  0.71830000  1.0 0.1212259714
H  H100  1  0.58880000  0.71400000  0.21830000  1.0 0.1212259714
H  H101  1  0.71400000  0.58880000  0.78170000  1.0 0.1212259714
H  H102  1  0.28600000  0.41120000  0.28170000  1.0 0.1212259714
H  H103  1  0.08880000  0.78600000  0.03170000  1.0 0.1212259714
H  H104  1  0.91120000  0.21400000  0.53170000  1.0 0.1212259714
H  H105  1  0.88900000  0.03850000  0.90210000  1.0 0.099128947
H  H106  1  0.11100000  0.96150000  0.40210000  1.0 0.099128947
H  H107  1  0.46150000  0.38900000  0.65210000  1.0 0.099128947
H  H108  1  0.53850000  0.61100000  0.15210000  1.0 0.099128947
H  H109  1  0.61100000  0.53850000  0.84790000  1.0 0.099128947
H  H110  1  0.38900000  0.46150000  0.34790000  1.0 0.099128947
H  H111  1  0.03850000  0.88900000  0.09790000  1.0 0.099128947
H  H112  1  0.96150000  0.11100000  0.59790000  1.0 0.099128947
H  H113  1  0.85780000  0.22890000  0.78880000  1.0 0.0908454045
H  H114  1  0.14220000  0.77110000  0.28880000  1.0 0.0908454045
H  H115  1  0.27110000  0.35780000  0.53880000  1.0 0.0908454045
H  H116  1  0.72890000  0.64220000  0.03880000  1.0 0.0908454045
H  H117  1  0.64220000  0.72890000  0.96120000  1.0 0.0908454045
H  H118  1  0.35780000  0.27110000  0.46120000  1.0 0.0908454045
H  H119  1  0.22890000  0.85780000  0.21120000  1.0 0.0908454045
H  H120  1  0.77110000  0.14220000  0.71120000  1.0 0.0908454045
H  H121  1  0.75710000  0.28770000  0.85220000  1.0 0.1212259714
H  H122  1  0.24290000  0.71230000  0.35220000  1.0 0.1212259714
H  H123  1  0.21230000  0.25710000  0.60220000  1.0 0.1212259714
H  H124  1  0.78770000  0.74290000  0.10220000  1.0 0.1212259714
H  H125  1  0.74290000  0.78770000  0.89780000  1.0 0.1212259714
H  H126  1  0.25710000  0.21230000  0.39780000  1.0 0.1212259714
H  H127  1  0.28770000  0.75710000  0.14780000  1.0 0.1212259714
H  H128  1  0.71230000  0.24290000  0.64780000  1.0 0.1212259714
H  H129  1  0.40270000  0.23990000  0.90310000  1.0 0.2569056026
H  H130  1  0.59730000  0.76010000  0.40310000  1.0 0.2569056026
H  H131  1  0.26010000  0.90270000  0.65310000  1.0 0.2569056026
H  H132  1  0.73990000  0.09730000  0.15310000  1.0 0.2569056026
H  H133  1  0.09730000  0.73990000  0.84690000  1.0 0.2569056026
H  H134  1  0.90270000  0.26010000  0.34690000  1.0 0.2569056026
H  H135  1  0.23990000  0.40270000  0.09690000  1.0 0.2569056026
H  H136  1  0.76010000  0.59730000  0.59690000  1.0 0.2569056026
H  H137  1  0.46870000  0.24600000  0.85430000  1.0 0.2569056026
H  H138  1  0.53130000  0.75400000  0.35430000  1.0 0.2569056026
H  H139  1  0.25400000  0.96870000  0.60430000  1.0 0.2569056026
H  H140  1  0.74600000  0.03130000  0.10430000  1.0 0.2569056026
H  H141  1  0.03130000  0.74600000  0.89570000  1.0 0.2569056026
H  H142  1  0.96870000  0.25400000  0.39570000  1.0 0.2569056026
H  H143  1  0.24600000  0.46870000  0.14570000  1.0 0.2569056026
H  H144  1  0.75400000  0.53130000  0.64570000  1.0 0.2569056026
C  C1  1  0.04160000  0.23980000  0.71180000  1.0 0.0908454045
C  C2  1  0.95840000  0.76020000  0.21180000  1.0 0.0908454045
C  C3  1  0.26020000  0.54160000  0.46180000  1.0 0.0908454045
C  C4  1  0.73980000  0.45840000  0.96180000  1.0 0.0908454045
C  C5  1  0.45840000  0.73980000  0.03820000  1.0 0.0908454045
C  C6  1  0.54160000  0.26020000  0.53820000  1.0 0.0908454045
C  C7  1  0.23980000  0.04160000  0.28820000  1.0 0.0908454045
C  C8  1  0.76020000  0.95840000  0.78820000  1.0 0.0908454045
C  C9  1  0.09840000  0.30780000  0.71680000  1.0 -0.1981538351
C  C10  1  0.90160000  0.69220000  0.21680000  1.0 -0.1981538351
C  C11  1  0.19220000  0.59840000  0.46680000  1.0 -0.1981538351
C  C12  1  0.80780000  0.40160000  0.96680000  1.0 -0.1981538351
C  C13  1  0.40160000  0.80780000  0.03320000  1.0 -0.1981538351
C  C14  1  0.59840000  0.19220000  0.53320000  1.0 -0.1981538351
C  C15  1  0.30780000  0.09840000  0.28320000  1.0 -0.1981538351
C  C16  1  0.69220000  0.90160000  0.78320000  1.0 -0.1981538351
C  C17  1  0.14140000  0.31940000  0.77180000  1.0 0.1096822095
C  C18  1  0.85860000  0.68060000  0.27180000  1.0 0.1096822095
C  C19  1  0.18060000  0.64140000  0.52180000  1.0 0.1096822095
C  C20  1  0.81940000  0.35860000  0.02180000  1.0 0.1096822095
C  C21  1  0.35860000  0.81940000  0.97820000  1.0 0.1096822095
C  C22  1  0.64140000  0.18060000  0.47820000  1.0 0.1096822095
C  C23  1  0.31940000  0.14140000  0.22820000  1.0 0.1096822095
C  C24  1  0.68060000  0.85860000  0.72820000  1.0 0.1096822095
C  C25  1  0.12280000  0.26410000  0.82100000  1.0 -0.1981538351
C  C26  1  0.87720000  0.73590000  0.32100000  1.0 -0.1981538351
C  C27  1  0.23590000  0.62280000  0.57100000  1.0 -0.1981538351
C  C28  1  0.76410000  0.37720000  0.07100000  1.0 -0.1981538351
C  C29  1  0.37720000  0.76410000  0.92900000  1.0 -0.1981538351
C  C30  1  0.62280000  0.23590000  0.42900000  1.0 -0.1981538351
C  C31  1  0.26410000  0.12280000  0.17900000  1.0 -0.1981538351
C  C32  1  0.73590000  0.87720000  0.67900000  1.0 -0.1981538351
C  C33  1  0.06550000  0.20020000  0.81160000  1.0 0.0679434543
C  C34  1  0.93450000  0.79980000  0.31160000  1.0 0.0679434543
C  C35  1  0.29980000  0.56550000  0.56160000  1.0 0.0679434543
C  C36  1  0.70020000  0.43450000  0.06160000  1.0 0.0679434543
C  C37  1  0.43450000  0.70020000  0.93840000  1.0 0.0679434543
C  C38  1  0.56550000  0.29980000  0.43840000  1.0 0.0679434543
C  C39  1  0.20020000  0.06550000  0.18840000  1.0 0.0679434543
C  C40  1  0.79980000  0.93450000  0.68840000  1.0 0.0679434543
C  C41  1  0.20730000  0.38570000  0.77810000  1.0 0.0679434543
C  C42  1  0.79270000  0.61430000  0.27810000  1.0 0.0679434543
C  C43  1  0.11430000  0.70730000  0.52810000  1.0 0.0679434543
C  C44  1  0.88570000  0.29270000  0.02810000  1.0 0.0679434543
C  C45  1  0.29270000  0.88570000  0.97190000  1.0 0.0679434543
C  C46  1  0.70730000  0.11430000  0.47190000  1.0 0.0679434543
C  C47  1  0.38570000  0.20730000  0.22190000  1.0 0.0679434543
C  C48  1  0.61430000  0.79270000  0.72190000  1.0 0.0679434543
C  C49  1  0.20670000  0.45640000  0.73990000  1.0 -0.1596987785
C  C50  1  0.79330000  0.54360000  0.23990000  1.0 -0.1596987785
C  C51  1  0.04360000  0.70670000  0.48990000  1.0 -0.1596987785
C  C52  1  0.95640000  0.29330000  0.98990000  1.0 -0.1596987785
C  C53  1  0.29330000  0.95640000  0.01010000  1.0 -0.1596987785
C  C54  1  0.70670000  0.04360000  0.51010000  1.0 -0.1596987785
C  C55  1  0.45640000  0.20670000  0.26010000  1.0 -0.1596987785
C  C56  1  0.54360000  0.79330000  0.76010000  1.0 -0.1596987785
C  C57  1  0.26960000  0.51700000  0.74650000  1.0 -0.1007068974
C  C58  1  0.73040000  0.48300000  0.24650000  1.0 -0.1007068974
C  C59  1  0.98300000  0.76960000  0.49650000  1.0 -0.1007068974
C  C60  1  0.01700000  0.23040000  0.99650000  1.0 -0.1007068974
C  C61  1  0.23040000  0.01700000  0.00350000  1.0 -0.1007068974
C  C62  1  0.76960000  0.98300000  0.50350000  1.0 -0.1007068974
C  C63  1  0.51700000  0.26960000  0.25350000  1.0 -0.1007068974
C  C64  1  0.48300000  0.73040000  0.75350000  1.0 -0.1007068974
C  C65  1  0.33400000  0.50470000  0.78750000  1.0 -0.1439106275
C  C66  1  0.66600000  0.49530000  0.28750000  1.0 -0.1439106275
C  C67  1  0.99530000  0.83400000  0.53750000  1.0 -0.1439106275
C  C68  1  0.00470000  0.16600000  0.03750000  1.0 -0.1439106275
C  C69  1  0.16600000  0.00470000  0.96250000  1.0 -0.1439106275
C  C70  1  0.83400000  0.99530000  0.46250000  1.0 -0.1439106275
C  C71  1  0.50470000  0.33400000  0.21250000  1.0 -0.1439106275
C  C72  1  0.49530000  0.66600000  0.71250000  1.0 -0.1439106275
C  C73  1  0.33720000  0.43360000  0.82410000  1.0 0.0403688197
C  C74  1  0.66280000  0.56640000  0.32410000  1.0 0.0403688197
C  C75  1  0.06640000  0.83720000  0.57410000  1.0 0.0403688197
C  C76  1  0.93360000  0.16280000  0.07410000  1.0 0.0403688197
C  C77  1  0.16280000  0.93360000  0.92590000  1.0 0.0403688197
C  C78  1  0.83720000  0.06640000  0.42590000  1.0 0.0403688197
C  C79  1  0.43360000  0.33720000  0.17590000  1.0 0.0403688197
C  C80  1  0.56640000  0.66280000  0.67590000  1.0 0.0403688197
C  C81  1  0.27390000  0.37420000  0.81950000  1.0 -0.1830037988
C  C82  1  0.72610000  0.62580000  0.31950000  1.0 -0.1830037988
C  C83  1  0.12580000  0.77390000  0.56950000  1.0 -0.1830037988
C  C84  1  0.87420000  0.22610000  0.06950000  1.0 -0.1830037988
C  C85  1  0.22610000  0.87420000  0.93050000  1.0 -0.1830037988
C  C86  1  0.77390000  0.12580000  0.43050000  1.0 -0.1830037988
C  C87  1  0.37420000  0.27390000  0.18050000  1.0 -0.1830037988
C  C88  1  0.62580000  0.72610000  0.68050000  1.0 -0.1830037988
C  C89  1  0.40790000  0.42460000  0.86830000  1.0 0.1959222819
C  C90  1  0.59210000  0.57540000  0.36830000  1.0 0.1959222819
C  C91  1  0.07540000  0.90790000  0.61830000  1.0 0.1959222819
C  C92  1  0.92460000  0.09210000  0.11830000  1.0 0.1959222819
C  C93  1  0.09210000  0.92460000  0.88170000  1.0 0.1959222819
C  C94  1  0.90790000  0.07540000  0.38170000  1.0 0.1959222819
C  C95  1  0.42460000  0.40790000  0.13170000  1.0 0.1959222819
C  C96  1  0.57540000  0.59210000  0.63170000  1.0 0.1959222819
C  C97  1  0.50280000  0.37410000  0.93040000  1.0 0.1872691255
C  C98  1  0.49720000  0.62590000  0.43040000  1.0 0.1872691255
C  C99  1  0.12590000  0.00280000  0.68040000  1.0 0.1872691255
C  C100  1  0.87410000  0.99720000  0.18040000  1.0 0.1872691255
C  C101  1  0.99720000  0.87410000  0.81960000  1.0 0.1872691255
C  C102  1  0.00280000  0.12590000  0.31960000  1.0 0.1872691255
C  C103  1  0.37410000  0.50280000  0.06960000  1.0 0.1872691255
C  C104  1  0.62590000  0.49720000  0.56960000  1.0 0.1872691255
C  C105  1  0.55840000  0.31100000  0.96070000  1.0 0.015474737
C  C106  1  0.44160000  0.68900000  0.46070000  1.0 0.015474737
C  C107  1  0.18900000  0.05840000  0.71070000  1.0 0.015474737
C  C108  1  0.81100000  0.94160000  0.21070000  1.0 0.015474737
C  C109  1  0.94160000  0.81100000  0.78930000  1.0 0.015474737
C  C110  1  0.05840000  0.18900000  0.28930000  1.0 0.015474737
C  C111  1  0.31100000  0.55840000  0.03930000  1.0 0.015474737
C  C112  1  0.68900000  0.44160000  0.53930000  1.0 0.015474737
C  C113  1  0.54230000  0.28100000  0.02100000  1.0 -0.1596987785
C  C114  1  0.45770000  0.71900000  0.52100000  1.0 -0.1596987785
C  C115  1  0.21900000  0.04230000  0.77100000  1.0 -0.1596987785
C  C116  1  0.78100000  0.95770000  0.27100000  1.0 -0.1596987785
C  C117  1  0.95770000  0.78100000  0.72900000  1.0 -0.1596987785
C  C118  1  0.04230000  0.21900000  0.22900000  1.0 -0.1596987785
C  C119  1  0.28100000  0.54230000  0.97900000  1.0 -0.1596987785
C  C120  1  0.71900000  0.45770000  0.47900000  1.0 -0.1596987785
C  C121  1  0.59760000  0.22220000  0.04610000  1.0 -0.1007068974
C  C122  1  0.40240000  0.77780000  0.54610000  1.0 -0.1007068974
C  C123  1  0.27780000  0.09760000  0.79610000  1.0 -0.1007068974
C  C124  1  0.72220000  0.90240000  0.29610000  1.0 -0.1007068974
C  C125  1  0.90240000  0.72220000  0.70390000  1.0 -0.1007068974
C  C126  1  0.09760000  0.27780000  0.20390000  1.0 -0.1007068974
C  C127  1  0.22220000  0.59760000  0.95390000  1.0 -0.1007068974
C  C128  1  0.77780000  0.40240000  0.45390000  1.0 -0.1007068974
C  C129  1  0.66490000  0.19360000  0.01440000  1.0 -0.1596987785
C  C130  1  0.33510000  0.80640000  0.51440000  1.0 -0.1596987785
C  C131  1  0.30640000  0.16490000  0.76440000  1.0 -0.1596987785
C  C132  1  0.69360000  0.83510000  0.26440000  1.0 -0.1596987785
C  C133  1  0.83510000  0.69360000  0.73560000  1.0 -0.1596987785
C  C134  1  0.16490000  0.30640000  0.23560000  1.0 -0.1596987785
C  C135  1  0.19360000  0.66490000  0.98560000  1.0 -0.1596987785
C  C136  1  0.80640000  0.33510000  0.48560000  1.0 -0.1596987785
C  C137  1  0.68210000  0.22250000  0.95290000  1.0 0.0679434543
C  C138  1  0.31790000  0.77750000  0.45290000  1.0 0.0679434543
C  C139  1  0.27750000  0.18210000  0.70290000  1.0 0.0679434543
C  C140  1  0.72250000  0.81790000  0.20290000  1.0 0.0679434543
C  C141  1  0.81790000  0.72250000  0.79710000  1.0 0.0679434543
C  C142  1  0.18210000  0.27750000  0.29710000  1.0 0.0679434543
C  C143  1  0.22250000  0.68210000  0.04710000  1.0 0.0679434543
C  C144  1  0.77750000  0.31790000  0.54710000  1.0 0.0679434543
C  C145  1  0.62740000  0.28170000  0.92810000  1.0 -0.1830037988
C  C146  1  0.37260000  0.71830000  0.42810000  1.0 -0.1830037988
C  C147  1  0.21830000  0.12740000  0.67810000  1.0 -0.1830037988
C  C148  1  0.78170000  0.87260000  0.17810000  1.0 -0.1830037988
C  C149  1  0.87260000  0.78170000  0.82190000  1.0 -0.1830037988
C  C150  1  0.12740000  0.21830000  0.32190000  1.0 -0.1830037988
C  C151  1  0.28170000  0.62740000  0.07190000  1.0 -0.1830037988
C  C152  1  0.71830000  0.37260000  0.57190000  1.0 -0.1830037988
C  C153  1  0.75380000  0.19160000  0.91610000  1.0 0.1212259714
C  C154  1  0.24620000  0.80840000  0.41610000  1.0 0.1212259714
C  C155  1  0.30840000  0.25380000  0.66610000  1.0 0.1212259714
C  C156  1  0.69160000  0.74620000  0.16610000  1.0 0.1212259714
C  C157  1  0.74620000  0.69160000  0.83390000  1.0 0.1212259714
C  C158  1  0.25380000  0.30840000  0.33390000  1.0 0.1212259714
C  C159  1  0.19160000  0.75380000  0.08390000  1.0 0.1212259714
C  C160  1  0.80840000  0.24620000  0.58390000  1.0 0.1212259714
C  C161  1  0.79810000  0.11820000  0.93090000  1.0 -0.1981538351
C  C162  1  0.20190000  0.88180000  0.43090000  1.0 -0.1981538351
C  C163  1  0.38180000  0.29810000  0.68090000  1.0 -0.1981538351
C  C164  1  0.61820000  0.70190000  0.18090000  1.0 -0.1981538351
C  C165  1  0.70190000  0.61820000  0.81910000  1.0 -0.1981538351
C  C166  1  0.29810000  0.38180000  0.31910000  1.0 -0.1981538351
C  C167  1  0.11820000  0.79810000  0.06910000  1.0 -0.1981538351
C  C168  1  0.88180000  0.20190000  0.56910000  1.0 -0.1981538351
C  C169  1  0.85980000  0.08850000  0.89090000  1.0 0.0679434543
C  C170  1  0.14020000  0.91150000  0.39090000  1.0 0.0679434543
C  C171  1  0.41150000  0.35980000  0.64090000  1.0 0.0679434543
C  C172  1  0.58850000  0.64020000  0.14090000  1.0 0.0679434543
C  C173  1  0.64020000  0.58850000  0.85910000  1.0 0.0679434543
C  C174  1  0.35980000  0.41150000  0.35910000  1.0 0.0679434543
C  C175  1  0.08850000  0.85980000  0.10910000  1.0 0.0679434543
C  C176  1  0.91150000  0.14020000  0.60910000  1.0 0.0679434543
C  C177  1  0.84180000  0.19950000  0.82550000  1.0 0.0403688197
C  C178  1  0.15820000  0.80050000  0.32550000  1.0 0.0403688197
C  C179  1  0.30050000  0.34180000  0.57550000  1.0 0.0403688197
C  C180  1  0.69950000  0.65820000  0.07550000  1.0 0.0403688197
C  C181  1  0.65820000  0.69950000  0.92450000  1.0 0.0403688197
C  C182  1  0.34180000  0.30050000  0.42450000  1.0 0.0403688197
C  C183  1  0.19950000  0.84180000  0.17450000  1.0 0.0403688197
C  C184  1  0.80050000  0.15820000  0.67450000  1.0 0.0403688197
C  C185  1  0.78080000  0.23460000  0.86260000  1.0 -0.1922875882
C  C186  1  0.21920000  0.76540000  0.36260000  1.0 -0.1922875882
C  C187  1  0.26540000  0.28080000  0.61260000  1.0 -0.1922875882
C  C188  1  0.73460000  0.71920000  0.11260000  1.0 -0.1922875882
C  C189  1  0.71920000  0.73460000  0.88740000  1.0 -0.1922875882
C  C190  1  0.28080000  0.26540000  0.38740000  1.0 -0.1922875882
C  C191  1  0.23460000  0.78080000  0.13740000  1.0 -0.1922875882
C  C192  1  0.76540000  0.21920000  0.63740000  1.0 -0.1922875882
I  I1  1  0.36812000  0.04860000  0.46818000  1.0 -0.0695734976
I  I2  1  0.50990000  0.95950000  0.46000000  1.0 0.0298808779
I  I3  1  0.49920000  0.98760000  0.40350000  1.0 0.0116662302
I  I4  1  0.63188000  0.95140000  0.96818000  1.0 -0.0695734976
I  I5  1  0.49010000  0.04050000  0.96000000  1.0 0.0298808779
I  I6  1  0.50080000  0.01240000  0.90350000  1.0 0.0116662302
I  I7  1  0.45140000  0.86812000  0.21818000  1.0 -0.0695734976
I  I8  1  0.54050000  0.00990000  0.21000000  1.0 0.0298808779
I  I9  1  0.51240000  0.99920000  0.15350000  1.0 0.0116662302
I  I10  1  0.54860000  0.13188000  0.71818000  1.0 -0.0695734976
I  I11  1  0.45950000  0.99010000  0.71000000  1.0 0.0298808779
I  I12  1  0.48760000  0.00080000  0.65350000  1.0 0.0116662302
I  I13  1  0.13188000  0.54860000  0.28182000  1.0 -0.0695734976
I  I14  1  0.99010000  0.45950000  0.29000000  1.0 0.0298808779
I  I15  1  0.00080000  0.48760000  0.34650000  1.0 0.0116662302
I  I16  1  0.86812000  0.45140000  0.78182000  1.0 -0.0695734976
I  I17  1  0.00990000  0.54050000  0.79000000  1.0 0.0298808779
I  I18  1  0.99920000  0.51240000  0.84650000  1.0 0.0116662302
I  I19  1  0.04860000  0.36812000  0.53182000  1.0 -0.0695734976
I  I20  1  0.95950000  0.50990000  0.54000000  1.0 0.0298808779
I  I21  1  0.98760000  0.49920000  0.59650000  1.0 0.0116662302
I  I22  1  0.95140000  0.63188000  0.03182000  1.0 -0.0695734976
I  I23  1  0.04050000  0.49010000  0.04000000  1.0 0.0298808779
I  I24  1  0.01240000  0.50080000  0.09650000  1.0 0.0116662302
N  N1  1  0.44630000  0.48850000  0.89440000  1.0 -0.2675637917
N  N2  1  0.55370000  0.51150000  0.39440000  1.0 -0.2675637917
N  N3  1  0.01150000  0.94630000  0.64440000  1.0 -0.2675637917
N  N4  1  0.98850000  0.05370000  0.14440000  1.0 -0.2675637917
N  N5  1  0.05370000  0.98850000  0.85560000  1.0 -0.2675637917
N  N6  1  0.94630000  0.01150000  0.35560000  1.0 -0.2675637917
N  N7  1  0.48850000  0.44630000  0.10560000  1.0 -0.2675637917
N  N8  1  0.51150000  0.55370000  0.60560000  1.0 -0.2675637917
N  N9  1  0.50710000  0.45650000  0.93280000  1.0 -0.2270675802
N  N10  1  0.49290000  0.54350000  0.43280000  1.0 -0.2270675802
N  N11  1  0.04350000  0.00710000  0.68280000  1.0 -0.2270675802
N  N12  1  0.95650000  0.99290000  0.18280000  1.0 -0.2270675802
N  N13  1  0.99290000  0.95650000  0.81720000  1.0 -0.2270675802
N  N14  1  0.00710000  0.04350000  0.31720000  1.0 -0.2270675802
N  N15  1  0.45650000  0.50710000  0.06720000  1.0 -0.2270675802
N  N16  1  0.54350000  0.49290000  0.56720000  1.0 -0.2270675802
N  N17  1  0.44150000  0.35270000  0.89000000  1.0 0.0679434543
N  N18  1  0.55850000  0.64730000  0.39000000  1.0 0.0679434543
N  N19  1  0.14730000  0.94150000  0.64000000  1.0 0.0679434543
N  N20  1  0.85270000  0.05850000  0.14000000  1.0 0.0679434543
N  N21  1  0.05850000  0.85270000  0.86000000  1.0 0.0679434543
N  N22  1  0.94150000  0.14730000  0.36000000  1.0 0.0679434543
N  N23  1  0.35270000  0.44150000  0.11000000  1.0 0.0679434543
N  N24  1  0.64730000  0.55850000  0.61000000  1.0 0.0679434543
N  N25  1  0.42170000  0.27070000  0.87020000  1.0 -0.5020970346
N  N26  1  0.57830000  0.72930000  0.37020000  1.0 -0.5020970346
N  N27  1  0.22930000  0.92170000  0.62020000  1.0 -0.5020970346
N  N28  1  0.77070000  0.07830000  0.12020000  1.0 -0.5020970346
N  N29  1  0.07830000  0.77070000  0.87980000  1.0 -0.5020970346
N  N30  1  0.92170000  0.22930000  0.37980000  1.0 -0.5020970346
N  N31  1  0.27070000  0.42170000  0.12980000  1.0 -0.5020970346
N  N32  1  0.72930000  0.57830000  0.62980000  1.0 -0.5020970346
N  N33  1  0.02580000  0.18730000  0.75740000  1.0 -0.2416394387
N  N34  1  0.97420000  0.81270000  0.25740000  1.0 -0.2416394387
N  N35  1  0.31270000  0.52580000  0.50740000  1.0 -0.2416394387
N  N36  1  0.68730000  0.47420000  0.00740000  1.0 -0.2416394387
N  N37  1  0.47420000  0.68730000  0.99260000  1.0 -0.2416394387
N  N38  1  0.52580000  0.31270000  0.49260000  1.0 -0.2416394387
N  N39  1  0.18730000  0.02580000  0.24260000  1.0 -0.2416394387
N  N40  1  0.81270000  0.97420000  0.74260000  1.0 -0.2416394387
N  N41  1  0.88040000  0.12590000  0.83790000  1.0 -0.2416394387
N  N42  1  0.11960000  0.87410000  0.33790000  1.0 -0.2416394387
N  N43  1  0.37410000  0.38040000  0.58790000  1.0 -0.2416394387
N  N44  1  0.62590000  0.61960000  0.08790000  1.0 -0.2416394387
N  N45  1  0.61960000  0.62590000  0.91210000  1.0 -0.2416394387
N  N46  1  0.38040000  0.37410000  0.41210000  1.0 -0.2416394387
N  N47  1  0.12590000  0.88040000  0.16210000  1.0 -0.2416394387
N  N48  1  0.87410000  0.11960000  0.66210000  1.0 -0.2416394387
Cl  Cl1  1  0.11860000  0.11860000  0.50000000  1.0 1.0513584896
Cl  Cl2  1  0.88140000  0.88140000  0.00000000  1.0 1.0513584896
Cl  Cl3  1  0.61860000  0.38140000  0.75000000  1.0 1.0513584896
Cl  Cl4  1  0.38140000  0.61860000  0.25000000  1.0 1.0513584896
O  O1  1  0.18420000  0.11400000  0.46290000  1.0 -0.3338221551
O  O2  1  0.11400000  0.18420000  0.53710000  1.0 -0.3338221551
O  O3  1  0.05830000  0.15000000  0.46380000  1.0 -0.3650946037
O  O4  1  0.15000000  0.05830000  0.53620000  1.0 -0.3650946037
O  O5  1  0.81580000  0.88600000  0.96290000  1.0 -0.3338221551
O  O6  1  0.88600000  0.81580000  0.03710000  1.0 -0.3338221551
O  O7  1  0.94170000  0.85000000  0.96380000  1.0 -0.3636346277
O  O8  1  0.85000000  0.94170000  0.03620000  1.0 -0.3636346277
O  O9  1  0.61400000  0.31580000  0.71290000  1.0 -0.3338221551
O  O10  1  0.68420000  0.38600000  0.78710000  1.0 -0.3338221551
O  O11  1  0.65000000  0.44170000  0.71380000  1.0 -0.3636346277
O  O12  1  0.55830000  0.35000000  0.78620000  1.0 -0.3636346277
O  O13  1  0.38600000  0.68420000  0.21290000  1.0 -0.3338221551
O  O14  1  0.31580000  0.61400000  0.28710000  1.0 -0.3338221551
O  O15  1  0.35000000  0.55830000  0.21380000  1.0 -0.3636346277
O  O16  1  0.44170000  0.65000000  0.28620000  1.0 -0.3636346277
