# DDEC6 charges by PACMAN v1.1 (https://github.com/mtap-research/PACMAN-charge/)
data_ITIWIS_ion_pacman
_symmetry_space_group_name_H-M   'P 1'
_cell_length_a   15.87460000
_cell_length_b   15.87460000
_cell_length_c   21.49700000
_cell_angle_alpha   90.00000000
_cell_angle_beta   90.00000000
_cell_angle_gamma   90.00000000
_symmetry_Int_Tables_number   1
_chemical_formula_structural   CdH36C48I6N12ClO4
_chemical_formula_sum   'Cd4 H144 C192 I24 N48 Cl4 O16'
_cell_volume   5417.30688216
_cell_formula_units_Z   4
loop_
 _symmetry_equiv_pos_site_id
 _symmetry_equiv_pos_as_xyz
  1  'x, y, z'
loop_
 _atom_site_type_symbol
 _atom_site_label
 _atom_site_symmetry_multiplicity
 _atom_site_fract_x
 _atom_site_fract_y
 _atom_site_fract_z
 _atom_site_occupancy
 _atom_site_charge
Cd  Cd1  1  0.94086000  0.94086000  0.00000000  1.0 0.6489155221
Cd  Cd2  1  0.05914000  0.05914000  0.50000000  1.0 0.6489155221
Cd  Cd3  1  0.55914000  0.44086000  0.75000000  1.0 0.6489155221
Cd  Cd4  1  0.44086000  0.55914000  0.25000000  1.0 0.6489155221
H  H1  1  0.61210000  0.46160000  0.90150000  1.0 0.1008628073
H  H2  1  0.38790000  0.53840000  0.40150000  1.0 0.1008628073
H  H3  1  0.03840000  0.11210000  0.65150000  1.0 0.1008628073
H  H4  1  0.96160000  0.88790000  0.15150000  1.0 0.1008628073
H  H5  1  0.88790000  0.96160000  0.84850000  1.0 0.1008628073
H  H6  1  0.11210000  0.03840000  0.34850000  1.0 0.1008628073
H  H7  1  0.46160000  0.61210000  0.09850000  1.0 0.1008628073
H  H8  1  0.53840000  0.38790000  0.59850000  1.0 0.1008628073
H  H9  1  0.71380000  0.41000000  0.96910000  1.0 0.1223959069
H  H10  1  0.28620000  0.59000000  0.46910000  1.0 0.1223959069
H  H11  1  0.09000000  0.21380000  0.71910000  1.0 0.1223959069
H  H12  1  0.91000000  0.78620000  0.21910000  1.0 0.1223959069
H  H13  1  0.78620000  0.91000000  0.78090000  1.0 0.1223959069
H  H14  1  0.21380000  0.09000000  0.28090000  1.0 0.1223959069
H  H15  1  0.41000000  0.71380000  0.03090000  1.0 0.1223959069
H  H16  1  0.59000000  0.28620000  0.53090000  1.0 0.1223959069
H  H17  1  0.74260000  0.21190000  0.85210000  1.0 0.1223959069
H  H18  1  0.25740000  0.78810000  0.35210000  1.0 0.1223959069
H  H19  1  0.28810000  0.24260000  0.60210000  1.0 0.1223959069
H  H20  1  0.71190000  0.75740000  0.10210000  1.0 0.1223959069
H  H21  1  0.75740000  0.71190000  0.89790000  1.0 0.1223959069
H  H22  1  0.24260000  0.28810000  0.39790000  1.0 0.1223959069
H  H23  1  0.21190000  0.74260000  0.14790000  1.0 0.1223959069
H  H24  1  0.78810000  0.25740000  0.64790000  1.0 0.1223959069
H  H25  1  0.64170000  0.26940000  0.78950000  1.0 0.0908242057
H  H26  1  0.35830000  0.73060000  0.28950000  1.0 0.0908242057
H  H27  1  0.23060000  0.14170000  0.53950000  1.0 0.0908242057
H  H28  1  0.76940000  0.85830000  0.03950000  1.0 0.0908242057
H  H29  1  0.85830000  0.76940000  0.96050000  1.0 0.0908242057
H  H30  1  0.14170000  0.23060000  0.46050000  1.0 0.0908242057
H  H31  1  0.26940000  0.64170000  0.21050000  1.0 0.0908242057
H  H32  1  0.73060000  0.35830000  0.71050000  1.0 0.0908242057
H  H33  1  0.79910000  0.34650000  0.03260000  1.0 0.0908242057
H  H34  1  0.20090000  0.65350000  0.53260000  1.0 0.0908242057
H  H35  1  0.15350000  0.29910000  0.78260000  1.0 0.0908242057
H  H36  1  0.84650000  0.70090000  0.28260000  1.0 0.0908242057
H  H37  1  0.70090000  0.84650000  0.71740000  1.0 0.0908242057
H  H38  1  0.29910000  0.15350000  0.21740000  1.0 0.0908242057
H  H39  1  0.34650000  0.79910000  0.96740000  1.0 0.0908242057
H  H40  1  0.65350000  0.20090000  0.46740000  1.0 0.0908242057
H  H41  1  0.91320000  0.29640000  0.08750000  1.0 0.1008628073
H  H42  1  0.08680000  0.70360000  0.58750000  1.0 0.1008628073
H  H43  1  0.20360000  0.41320000  0.83750000  1.0 0.1008628073
H  H44  1  0.79640000  0.58680000  0.33750000  1.0 0.1008628073
H  H45  1  0.58680000  0.79640000  0.66250000  1.0 0.1008628073
H  H46  1  0.41320000  0.20360000  0.16250000  1.0 0.1008628073
H  H47  1  0.29640000  0.91320000  0.91250000  1.0 0.1008628073
H  H48  1  0.70360000  0.08680000  0.41250000  1.0 0.1008628073
H  H49  1  0.00580000  0.19900000  0.04290000  1.0 0.1008628073
H  H50  1  0.99420000  0.80100000  0.54290000  1.0 0.1008628073
H  H51  1  0.30100000  0.50580000  0.79290000  1.0 0.1008628073
H  H52  1  0.69900000  0.49420000  0.29290000  1.0 0.1008628073
H  H53  1  0.49420000  0.69900000  0.70710000  1.0 0.1008628073
H  H54  1  0.50580000  0.30100000  0.20710000  1.0 0.1008628073
H  H55  1  0.19900000  0.00580000  0.95710000  1.0 0.1008628073
H  H56  1  0.80100000  0.99420000  0.45710000  1.0 0.1008628073
H  H57  1  0.86220000  0.19700000  0.88750000  1.0 0.110099968
H  H58  1  0.13780000  0.80300000  0.38750000  1.0 0.110099968
H  H59  1  0.30300000  0.36220000  0.63750000  1.0 0.110099968
H  H60  1  0.69700000  0.63780000  0.13750000  1.0 0.110099968
H  H61  1  0.63780000  0.69700000  0.86250000  1.0 0.110099968
H  H62  1  0.36220000  0.30300000  0.36250000  1.0 0.110099968
H  H63  1  0.19700000  0.86220000  0.11250000  1.0 0.110099968
H  H64  1  0.80300000  0.13780000  0.61250000  1.0 0.110099968
H  H65  1  0.12340000  0.95240000  0.79110000  1.0 0.110099968
H  H66  1  0.87660000  0.04760000  0.29110000  1.0 0.110099968
H  H67  1  0.54760000  0.62340000  0.54110000  1.0 0.110099968
H  H68  1  0.45240000  0.37660000  0.04110000  1.0 0.110099968
H  H69  1  0.37660000  0.45240000  0.95890000  1.0 0.110099968
H  H70  1  0.62340000  0.54760000  0.45890000  1.0 0.110099968
H  H71  1  0.95240000  0.12340000  0.20890000  1.0 0.110099968
H  H72  1  0.04760000  0.87660000  0.70890000  1.0 0.110099968
H  H73  1  0.23240000  0.93350000  0.72060000  1.0 0.110099968
H  H74  1  0.76760000  0.06650000  0.22060000  1.0 0.110099968
H  H75  1  0.56650000  0.73240000  0.47060000  1.0 0.110099968
H  H76  1  0.43350000  0.26760000  0.97060000  1.0 0.110099968
H  H77  1  0.26760000  0.43350000  0.02940000  1.0 0.110099968
H  H78  1  0.73240000  0.56650000  0.52940000  1.0 0.110099968
H  H79  1  0.93350000  0.23240000  0.27940000  1.0 0.110099968
H  H80  1  0.06650000  0.76760000  0.77940000  1.0 0.110099968
H  H81  1  0.33860000  0.03470000  0.71120000  1.0 0.1008628073
H  H82  1  0.66140000  0.96530000  0.21120000  1.0 0.1008628073
H  H83  1  0.46530000  0.83860000  0.46120000  1.0 0.1008628073
H  H84  1  0.53470000  0.16140000  0.96120000  1.0 0.1008628073
H  H85  1  0.16140000  0.53470000  0.03880000  1.0 0.1008628073
H  H86  1  0.83860000  0.46530000  0.53880000  1.0 0.1008628073
H  H87  1  0.03470000  0.33860000  0.28880000  1.0 0.1008628073
H  H88  1  0.96530000  0.66140000  0.78880000  1.0 0.1008628073
H  H89  1  0.22380000  0.17410000  0.84400000  1.0 0.1008628073
H  H90  1  0.77620000  0.82590000  0.34400000  1.0 0.1008628073
H  H91  1  0.32590000  0.72380000  0.59400000  1.0 0.1008628073
H  H92  1  0.67410000  0.27620000  0.09400000  1.0 0.1008628073
H  H93  1  0.27620000  0.67410000  0.90600000  1.0 0.1008628073
H  H94  1  0.72380000  0.32590000  0.40600000  1.0 0.1008628073
H  H95  1  0.17410000  0.22380000  0.15600000  1.0 0.1008628073
H  H96  1  0.82590000  0.77620000  0.65600000  1.0 0.1008628073
H  H97  1  0.39340000  0.15460000  0.68290000  1.0 0.110099968
H  H98  1  0.60660000  0.84540000  0.18290000  1.0 0.110099968
H  H99  1  0.34540000  0.89340000  0.43290000  1.0 0.110099968
H  H100  1  0.65460000  0.10660000  0.93290000  1.0 0.110099968
H  H101  1  0.10660000  0.65460000  0.06710000  1.0 0.110099968
H  H102  1  0.89340000  0.34540000  0.56710000  1.0 0.110099968
H  H103  1  0.15460000  0.39340000  0.31710000  1.0 0.110099968
H  H104  1  0.84540000  0.60660000  0.81710000  1.0 0.110099968
H  H105  1  0.48700000  0.26600000  0.67260000  1.0 0.0908242057
H  H106  1  0.51300000  0.73400000  0.17260000  1.0 0.0908242057
H  H107  1  0.23400000  0.98700000  0.42260000  1.0 0.0908242057
H  H108  1  0.76600000  0.01300000  0.92260000  1.0 0.0908242057
H  H109  1  0.01300000  0.76600000  0.07740000  1.0 0.0908242057
H  H110  1  0.98700000  0.23400000  0.57740000  1.0 0.0908242057
H  H111  1  0.26600000  0.48700000  0.32740000  1.0 0.0908242057
H  H112  1  0.73400000  0.51300000  0.82740000  1.0 0.0908242057
H  H113  1  0.44660000  0.33680000  0.84540000  1.0 0.0908242057
H  H114  1  0.55340000  0.66320000  0.34540000  1.0 0.0908242057
H  H115  1  0.16320000  0.94660000  0.59540000  1.0 0.0908242057
H  H116  1  0.83680000  0.05340000  0.09540000  1.0 0.0908242057
H  H117  1  0.05340000  0.83680000  0.90460000  1.0 0.0908242057
H  H118  1  0.94660000  0.16320000  0.40460000  1.0 0.0908242057
H  H119  1  0.33680000  0.44660000  0.15460000  1.0 0.0908242057
H  H120  1  0.66320000  0.55340000  0.65460000  1.0 0.0908242057
H  H121  1  0.35010000  0.22820000  0.85940000  1.0 0.1258750486
H  H122  1  0.64990000  0.77180000  0.35940000  1.0 0.1258750486
H  H123  1  0.27180000  0.85010000  0.60940000  1.0 0.1258750486
H  H124  1  0.72820000  0.14990000  0.10940000  1.0 0.1258750486
H  H125  1  0.14990000  0.72820000  0.89060000  1.0 0.1258750486
H  H126  1  0.85010000  0.27180000  0.39060000  1.0 0.1258750486
H  H127  1  0.22820000  0.35010000  0.14060000  1.0 0.1258750486
H  H128  1  0.77180000  0.64990000  0.64060000  1.0 0.1258750486
H  H129  1  0.03130000  0.25350000  0.85390000  1.0 0.2568322944
H  H130  1  0.96870000  0.74650000  0.35390000  1.0 0.2568322944
H  H131  1  0.24650000  0.53130000  0.60390000  1.0 0.2568322944
H  H132  1  0.75350000  0.46870000  0.10390000  1.0 0.2568322944
H  H133  1  0.46870000  0.75350000  0.89610000  1.0 0.2568322944
H  H134  1  0.53130000  0.24650000  0.39610000  1.0 0.2568322944
H  H135  1  0.25350000  0.03130000  0.14610000  1.0 0.2568322944
H  H136  1  0.74650000  0.96870000  0.64610000  1.0 0.2568322944
H  H137  1  0.09710000  0.25980000  0.90280000  1.0 0.2568322944
H  H138  1  0.90290000  0.74020000  0.40280000  1.0 0.2568322944
H  H139  1  0.24020000  0.59710000  0.65280000  1.0 0.2568322944
H  H140  1  0.75980000  0.40290000  0.15280000  1.0 0.2568322944
H  H141  1  0.40290000  0.75980000  0.84720000  1.0 0.2568322944
H  H142  1  0.59710000  0.24020000  0.34720000  1.0 0.2568322944
H  H143  1  0.25980000  0.09710000  0.09720000  1.0 0.2568322944
H  H144  1  0.74020000  0.90290000  0.59720000  1.0 0.2568322944
C  C1  1  0.64060000  0.41100000  0.89070000  1.0 0.0825457091
C  C2  1  0.35940000  0.58900000  0.39070000  1.0 0.0825457091
C  C3  1  0.08900000  0.14060000  0.64070000  1.0 0.0825457091
C  C4  1  0.91100000  0.85940000  0.14070000  1.0 0.0825457091
C  C5  1  0.85940000  0.91100000  0.85930000  1.0 0.0825457091
C  C6  1  0.14060000  0.08900000  0.35930000  1.0 0.0825457091
C  C7  1  0.41100000  0.64060000  0.10930000  1.0 0.0825457091
C  C8  1  0.58900000  0.35940000  0.60930000  1.0 0.0825457091
C  C9  1  0.70200000  0.38090000  0.93140000  1.0 -0.1967493666
C  C10  1  0.29800000  0.61910000  0.43140000  1.0 -0.1967493666
C  C11  1  0.11910000  0.20200000  0.68140000  1.0 -0.1967493666
C  C12  1  0.88090000  0.79800000  0.18140000  1.0 -0.1967493666
C  C13  1  0.79800000  0.88090000  0.81860000  1.0 -0.1967493666
C  C14  1  0.20200000  0.11910000  0.31860000  1.0 -0.1967493666
C  C15  1  0.38090000  0.70200000  0.06860000  1.0 -0.1967493666
C  C16  1  0.61910000  0.29800000  0.56860000  1.0 -0.1967493666
C  C17  1  0.74580000  0.30780000  0.91620000  1.0 0.1223959069
C  C18  1  0.25420000  0.69220000  0.41620000  1.0 0.1223959069
C  C19  1  0.19220000  0.24580000  0.66620000  1.0 0.1223959069
C  C20  1  0.80780000  0.75420000  0.16620000  1.0 0.1223959069
C  C21  1  0.75420000  0.80780000  0.83380000  1.0 0.1223959069
C  C22  1  0.24580000  0.19220000  0.33380000  1.0 0.1223959069
C  C23  1  0.30780000  0.74580000  0.08380000  1.0 0.1223959069
C  C24  1  0.69220000  0.25420000  0.58380000  1.0 0.1223959069
C  C25  1  0.71870000  0.26480000  0.86260000  1.0 -0.1887444702
C  C26  1  0.28130000  0.73520000  0.36260000  1.0 -0.1887444702
C  C27  1  0.23520000  0.21870000  0.61260000  1.0 -0.1887444702
C  C28  1  0.76480000  0.78130000  0.11260000  1.0 -0.1887444702
C  C29  1  0.78130000  0.76480000  0.88740000  1.0 -0.1887444702
C  C30  1  0.21870000  0.23520000  0.38740000  1.0 -0.1887444702
C  C31  1  0.26480000  0.71870000  0.13740000  1.0 -0.1887444702
C  C32  1  0.73520000  0.28130000  0.63740000  1.0 -0.1887444702
C  C33  1  0.65800000  0.29930000  0.82580000  1.0 0.0379291329
C  C34  1  0.34200000  0.70070000  0.32580000  1.0 0.0379291329
C  C35  1  0.20070000  0.15800000  0.57580000  1.0 0.0379291329
C  C36  1  0.79930000  0.84200000  0.07580000  1.0 0.0379291329
C  C37  1  0.84200000  0.79930000  0.92420000  1.0 0.0379291329
C  C38  1  0.15800000  0.20070000  0.42420000  1.0 0.0379291329
C  C39  1  0.29930000  0.65800000  0.17420000  1.0 0.0379291329
C  C40  1  0.70070000  0.34200000  0.67420000  1.0 0.0379291329
C  C41  1  0.81830000  0.27660000  0.95320000  1.0 0.0701008914
C  C42  1  0.18170000  0.72340000  0.45320000  1.0 0.0701008914
C  C43  1  0.22340000  0.31830000  0.70320000  1.0 0.0701008914
C  C44  1  0.77660000  0.68170000  0.20320000  1.0 0.0701008914
C  C45  1  0.68170000  0.77660000  0.79680000  1.0 0.0701008914
C  C46  1  0.31830000  0.22340000  0.29680000  1.0 0.0701008914
C  C47  1  0.27660000  0.81830000  0.04680000  1.0 0.0701008914
C  C48  1  0.72340000  0.18170000  0.54680000  1.0 0.0701008914
C  C49  1  0.83520000  0.30600000  0.01400000  1.0 -0.1664437276
C  C50  1  0.16480000  0.69400000  0.51400000  1.0 -0.1664437276
C  C51  1  0.19400000  0.33520000  0.76400000  1.0 -0.1664437276
C  C52  1  0.80600000  0.66480000  0.26400000  1.0 -0.1664437276
C  C53  1  0.66480000  0.80600000  0.73600000  1.0 -0.1664437276
C  C54  1  0.33520000  0.19400000  0.23600000  1.0 -0.1664437276
C  C55  1  0.30600000  0.83520000  0.98600000  1.0 -0.1664437276
C  C56  1  0.69400000  0.16480000  0.48600000  1.0 -0.1664437276
C  C57  1  0.90320000  0.27650000  0.04640000  1.0 -0.1053297144
C  C58  1  0.09680000  0.72350000  0.54640000  1.0 -0.1053297144
C  C59  1  0.22350000  0.40320000  0.79640000  1.0 -0.1053297144
C  C60  1  0.77650000  0.59680000  0.29640000  1.0 -0.1053297144
C  C61  1  0.59680000  0.77650000  0.70360000  1.0 -0.1053297144
C  C62  1  0.40320000  0.22350000  0.20360000  1.0 -0.1053297144
C  C63  1  0.27650000  0.90320000  0.95360000  1.0 -0.1053297144
C  C64  1  0.72350000  0.09680000  0.45360000  1.0 -0.1053297144
C  C65  1  0.95800000  0.21820000  0.02050000  1.0 -0.1561046364
C  C66  1  0.04200000  0.78180000  0.52050000  1.0 -0.1561046364
C  C67  1  0.28180000  0.45800000  0.77050000  1.0 -0.1561046364
C  C68  1  0.71820000  0.54200000  0.27050000  1.0 -0.1561046364
C  C69  1  0.54200000  0.71820000  0.72950000  1.0 -0.1561046364
C  C70  1  0.45800000  0.28180000  0.22950000  1.0 -0.1561046364
C  C71  1  0.21820000  0.95800000  0.97950000  1.0 -0.1561046364
C  C72  1  0.78180000  0.04200000  0.47950000  1.0 -0.1561046364
C  C73  1  0.94120000  0.18840000  0.96090000  1.0 0.0120994883
C  C74  1  0.05880000  0.81160000  0.46090000  1.0 0.0120994883
C  C75  1  0.31160000  0.44120000  0.71090000  1.0 0.0120994883
C  C76  1  0.68840000  0.55880000  0.21090000  1.0 0.0120994883
C  C77  1  0.55880000  0.68840000  0.78910000  1.0 0.0120994883
C  C78  1  0.44120000  0.31160000  0.28910000  1.0 0.0120994883
C  C79  1  0.18840000  0.94120000  0.03910000  1.0 0.0120994883
C  C80  1  0.81160000  0.05880000  0.53910000  1.0 0.0120994883
C  C81  1  0.87250000  0.21780000  0.92820000  1.0 -0.1805992878
C  C82  1  0.12750000  0.78220000  0.42820000  1.0 -0.1805992878
C  C83  1  0.28220000  0.37250000  0.67820000  1.0 -0.1805992878
C  C84  1  0.71780000  0.62750000  0.17820000  1.0 -0.1805992878
C  C85  1  0.62750000  0.71780000  0.82180000  1.0 -0.1805992878
C  C86  1  0.37250000  0.28220000  0.32180000  1.0 -0.1805992878
C  C87  1  0.21780000  0.87250000  0.07180000  1.0 -0.1805992878
C  C88  1  0.78220000  0.12750000  0.57180000  1.0 -0.1805992878
C  C89  1  0.99750000  0.12520000  0.93020000  1.0 0.1919346827
C  C90  1  0.00250000  0.87480000  0.43020000  1.0 0.1919346827
C  C91  1  0.37480000  0.49750000  0.68020000  1.0 0.1919346827
C  C92  1  0.62520000  0.50250000  0.18020000  1.0 0.1919346827
C  C93  1  0.50250000  0.62520000  0.81980000  1.0 0.1919346827
C  C94  1  0.49750000  0.37480000  0.31980000  1.0 0.1919346827
C  C95  1  0.12520000  0.99750000  0.06980000  1.0 0.1919346827
C  C96  1  0.87480000  0.00250000  0.56980000  1.0 0.1919346827
C  C97  1  0.09260000  0.07460000  0.86810000  1.0 0.1919346827
C  C98  1  0.90740000  0.92540000  0.36810000  1.0 0.1919346827
C  C99  1  0.42540000  0.59260000  0.61810000  1.0 0.1919346827
C  C100  1  0.57460000  0.40740000  0.11810000  1.0 0.1919346827
C  C101  1  0.40740000  0.57460000  0.88190000  1.0 0.1919346827
C  C102  1  0.59260000  0.42540000  0.38190000  1.0 0.1919346827
C  C103  1  0.07460000  0.09260000  0.13190000  1.0 0.1919346827
C  C104  1  0.92540000  0.90740000  0.63190000  1.0 0.1919346827
C  C105  1  0.16330000  0.06540000  0.82400000  1.0 0.0379291329
C  C106  1  0.83670000  0.93460000  0.32400000  1.0 0.0379291329
C  C107  1  0.43460000  0.66330000  0.57400000  1.0 0.0379291329
C  C108  1  0.56540000  0.33670000  0.07400000  1.0 0.0379291329
C  C109  1  0.33670000  0.56540000  0.92600000  1.0 0.0379291329
C  C110  1  0.66330000  0.43460000  0.42600000  1.0 0.0379291329
C  C111  1  0.06540000  0.16330000  0.17600000  1.0 0.0379291329
C  C112  1  0.93460000  0.83670000  0.67600000  1.0 0.0379291329
C  C113  1  0.16630000  0.99390000  0.78740000  1.0 -0.1420337183
C  C114  1  0.83370000  0.00610000  0.28740000  1.0 -0.1420337183
C  C115  1  0.50610000  0.66630000  0.53740000  1.0 -0.1420337183
C  C116  1  0.49390000  0.33370000  0.03740000  1.0 -0.1420337183
C  C117  1  0.33370000  0.49390000  0.96260000  1.0 -0.1420337183
C  C118  1  0.66630000  0.50610000  0.46260000  1.0 -0.1420337183
C  C119  1  0.99390000  0.16630000  0.21260000  1.0 -0.1420337183
C  C120  1  0.00610000  0.83370000  0.71260000  1.0 -0.1420337183
C  C121  1  0.23110000  0.98250000  0.74590000  1.0 -0.0971397373
C  C122  1  0.76890000  0.01750000  0.24590000  1.0 -0.0971397373
C  C123  1  0.51750000  0.73110000  0.49590000  1.0 -0.0971397373
C  C124  1  0.48250000  0.26890000  0.99590000  1.0 -0.0971397373
C  C125  1  0.26890000  0.48250000  0.00410000  1.0 -0.0971397373
C  C126  1  0.73110000  0.51750000  0.50410000  1.0 -0.0971397373
C  C127  1  0.98250000  0.23110000  0.25410000  1.0 -0.0971397373
C  C128  1  0.01750000  0.76890000  0.75410000  1.0 -0.0971397373
C  C129  1  0.29450000  0.04230000  0.74060000  1.0 -0.1545569074
C  C130  1  0.70550000  0.95770000  0.24060000  1.0 -0.1561046364
C  C131  1  0.45770000  0.79450000  0.49060000  1.0 -0.1561046364
C  C132  1  0.54230000  0.20550000  0.99060000  1.0 -0.1561046364
C  C133  1  0.20550000  0.54230000  0.00940000  1.0 -0.1561046364
C  C134  1  0.79450000  0.45770000  0.50940000  1.0 -0.1561046364
C  C135  1  0.04230000  0.29450000  0.25940000  1.0 -0.1561046364
C  C136  1  0.95770000  0.70550000  0.75940000  1.0 -0.1561046364
C  C137  1  0.29330000  0.11360000  0.77870000  1.0 0.0701008914
C  C138  1  0.70670000  0.88640000  0.27870000  1.0 0.0701008914
C  C139  1  0.38640000  0.79330000  0.52870000  1.0 0.0701008914
C  C140  1  0.61360000  0.20670000  0.02870000  1.0 0.0701008914
C  C141  1  0.20670000  0.61360000  0.97130000  1.0 0.0701008914
C  C142  1  0.79330000  0.38640000  0.47130000  1.0 0.0701008914
C  C143  1  0.11360000  0.29330000  0.22130000  1.0 0.0701008914
C  C144  1  0.88640000  0.70670000  0.72130000  1.0 0.0701008914
C  C145  1  0.22630000  0.12470000  0.81920000  1.0 -0.1805992878
C  C146  1  0.77370000  0.87530000  0.31920000  1.0 -0.1805992878
C  C147  1  0.37530000  0.72630000  0.56920000  1.0 -0.1805992878
C  C148  1  0.62470000  0.27370000  0.06920000  1.0 -0.1805992878
C  C149  1  0.27370000  0.62470000  0.93080000  1.0 -0.1805992878
C  C150  1  0.72630000  0.37530000  0.43080000  1.0 -0.1805992878
C  C151  1  0.12470000  0.22630000  0.18080000  1.0 -0.1805992878
C  C152  1  0.87530000  0.77370000  0.68080000  1.0 -0.1805992878
C  C153  1  0.35920000  0.18020000  0.77210000  1.0 0.110099968
C  C154  1  0.64080000  0.81980000  0.27210000  1.0 0.110099968
C  C155  1  0.31980000  0.85920000  0.52210000  1.0 0.110099968
C  C156  1  0.68020000  0.14080000  0.02210000  1.0 0.110099968
C  C157  1  0.14080000  0.68020000  0.97790000  1.0 0.110099968
C  C158  1  0.85920000  0.31980000  0.47790000  1.0 0.110099968
C  C159  1  0.18020000  0.35920000  0.22790000  1.0 0.110099968
C  C160  1  0.81980000  0.64080000  0.72790000  1.0 0.110099968
C  C161  1  0.40230000  0.19190000  0.71680000  1.0 -0.1887444702
C  C162  1  0.59770000  0.80810000  0.21680000  1.0 -0.1887444702
C  C163  1  0.30810000  0.90230000  0.46680000  1.0 -0.1887444702
C  C164  1  0.69190000  0.09770000  0.96680000  1.0 -0.1887444702
C  C165  1  0.09770000  0.69190000  0.03320000  1.0 -0.1887444702
C  C166  1  0.90230000  0.30810000  0.53320000  1.0 -0.1887444702
C  C167  1  0.19190000  0.40230000  0.28320000  1.0 -0.1887444702
C  C168  1  0.80810000  0.59770000  0.78320000  1.0 -0.1887444702
C  C169  1  0.45860000  0.25850000  0.71110000  1.0 0.0701008914
C  C170  1  0.54140000  0.74150000  0.21110000  1.0 0.0701008914
C  C171  1  0.24150000  0.95860000  0.46110000  1.0 0.0701008914
C  C172  1  0.75850000  0.04140000  0.96110000  1.0 0.0701008914
C  C173  1  0.04140000  0.75850000  0.03890000  1.0 0.0701008914
C  C174  1  0.95860000  0.24150000  0.53890000  1.0 0.0701008914
C  C175  1  0.25850000  0.45860000  0.28890000  1.0 0.0701008914
C  C176  1  0.74150000  0.54140000  0.78890000  1.0 0.0701008914
C  C177  1  0.43500000  0.30000000  0.81160000  1.0 0.0825457091
C  C178  1  0.56500000  0.70000000  0.31160000  1.0 0.0825457091
C  C179  1  0.20000000  0.93500000  0.56160000  1.0 0.0825457091
C  C180  1  0.80000000  0.06500000  0.06160000  1.0 0.0825457091
C  C181  1  0.06500000  0.80000000  0.93840000  1.0 0.0825457091
C  C182  1  0.93500000  0.20000000  0.43840000  1.0 0.0825457091
C  C183  1  0.30000000  0.43500000  0.18840000  1.0 0.0825457091
C  C184  1  0.70000000  0.56500000  0.68840000  1.0 0.0825457091
C  C185  1  0.37720000  0.23490000  0.82030000  1.0 -0.1967493666
C  C186  1  0.62280000  0.76510000  0.32030000  1.0 -0.1967493666
C  C187  1  0.26510000  0.87720000  0.57030000  1.0 -0.1967493666
C  C188  1  0.73490000  0.12280000  0.07030000  1.0 -0.1967493666
C  C189  1  0.12280000  0.73490000  0.92970000  1.0 -0.1967493666
C  C190  1  0.87720000  0.26510000  0.42970000  1.0 -0.1967493666
C  C191  1  0.23490000  0.37720000  0.17970000  1.0 -0.1967493666
C  C192  1  0.76510000  0.62280000  0.67970000  1.0 -0.1967493666
I  I1  1  0.04930000  0.63190000  0.21917000  1.0 -0.0675101636
I  I2  1  0.95950000  0.49130000  0.20880000  1.0 0.0120994883
I  I3  1  0.97740000  0.51380000  0.14770000  1.0 -0.0038479067
I  I4  1  0.95070000  0.36810000  0.71917000  1.0 -0.0675101636
I  I5  1  0.04050000  0.50870000  0.70880000  1.0 0.0120994883
I  I6  1  0.02260000  0.48620000  0.64770000  1.0 -0.0038479067
I  I7  1  0.86810000  0.54930000  0.96917000  1.0 -0.0675101636
I  I8  1  0.00870000  0.45950000  0.95880000  1.0 0.0120994883
I  I9  1  0.98620000  0.47740000  0.89770000  1.0 -0.0038479067
I  I10  1  0.13190000  0.45070000  0.46917000  1.0 -0.0675101636
I  I11  1  0.99130000  0.54050000  0.45880000  1.0 0.0120994883
I  I12  1  0.01380000  0.52260000  0.39770000  1.0 -0.0038479067
I  I13  1  0.45070000  0.13190000  0.53083000  1.0 -0.0675101636
I  I14  1  0.54050000  0.99130000  0.54120000  1.0 0.0120994883
I  I15  1  0.52260000  0.01380000  0.60230000  1.0 -0.0038479067
I  I16  1  0.54930000  0.86810000  0.03083000  1.0 -0.0675101636
I  I17  1  0.45950000  0.00870000  0.04120000  1.0 0.0120994883
I  I18  1  0.47740000  0.98620000  0.10230000  1.0 -0.0038479067
I  I19  1  0.63190000  0.04930000  0.78083000  1.0 -0.0675101636
I  I20  1  0.49130000  0.95950000  0.79120000  1.0 0.0120994883
I  I21  1  0.51380000  0.97740000  0.85230000  1.0 -0.0038479067
I  I22  1  0.36810000  0.95070000  0.28083000  1.0 -0.0675101636
I  I23  1  0.50870000  0.04050000  0.29120000  1.0 0.0120994883
I  I24  1  0.48620000  0.02260000  0.35230000  1.0 -0.0038479067
N  N1  1  0.99310000  0.04320000  0.93280000  1.0 -0.225774381
N  N2  1  0.00690000  0.95680000  0.43280000  1.0 -0.225774381
N  N3  1  0.45680000  0.49310000  0.68280000  1.0 -0.225774381
N  N4  1  0.54320000  0.50690000  0.18280000  1.0 -0.225774381
N  N5  1  0.50690000  0.54320000  0.81720000  1.0 -0.225774381
N  N6  1  0.49310000  0.45680000  0.31720000  1.0 -0.225774381
N  N7  1  0.04320000  0.99310000  0.06720000  1.0 -0.225774381
N  N8  1  0.95680000  0.00690000  0.56720000  1.0 -0.225774381
N  N9  1  0.05380000  0.01070000  0.89400000  1.0 -0.2633476031
N  N10  1  0.94620000  0.98930000  0.39400000  1.0 -0.2633476031
N  N11  1  0.48930000  0.55380000  0.64400000  1.0 -0.2633476031
N  N12  1  0.51070000  0.44620000  0.14400000  1.0 -0.2633476031
N  N13  1  0.44620000  0.51070000  0.85600000  1.0 -0.2633476031
N  N14  1  0.55380000  0.48930000  0.35600000  1.0 -0.2633476031
N  N15  1  0.01070000  0.05380000  0.10600000  1.0 -0.2633476031
N  N16  1  0.98930000  0.94620000  0.60600000  1.0 -0.2633476031
N  N17  1  0.05870000  0.14680000  0.89024000  1.0 0.0624123144
N  N18  1  0.94130000  0.85320000  0.39024000  1.0 0.0624123144
N  N19  1  0.35320000  0.55870000  0.64024000  1.0 0.0624123144
N  N20  1  0.64680000  0.44130000  0.14024000  1.0 0.0624123144
N  N21  1  0.44130000  0.64680000  0.85976000  1.0 0.0624123144
N  N22  1  0.55870000  0.35320000  0.35976000  1.0 0.0624123144
N  N23  1  0.14680000  0.05870000  0.10976000  1.0 0.0624123144
N  N24  1  0.85320000  0.94130000  0.60976000  1.0 0.0624123144
N  N25  1  0.07830000  0.22890000  0.86990000  1.0 -0.4970108044
N  N26  1  0.92170000  0.77110000  0.36990000  1.0 -0.4970108044
N  N27  1  0.27110000  0.57830000  0.61990000  1.0 -0.4970108044
N  N28  1  0.72890000  0.42170000  0.11990000  1.0 -0.4970108044
N  N29  1  0.42170000  0.72890000  0.88010000  1.0 -0.4970108044
N  N30  1  0.57830000  0.27110000  0.38010000  1.0 -0.4970108044
N  N31  1  0.22890000  0.07830000  0.13010000  1.0 -0.4970108044
N  N32  1  0.77110000  0.92170000  0.63010000  1.0 -0.4970108044
N  N33  1  0.61950000  0.37370000  0.83790000  1.0 -0.2407569752
N  N34  1  0.38050000  0.62630000  0.33790000  1.0 -0.2407569752
N  N35  1  0.12630000  0.11950000  0.58790000  1.0 -0.2407569752
N  N36  1  0.87370000  0.88050000  0.08790000  1.0 -0.2407569752
N  N37  1  0.88050000  0.87370000  0.91210000  1.0 -0.2407569752
N  N38  1  0.11950000  0.12630000  0.41210000  1.0 -0.2407569752
N  N39  1  0.37370000  0.61950000  0.16210000  1.0 -0.2407569752
N  N40  1  0.62630000  0.38050000  0.66210000  1.0 -0.2407569752
N  N41  1  0.47470000  0.31270000  0.75760000  1.0 -0.2471959365
N  N42  1  0.52530000  0.68730000  0.25760000  1.0 -0.2471959365
N  N43  1  0.18730000  0.97470000  0.50760000  1.0 -0.2471959365
N  N44  1  0.81270000  0.02530000  0.00760000  1.0 -0.2471959365
N  N45  1  0.02530000  0.81270000  0.99240000  1.0 -0.2471959365
N  N46  1  0.97470000  0.18730000  0.49240000  1.0 -0.2471959365
N  N47  1  0.31270000  0.47470000  0.24240000  1.0 -0.2471959365
N  N48  1  0.68730000  0.52530000  0.74240000  1.0 -0.2471959365
Cl  Cl1  1  0.38155000  0.38155000  0.50000000  1.0 1.0811526406
Cl  Cl2  1  0.61845000  0.61845000  0.00000000  1.0 1.0811526406
Cl  Cl3  1  0.88155000  0.11845000  0.75000000  1.0 1.0811526406
Cl  Cl4  1  0.11845000  0.88155000  0.25000000  1.0 1.0811526406
O  O1  1  0.31430000  0.38720000  0.46320000  1.0 -0.3705494103
O  O2  1  0.38720000  0.31430000  0.53680000  1.0 -0.3705494103
O  O3  1  0.44440000  0.37100000  0.46520000  1.0 -0.3404630196
O  O4  1  0.37100000  0.44440000  0.53480000  1.0 -0.3404630196
O  O5  1  0.68570000  0.61280000  0.96320000  1.0 -0.3705494103
O  O6  1  0.61280000  0.68570000  0.03680000  1.0 -0.3705494103
O  O7  1  0.55560000  0.62900000  0.96520000  1.0 -0.3404630196
O  O8  1  0.62900000  0.55560000  0.03480000  1.0 -0.3404630196
O  O9  1  0.88720000  0.18570000  0.71320000  1.0 -0.3705494103
O  O10  1  0.81430000  0.11280000  0.78680000  1.0 -0.3705494103
O  O11  1  0.87100000  0.05560000  0.71520000  1.0 -0.3404630196
O  O12  1  0.94440000  0.12900000  0.78480000  1.0 -0.3404630196
O  O13  1  0.11280000  0.81430000  0.21320000  1.0 -0.3705494103
O  O14  1  0.18570000  0.88720000  0.28680000  1.0 -0.3705494103
O  O15  1  0.12900000  0.94440000  0.21520000  1.0 -0.3404630196
O  O16  1  0.05560000  0.87100000  0.28480000  1.0 -0.3404630196
