# DDEC6 charges by PACMAN v1.1 (https://github.com/mtap-research/PACMAN-charge/)
data_ITIWUE_ion_pacman
_symmetry_space_group_name_H-M   'P 1'
_cell_length_a   15.87740000
_cell_length_b   15.87740000
_cell_length_c   21.54200000
_cell_angle_alpha   90.00000000
_cell_angle_beta   90.00000000
_cell_angle_gamma   90.00000000
_symmetry_Int_Tables_number   1
_chemical_formula_structural   CdH36C48I6N12ClO4
_chemical_formula_sum   'Cd4 H144 C192 I24 N48 Cl4 O16'
_cell_volume   5430.56221823
_cell_formula_units_Z   4
loop_
 _symmetry_equiv_pos_site_id
 _symmetry_equiv_pos_as_xyz
  1  'x, y, z'
loop_
 _atom_site_type_symbol
 _atom_site_label
 _atom_site_symmetry_multiplicity
 _atom_site_fract_x
 _atom_site_fract_y
 _atom_site_fract_z
 _atom_site_occupancy
 _atom_site_charge
Cd  Cd1  1  0.94116000  0.05884000  0.25000000  1.0 0.6462800969
Cd  Cd2  1  0.05884000  0.94116000  0.75000000  1.0 0.6462800969
Cd  Cd3  1  0.44116000  0.44116000  0.00000000  1.0 0.6462800969
Cd  Cd4  1  0.55884000  0.55884000  0.50000000  1.0 0.6462800969
H  H1  1  0.61090000  0.53840000  0.34850000  1.0 0.1015891787
H  H2  1  0.38910000  0.46160000  0.84850000  1.0 0.1015891787
H  H3  1  0.96160000  0.11090000  0.09850000  1.0 0.1015891787
H  H4  1  0.03840000  0.88910000  0.59850000  1.0 0.1015891787
H  H5  1  0.88910000  0.03840000  0.40150000  1.0 0.1015891787
H  H6  1  0.11090000  0.96160000  0.90150000  1.0 0.1015891787
H  H7  1  0.53840000  0.61090000  0.65150000  1.0 0.1015891787
H  H8  1  0.46160000  0.38910000  0.15150000  1.0 0.1015891787
H  H9  1  0.71390000  0.58870000  0.28180000  1.0 0.1196092759
H  H10  1  0.28610000  0.41130000  0.78180000  1.0 0.1196092759
H  H11  1  0.91130000  0.21390000  0.03180000  1.0 0.1196092759
H  H12  1  0.08870000  0.78610000  0.53180000  1.0 0.1196092759
H  H13  1  0.78610000  0.08870000  0.46820000  1.0 0.1196092759
H  H14  1  0.21390000  0.91130000  0.96820000  1.0 0.1196092759
H  H15  1  0.58870000  0.71390000  0.71820000  1.0 0.1196092759
H  H16  1  0.41130000  0.28610000  0.21820000  1.0 0.1196092759
H  H17  1  0.74380000  0.78730000  0.39790000  1.0 0.1196092759
H  H18  1  0.25620000  0.21270000  0.89790000  1.0 0.1196092759
H  H19  1  0.71270000  0.24380000  0.14790000  1.0 0.1196092759
H  H20  1  0.28730000  0.75620000  0.64790000  1.0 0.1196092759
H  H21  1  0.75620000  0.28730000  0.35210000  1.0 0.1196092759
H  H22  1  0.24380000  0.71270000  0.85210000  1.0 0.1196092759
H  H23  1  0.78730000  0.74380000  0.60210000  1.0 0.1196092759
H  H24  1  0.21270000  0.25620000  0.10210000  1.0 0.1196092759
H  H25  1  0.64170000  0.72850000  0.46080000  1.0 0.091426514
H  H26  1  0.35830000  0.27150000  0.96080000  1.0 0.091426514
H  H27  1  0.77150000  0.14170000  0.21080000  1.0 0.091426514
H  H28  1  0.22850000  0.85830000  0.71080000  1.0 0.091426514
H  H29  1  0.85830000  0.22850000  0.28920000  1.0 0.091426514
H  H30  1  0.14170000  0.77150000  0.78920000  1.0 0.091426514
H  H31  1  0.72850000  0.64170000  0.53920000  1.0 0.091426514
H  H32  1  0.27150000  0.35830000  0.03920000  1.0 0.091426514
H  H33  1  0.79830000  0.65370000  0.21700000  1.0 0.091426514
H  H34  1  0.20170000  0.34630000  0.71700000  1.0 0.091426514
H  H35  1  0.84630000  0.29830000  0.96700000  1.0 0.091426514
H  H36  1  0.15370000  0.70170000  0.46700000  1.0 0.091426514
H  H37  1  0.70170000  0.15370000  0.53300000  1.0 0.091426514
H  H38  1  0.29830000  0.84630000  0.03300000  1.0 0.091426514
H  H39  1  0.65370000  0.79830000  0.78300000  1.0 0.091426514
H  H40  1  0.34630000  0.20170000  0.28300000  1.0 0.091426514
H  H41  1  0.91190000  0.70160000  0.16300000  1.0 0.1015891787
H  H42  1  0.08810000  0.29840000  0.66300000  1.0 0.1015891787
H  H43  1  0.79840000  0.41190000  0.91300000  1.0 0.1015891787
H  H44  1  0.20160000  0.58810000  0.41300000  1.0 0.1015891787
H  H45  1  0.58810000  0.20160000  0.58700000  1.0 0.1015891787
H  H46  1  0.41190000  0.79840000  0.08700000  1.0 0.1015891787
H  H47  1  0.70160000  0.91190000  0.83700000  1.0 0.1015891787
H  H48  1  0.29840000  0.08810000  0.33700000  1.0 0.1015891787
H  H49  1  0.00540000  0.80020000  0.20650000  1.0 0.1015891787
H  H50  1  0.99460000  0.19980000  0.70650000  1.0 0.1015891787
H  H51  1  0.69980000  0.50540000  0.95650000  1.0 0.1015891787
H  H52  1  0.30020000  0.49460000  0.45650000  1.0 0.1015891787
H  H53  1  0.49460000  0.30020000  0.54350000  1.0 0.1015891787
H  H54  1  0.50540000  0.69980000  0.04350000  1.0 0.1015891787
H  H55  1  0.80020000  0.00540000  0.79350000  1.0 0.1015891787
H  H56  1  0.19980000  0.99460000  0.29350000  1.0 0.1015891787
H  H57  1  0.86220000  0.80240000  0.36270000  1.0 0.1015891787
H  H58  1  0.13780000  0.19760000  0.86270000  1.0 0.1015891787
H  H59  1  0.69760000  0.36220000  0.11270000  1.0 0.1015891787
H  H60  1  0.30240000  0.63780000  0.61270000  1.0 0.1015891787
H  H61  1  0.63780000  0.30240000  0.38730000  1.0 0.1015891787
H  H62  1  0.36220000  0.69760000  0.88730000  1.0 0.1015891787
H  H63  1  0.80240000  0.86220000  0.63730000  1.0 0.1015891787
H  H64  1  0.19760000  0.13780000  0.13730000  1.0 0.1015891787
H  H65  1  0.12190000  0.04580000  0.45950000  1.0 0.111268925
H  H66  1  0.87810000  0.95420000  0.95950000  1.0 0.111268925
H  H67  1  0.45420000  0.62190000  0.20950000  1.0 0.111268925
H  H68  1  0.54580000  0.37810000  0.70950000  1.0 0.111268925
H  H69  1  0.37810000  0.54580000  0.29050000  1.0 0.111268925
H  H70  1  0.62190000  0.45420000  0.79050000  1.0 0.111268925
H  H71  1  0.04580000  0.12190000  0.54050000  1.0 0.111268925
H  H72  1  0.95420000  0.87810000  0.04050000  1.0 0.111268925
H  H73  1  0.23290000  0.06690000  0.52720000  1.0 0.111268925
H  H74  1  0.76710000  0.93310000  0.02720000  1.0 0.111268925
H  H75  1  0.43310000  0.73290000  0.27720000  1.0 0.111268925
H  H76  1  0.56690000  0.26710000  0.77720000  1.0 0.111268925
H  H77  1  0.26710000  0.56690000  0.22280000  1.0 0.111268925
H  H78  1  0.73290000  0.43310000  0.72280000  1.0 0.111268925
H  H79  1  0.06690000  0.23290000  0.47280000  1.0 0.111268925
H  H80  1  0.93310000  0.76710000  0.97280000  1.0 0.111268925
H  H81  1  0.33550000  0.96270000  0.54080000  1.0 0.091426514
H  H82  1  0.66450000  0.03730000  0.04080000  1.0 0.091426514
H  H83  1  0.53730000  0.83550000  0.29080000  1.0 0.091426514
H  H84  1  0.46270000  0.16450000  0.79080000  1.0 0.091426514
H  H85  1  0.16450000  0.46270000  0.20920000  1.0 0.091426514
H  H86  1  0.83550000  0.53730000  0.70920000  1.0 0.091426514
H  H87  1  0.96270000  0.33550000  0.45920000  1.0 0.091426514
H  H88  1  0.03730000  0.66450000  0.95920000  1.0 0.091426514
H  H89  1  0.22380000  0.82490000  0.40540000  1.0 0.1015891787
H  H90  1  0.77620000  0.17510000  0.90540000  1.0 0.1015891787
H  H91  1  0.67510000  0.72380000  0.15540000  1.0 0.1015891787
H  H92  1  0.32490000  0.27620000  0.65540000  1.0 0.1015891787
H  H93  1  0.27620000  0.32490000  0.34460000  1.0 0.1015891787
H  H94  1  0.72380000  0.67510000  0.84460000  1.0 0.1015891787
H  H95  1  0.82490000  0.22380000  0.59460000  1.0 0.1015891787
H  H96  1  0.17510000  0.77620000  0.09460000  1.0 0.1015891787
H  H97  1  0.39320000  0.84460000  0.56730000  1.0 0.111268925
H  H98  1  0.60680000  0.15540000  0.06730000  1.0 0.111268925
H  H99  1  0.65540000  0.89320000  0.31730000  1.0 0.111268925
H  H100  1  0.34460000  0.10680000  0.81730000  1.0 0.111268925
H  H101  1  0.10680000  0.34460000  0.18270000  1.0 0.111268925
H  H102  1  0.89320000  0.65540000  0.68270000  1.0 0.111268925
H  H103  1  0.84460000  0.39320000  0.43270000  1.0 0.111268925
H  H104  1  0.15540000  0.60680000  0.93270000  1.0 0.111268925
H  H105  1  0.48660000  0.73130000  0.57630000  1.0 0.091426514
H  H106  1  0.51340000  0.26870000  0.07630000  1.0 0.091426514
H  H107  1  0.76870000  0.98660000  0.32630000  1.0 0.091426514
H  H108  1  0.23130000  0.01340000  0.82630000  1.0 0.091426514
H  H109  1  0.01340000  0.23130000  0.17370000  1.0 0.091426514
H  H110  1  0.98660000  0.76870000  0.67370000  1.0 0.091426514
H  H111  1  0.73130000  0.48660000  0.42370000  1.0 0.091426514
H  H112  1  0.26870000  0.51340000  0.92370000  1.0 0.091426514
H  H113  1  0.44630000  0.66330000  0.40520000  1.0 0.091426514
H  H114  1  0.55370000  0.33670000  0.90520000  1.0 0.091426514
H  H115  1  0.83670000  0.94630000  0.15520000  1.0 0.091426514
H  H116  1  0.16330000  0.05370000  0.65520000  1.0 0.091426514
H  H117  1  0.05370000  0.16330000  0.34480000  1.0 0.091426514
H  H118  1  0.94630000  0.83670000  0.84480000  1.0 0.091426514
H  H119  1  0.66330000  0.44630000  0.59480000  1.0 0.091426514
H  H120  1  0.33670000  0.55370000  0.09480000  1.0 0.091426514
H  H121  1  0.35090000  0.77020000  0.38940000  1.0 0.1257655193
H  H122  1  0.64910000  0.22980000  0.88940000  1.0 0.1257655193
H  H123  1  0.72980000  0.85090000  0.13940000  1.0 0.1257655193
H  H124  1  0.27020000  0.14910000  0.63940000  1.0 0.1257655193
H  H125  1  0.14910000  0.27020000  0.36060000  1.0 0.1257655193
H  H126  1  0.85090000  0.72980000  0.86060000  1.0 0.1257655193
H  H127  1  0.77020000  0.35090000  0.61060000  1.0 0.1257655193
H  H128  1  0.22980000  0.64910000  0.11060000  1.0 0.1257655193
H  H129  1  0.09160000  0.73860000  0.34610000  1.0 0.2563622594
H  H130  1  0.90840000  0.26140000  0.84610000  1.0 0.2563622594
H  H131  1  0.76140000  0.59160000  0.09610000  1.0 0.2563622594
H  H132  1  0.23860000  0.40840000  0.59610000  1.0 0.2563622594
H  H133  1  0.40840000  0.23860000  0.40390000  1.0 0.2563622594
H  H134  1  0.59160000  0.76140000  0.90390000  1.0 0.2563622594
H  H135  1  0.73860000  0.09160000  0.65390000  1.0 0.2563622594
H  H136  1  0.26140000  0.90840000  0.15390000  1.0 0.2563622594
H  H137  1  0.03330000  0.74810000  0.39950000  1.0 0.2563622594
H  H138  1  0.96670000  0.25190000  0.89950000  1.0 0.2563622594
H  H139  1  0.75190000  0.53330000  0.14950000  1.0 0.2563622594
H  H140  1  0.24810000  0.46670000  0.64950000  1.0 0.2563622594
H  H141  1  0.46670000  0.24810000  0.35050000  1.0 0.2563622594
H  H142  1  0.53330000  0.75190000  0.85050000  1.0 0.2563622594
H  H143  1  0.74810000  0.03330000  0.60050000  1.0 0.2563622594
H  H144  1  0.25190000  0.96670000  0.10050000  1.0 0.2563622594
C  C1  1  0.64010000  0.58840000  0.35960000  1.0 0.0684340622
C  C2  1  0.35990000  0.41160000  0.85960000  1.0 0.0684340622
C  C3  1  0.91160000  0.14010000  0.10960000  1.0 0.0684340622
C  C4  1  0.08840000  0.85990000  0.60960000  1.0 0.0684340622
C  C5  1  0.85990000  0.08840000  0.39040000  1.0 0.0684340622
C  C6  1  0.14010000  0.91160000  0.89040000  1.0 0.0684340622
C  C7  1  0.58840000  0.64010000  0.64040000  1.0 0.0684340622
C  C8  1  0.41160000  0.35990000  0.14040000  1.0 0.0684340622
C  C9  1  0.70200000  0.61820000  0.31920000  1.0 -0.1974987387
C  C10  1  0.29800000  0.38180000  0.81920000  1.0 -0.1974987387
C  C11  1  0.88180000  0.20200000  0.06920000  1.0 -0.1974987387
C  C12  1  0.11820000  0.79800000  0.56920000  1.0 -0.1974987387
C  C13  1  0.79800000  0.11820000  0.43080000  1.0 -0.1974987387
C  C14  1  0.20200000  0.88180000  0.93080000  1.0 -0.1974987387
C  C15  1  0.61820000  0.70200000  0.68080000  1.0 -0.1974987387
C  C16  1  0.38180000  0.29800000  0.18080000  1.0 -0.1974987387
C  C17  1  0.74620000  0.69120000  0.33380000  1.0 0.1196092759
C  C18  1  0.25380000  0.30880000  0.83380000  1.0 0.1196092759
C  C19  1  0.80880000  0.24620000  0.08380000  1.0 0.1196092759
C  C20  1  0.19120000  0.75380000  0.58380000  1.0 0.1196092759
C  C21  1  0.75380000  0.19120000  0.41620000  1.0 0.1196092759
C  C22  1  0.24620000  0.80880000  0.91620000  1.0 0.1196092759
C  C23  1  0.69120000  0.74620000  0.66620000  1.0 0.1196092759
C  C24  1  0.30880000  0.25380000  0.16620000  1.0 0.1196092759
C  C25  1  0.71970000  0.73450000  0.38730000  1.0 -0.1974987387
C  C26  1  0.28030000  0.26550000  0.88730000  1.0 -0.1974987387
C  C27  1  0.76550000  0.21970000  0.13730000  1.0 -0.1974987387
C  C28  1  0.23450000  0.78030000  0.63730000  1.0 -0.1974987387
C  C29  1  0.78030000  0.23450000  0.36270000  1.0 -0.1974987387
C  C30  1  0.21970000  0.76550000  0.86270000  1.0 -0.1974987387
C  C31  1  0.73450000  0.71970000  0.61270000  1.0 -0.1974987387
C  C32  1  0.26550000  0.28030000  0.11270000  1.0 -0.1974987387
C  C33  1  0.65800000  0.69900000  0.42440000  1.0 0.045802394
C  C34  1  0.34200000  0.30100000  0.92440000  1.0 0.045802394
C  C35  1  0.80100000  0.15800000  0.17440000  1.0 0.045802394
C  C36  1  0.19900000  0.84200000  0.67440000  1.0 0.045802394
C  C37  1  0.84200000  0.19900000  0.32560000  1.0 0.045802394
C  C38  1  0.15800000  0.80100000  0.82560000  1.0 0.045802394
C  C39  1  0.69900000  0.65800000  0.57560000  1.0 0.045802394
C  C40  1  0.30100000  0.34200000  0.07560000  1.0 0.045802394
C  C41  1  0.81780000  0.72260000  0.29720000  1.0 0.0684340622
C  C42  1  0.18220000  0.27740000  0.79720000  1.0 0.0684340622
C  C43  1  0.77740000  0.31780000  0.04720000  1.0 0.0684340622
C  C44  1  0.22260000  0.68220000  0.54720000  1.0 0.0684340622
C  C45  1  0.68220000  0.22260000  0.45280000  1.0 0.0684340622
C  C46  1  0.31780000  0.77740000  0.95280000  1.0 0.0684340622
C  C47  1  0.72260000  0.81780000  0.70280000  1.0 0.0684340622
C  C48  1  0.27740000  0.18220000  0.20280000  1.0 0.0684340622
C  C49  1  0.83490000  0.69370000  0.23570000  1.0 -0.1604186557
C  C50  1  0.16510000  0.30630000  0.73570000  1.0 -0.1604186557
C  C51  1  0.80630000  0.33490000  0.98570000  1.0 -0.1604186557
C  C52  1  0.19370000  0.66510000  0.48570000  1.0 -0.1604186557
C  C53  1  0.66510000  0.19370000  0.51430000  1.0 -0.1604186557
C  C54  1  0.33490000  0.80630000  0.01430000  1.0 -0.1604186557
C  C55  1  0.69370000  0.83490000  0.76430000  1.0 -0.1604186557
C  C56  1  0.30630000  0.16510000  0.26430000  1.0 -0.1604186557
C  C57  1  0.90210000  0.72210000  0.20380000  1.0 -0.1013687718
C  C58  1  0.09790000  0.27790000  0.70380000  1.0 -0.1013687718
C  C59  1  0.77790000  0.40210000  0.95380000  1.0 -0.1013687718
C  C60  1  0.22210000  0.59790000  0.45380000  1.0 -0.1013687718
C  C61  1  0.59790000  0.22210000  0.54620000  1.0 -0.1013687718
C  C62  1  0.40210000  0.77790000  0.04620000  1.0 -0.1013687718
C  C63  1  0.72210000  0.90210000  0.79620000  1.0 -0.1013687718
C  C64  1  0.27790000  0.09790000  0.29620000  1.0 -0.1013687718
C  C65  1  0.95790000  0.78100000  0.22920000  1.0 -0.1604186557
C  C66  1  0.04210000  0.21900000  0.72920000  1.0 -0.1604186557
C  C67  1  0.71900000  0.45790000  0.97920000  1.0 -0.1604186557
C  C68  1  0.28100000  0.54210000  0.47920000  1.0 -0.1604186557
C  C69  1  0.54210000  0.28100000  0.52080000  1.0 -0.1604186557
C  C70  1  0.45790000  0.71900000  0.02080000  1.0 -0.1604186557
C  C71  1  0.78100000  0.95790000  0.77080000  1.0 -0.1604186557
C  C72  1  0.21900000  0.04210000  0.27080000  1.0 -0.1604186557
C  C73  1  0.94170000  0.81080000  0.28910000  1.0 0.0169765729
C  C74  1  0.05830000  0.18920000  0.78910000  1.0 0.0169765729
C  C75  1  0.68920000  0.44170000  0.03910000  1.0 0.0169765729
C  C76  1  0.31080000  0.55830000  0.53910000  1.0 0.0169765729
C  C77  1  0.55830000  0.31080000  0.46090000  1.0 0.0169765729
C  C78  1  0.44170000  0.68920000  0.96090000  1.0 0.0169765729
C  C79  1  0.81080000  0.94170000  0.71090000  1.0 0.0169765729
C  C80  1  0.18920000  0.05830000  0.21090000  1.0 0.0169765729
C  C81  1  0.87230000  0.78150000  0.32210000  1.0 -0.1828879695
C  C82  1  0.12770000  0.21850000  0.82210000  1.0 -0.1828879695
C  C83  1  0.71850000  0.37230000  0.07210000  1.0 -0.1828879695
C  C84  1  0.28150000  0.62770000  0.57210000  1.0 -0.1828879695
C  C85  1  0.62770000  0.28150000  0.42790000  1.0 -0.1828879695
C  C86  1  0.37230000  0.71850000  0.92790000  1.0 -0.1828879695
C  C87  1  0.78150000  0.87230000  0.67790000  1.0 -0.1828879695
C  C88  1  0.21850000  0.12770000  0.17790000  1.0 -0.1828879695
C  C89  1  0.99700000  0.87390000  0.31950000  1.0 0.1891718358
C  C90  1  0.00300000  0.12610000  0.81950000  1.0 0.1891718358
C  C91  1  0.62610000  0.49700000  0.06950000  1.0 0.1891718358
C  C92  1  0.37390000  0.50300000  0.56950000  1.0 0.1891718358
C  C93  1  0.50300000  0.37390000  0.43050000  1.0 0.1891718358
C  C94  1  0.49700000  0.62610000  0.93050000  1.0 0.1891718358
C  C95  1  0.87390000  0.99700000  0.68050000  1.0 0.1891718358
C  C96  1  0.12610000  0.00300000  0.18050000  1.0 0.1891718358
C  C97  1  0.09240000  0.92490000  0.38170000  1.0 0.1953120865
C  C98  1  0.90760000  0.07510000  0.88170000  1.0 0.1953120865
C  C99  1  0.57510000  0.59240000  0.13170000  1.0 0.1953120865
C  C100  1  0.42490000  0.40760000  0.63170000  1.0 0.1953120865
C  C101  1  0.40760000  0.42490000  0.36830000  1.0 0.1953120865
C  C102  1  0.59240000  0.57510000  0.86830000  1.0 0.1953120865
C  C103  1  0.92490000  0.09240000  0.61830000  1.0 0.1953120865
C  C104  1  0.07510000  0.90760000  0.11830000  1.0 0.1953120865
C  C105  1  0.16300000  0.93330000  0.42590000  1.0 0.036963637
C  C106  1  0.83700000  0.06670000  0.92590000  1.0 0.036963637
C  C107  1  0.56670000  0.66300000  0.17590000  1.0 0.036963637
C  C108  1  0.43330000  0.33700000  0.67590000  1.0 0.036963637
C  C109  1  0.33700000  0.43330000  0.32410000  1.0 0.036963637
C  C110  1  0.66300000  0.56670000  0.82410000  1.0 0.036963637
C  C111  1  0.93330000  0.16300000  0.57410000  1.0 0.036963637
C  C112  1  0.06670000  0.83700000  0.07410000  1.0 0.036963637
C  C113  1  0.16530000  0.00490000  0.46260000  1.0 -0.14383897
C  C114  1  0.83470000  0.99510000  0.96260000  1.0 -0.14383897
C  C115  1  0.49510000  0.66530000  0.21260000  1.0 -0.14383897
C  C116  1  0.50490000  0.33470000  0.71260000  1.0 -0.14383897
C  C117  1  0.33470000  0.50490000  0.28740000  1.0 -0.14383897
C  C118  1  0.66530000  0.49510000  0.78740000  1.0 -0.14383897
C  C119  1  0.00490000  0.16530000  0.53740000  1.0 -0.14383897
C  C120  1  0.99510000  0.83470000  0.03740000  1.0 -0.14383897
C  C121  1  0.23040000  0.01660000  0.50330000  1.0 -0.1013687718
C  C122  1  0.76960000  0.98340000  0.00330000  1.0 -0.1013687718
C  C123  1  0.48340000  0.73040000  0.25330000  1.0 -0.1013687718
C  C124  1  0.51660000  0.26960000  0.75330000  1.0 -0.1013687718
C  C125  1  0.26960000  0.51660000  0.24670000  1.0 -0.1013687718
C  C126  1  0.73040000  0.48340000  0.74670000  1.0 -0.1013687718
C  C127  1  0.01660000  0.23040000  0.49670000  1.0 -0.1013687718
C  C128  1  0.98340000  0.76960000  0.99670000  1.0 -0.1013687718
C  C129  1  0.29290000  0.95600000  0.51010000  1.0 -0.154680388
C  C130  1  0.70710000  0.04400000  0.01010000  1.0 -0.154680388
C  C131  1  0.54400000  0.79290000  0.26010000  1.0 -0.154680388
C  C132  1  0.45600000  0.20710000  0.76010000  1.0 -0.154680388
C  C133  1  0.20710000  0.45600000  0.23990000  1.0 -0.154680388
C  C134  1  0.79290000  0.54400000  0.73990000  1.0 -0.154680388
C  C135  1  0.95600000  0.29290000  0.48990000  1.0 -0.154680388
C  C136  1  0.04400000  0.70710000  0.98990000  1.0 -0.154680388
C  C137  1  0.29270000  0.88590000  0.47200000  1.0 0.0684340622
C  C138  1  0.70730000  0.11410000  0.97200000  1.0 0.0684340622
C  C139  1  0.61410000  0.79270000  0.22200000  1.0 0.0684340622
C  C140  1  0.38590000  0.20730000  0.72200000  1.0 0.0684340622
C  C141  1  0.20730000  0.38590000  0.27800000  1.0 0.0684340622
C  C142  1  0.79270000  0.61410000  0.77800000  1.0 0.0684340622
C  C143  1  0.88590000  0.29270000  0.52800000  1.0 0.0684340622
C  C144  1  0.11410000  0.70730000  0.02800000  1.0 0.0684340622
C  C145  1  0.22580000  0.87410000  0.43050000  1.0 -0.1828879695
C  C146  1  0.77420000  0.12590000  0.93050000  1.0 -0.1828879695
C  C147  1  0.62590000  0.72580000  0.18050000  1.0 -0.1828879695
C  C148  1  0.37410000  0.27420000  0.68050000  1.0 -0.1828879695
C  C149  1  0.27420000  0.37410000  0.31950000  1.0 -0.1828879695
C  C150  1  0.72580000  0.62590000  0.81950000  1.0 -0.1828879695
C  C151  1  0.87410000  0.22580000  0.56950000  1.0 -0.1828879695
C  C152  1  0.12590000  0.77420000  0.06950000  1.0 -0.1828879695
C  C153  1  0.35860000  0.81960000  0.47830000  1.0 0.111268925
C  C154  1  0.64140000  0.18040000  0.97830000  1.0 0.111268925
C  C155  1  0.68040000  0.85860000  0.22830000  1.0 0.111268925
C  C156  1  0.31960000  0.14140000  0.72830000  1.0 0.111268925
C  C157  1  0.14140000  0.31960000  0.27170000  1.0 0.111268925
C  C158  1  0.85860000  0.68040000  0.77170000  1.0 0.111268925
C  C159  1  0.81960000  0.35860000  0.52170000  1.0 0.111268925
C  C160  1  0.18040000  0.64140000  0.02170000  1.0 0.111268925
C  C161  1  0.40160000  0.80760000  0.53320000  1.0 -0.1974987387
C  C162  1  0.59840000  0.19240000  0.03320000  1.0 -0.1974987387
C  C163  1  0.69240000  0.90160000  0.28320000  1.0 -0.1974987387
C  C164  1  0.30760000  0.09840000  0.78320000  1.0 -0.1974987387
C  C165  1  0.09840000  0.30760000  0.21680000  1.0 -0.1974987387
C  C166  1  0.90160000  0.69240000  0.71680000  1.0 -0.1974987387
C  C167  1  0.80760000  0.40160000  0.46680000  1.0 -0.1974987387
C  C168  1  0.19240000  0.59840000  0.96680000  1.0 -0.1974987387
C  C169  1  0.45830000  0.73950000  0.53790000  1.0 0.091426514
C  C170  1  0.54170000  0.26050000  0.03790000  1.0 0.091426514
C  C171  1  0.76050000  0.95830000  0.28790000  1.0 0.091426514
C  C172  1  0.23950000  0.04170000  0.78790000  1.0 0.091426514
C  C173  1  0.04170000  0.23950000  0.21210000  1.0 0.091426514
C  C174  1  0.95830000  0.76050000  0.71210000  1.0 0.091426514
C  C175  1  0.73950000  0.45830000  0.46210000  1.0 0.091426514
C  C176  1  0.26050000  0.54170000  0.96210000  1.0 0.091426514
C  C177  1  0.43430000  0.70030000  0.43870000  1.0 0.0580664669
C  C178  1  0.56570000  0.29970000  0.93870000  1.0 0.0580664669
C  C179  1  0.79970000  0.93430000  0.18870000  1.0 0.0580664669
C  C180  1  0.20030000  0.06570000  0.68870000  1.0 0.0580664669
C  C181  1  0.06570000  0.20030000  0.31130000  1.0 0.0580664669
C  C182  1  0.93430000  0.79970000  0.81130000  1.0 0.0580664669
C  C183  1  0.70030000  0.43430000  0.56130000  1.0 0.0580664669
C  C184  1  0.29970000  0.56570000  0.06130000  1.0 0.0580664669
C  C185  1  0.37730000  0.76370000  0.42870000  1.0 -0.1974987387
C  C186  1  0.62270000  0.23630000  0.92870000  1.0 -0.1974987387
C  C187  1  0.73630000  0.87730000  0.17870000  1.0 -0.1974987387
C  C188  1  0.26370000  0.12270000  0.67870000  1.0 -0.1974987387
C  C189  1  0.12270000  0.26370000  0.32130000  1.0 -0.1974987387
C  C190  1  0.87730000  0.73630000  0.82130000  1.0 -0.1974987387
C  C191  1  0.76370000  0.37730000  0.57130000  1.0 -0.1974987387
C  C192  1  0.23630000  0.62270000  0.07130000  1.0 -0.1974987387
I  I1  1  0.63171000  0.95158000  0.46777000  1.0 -0.0772283599
I  I2  1  0.48980000  0.04020000  0.46000000  1.0 0.0342267026
I  I3  1  0.50060000  0.01330000  0.40350000  1.0 0.0169765729
I  I4  1  0.36829000  0.04842000  0.96777000  1.0 -0.0772283599
I  I5  1  0.51020000  0.95980000  0.96000000  1.0 0.036963637
I  I6  1  0.49940000  0.98670000  0.90350000  1.0 0.0169765729
I  I7  1  0.54842000  0.13171000  0.21777000  1.0 -0.0772283599
I  I8  1  0.45980000  0.98980000  0.21000000  1.0 0.036963637
I  I9  1  0.48670000  0.00060000  0.15350000  1.0 0.0169765729
I  I10  1  0.45158000  0.86829000  0.71777000  1.0 -0.0772283599
I  I11  1  0.54020000  0.01020000  0.71000000  1.0 0.0342267026
I  I12  1  0.51330000  0.99940000  0.65350000  1.0 0.0169765729
I  I13  1  0.86829000  0.45158000  0.28223000  1.0 -0.0772283599
I  I14  1  0.01020000  0.54020000  0.29000000  1.0 0.0342267026
I  I15  1  0.99940000  0.51330000  0.34650000  1.0 0.0169765729
I  I16  1  0.13171000  0.54842000  0.78223000  1.0 -0.0772283599
I  I17  1  0.98980000  0.45980000  0.79000000  1.0 0.036963637
I  I18  1  0.00060000  0.48670000  0.84650000  1.0 0.0169765729
I  I19  1  0.95158000  0.63171000  0.53223000  1.0 -0.0772283599
I  I20  1  0.04020000  0.48980000  0.54000000  1.0 0.0342267026
I  I21  1  0.01330000  0.50060000  0.59650000  1.0 0.0169765729
I  I22  1  0.04842000  0.36829000  0.03223000  1.0 -0.0772283599
I  I23  1  0.95980000  0.51020000  0.04000000  1.0 0.036963637
I  I24  1  0.98670000  0.49940000  0.09650000  1.0 0.0169765729
N  N1  1  0.99290000  0.95650000  0.31690000  1.0 -0.2290111203
N  N2  1  0.00710000  0.04350000  0.81690000  1.0 -0.2290111203
N  N3  1  0.54350000  0.49290000  0.06690000  1.0 -0.2290111203
N  N4  1  0.45650000  0.50710000  0.56690000  1.0 -0.2290111203
N  N5  1  0.50710000  0.45650000  0.43310000  1.0 -0.2290111203
N  N6  1  0.49290000  0.54350000  0.93310000  1.0 -0.2290111203
N  N7  1  0.95650000  0.99290000  0.68310000  1.0 -0.2290111203
N  N8  1  0.04350000  0.00710000  0.18310000  1.0 -0.2290111203
N  N9  1  0.05390000  0.98860000  0.35540000  1.0 -0.2669309619
N  N10  1  0.94610000  0.01140000  0.85540000  1.0 -0.2669309619
N  N11  1  0.51140000  0.55390000  0.10540000  1.0 -0.2669309619
N  N12  1  0.48860000  0.44610000  0.60540000  1.0 -0.2669309619
N  N13  1  0.44610000  0.48860000  0.39460000  1.0 -0.2669309619
N  N14  1  0.55390000  0.51140000  0.89460000  1.0 -0.2669309619
N  N15  1  0.98860000  0.05390000  0.64460000  1.0 -0.2669309619
N  N16  1  0.01140000  0.94610000  0.14460000  1.0 -0.2669309619
N  N17  1  0.05830000  0.85250000  0.36000000  1.0 0.0684340622
N  N18  1  0.94170000  0.14750000  0.86000000  1.0 0.0684340622
N  N19  1  0.64750000  0.55830000  0.11000000  1.0 0.0684340622
N  N20  1  0.35250000  0.44170000  0.61000000  1.0 0.0684340622
N  N21  1  0.44170000  0.35250000  0.39000000  1.0 0.0684340622
N  N22  1  0.55830000  0.64750000  0.89000000  1.0 0.0684340622
N  N23  1  0.85250000  0.05830000  0.64000000  1.0 0.0684340622
N  N24  1  0.14750000  0.94170000  0.14000000  1.0 0.0684340622
N  N25  1  0.07840000  0.77090000  0.37960000  1.0 -0.4963337015
N  N26  1  0.92160000  0.22910000  0.87960000  1.0 -0.4963337015
N  N27  1  0.72910000  0.57840000  0.12960000  1.0 -0.4963337015
N  N28  1  0.27090000  0.42160000  0.62960000  1.0 -0.4963337015
N  N29  1  0.42160000  0.27090000  0.37040000  1.0 -0.4963337015
N  N30  1  0.57840000  0.72910000  0.87040000  1.0 -0.4963337015
N  N31  1  0.77090000  0.07840000  0.62040000  1.0 -0.4963337015
N  N32  1  0.22910000  0.92160000  0.12040000  1.0 -0.4963337015
N  N33  1  0.61970000  0.62560000  0.41220000  1.0 -0.2401726106
N  N34  1  0.38030000  0.37440000  0.91220000  1.0 -0.2401726106
N  N35  1  0.87440000  0.11970000  0.16220000  1.0 -0.2401726106
N  N36  1  0.12560000  0.88030000  0.66220000  1.0 -0.2401726106
N  N37  1  0.88030000  0.12560000  0.33780000  1.0 -0.2401726106
N  N38  1  0.11970000  0.87440000  0.83780000  1.0 -0.2401726106
N  N39  1  0.62560000  0.61970000  0.58780000  1.0 -0.2401726106
N  N40  1  0.37440000  0.38030000  0.08780000  1.0 -0.2401726106
N  N41  1  0.47420000  0.68710000  0.49280000  1.0 -0.2401726106
N  N42  1  0.52580000  0.31290000  0.99280000  1.0 -0.2401726106
N  N43  1  0.81290000  0.97420000  0.24280000  1.0 -0.2401726106
N  N44  1  0.18710000  0.02580000  0.74280000  1.0 -0.2401726106
N  N45  1  0.02580000  0.18710000  0.25720000  1.0 -0.2401726106
N  N46  1  0.97420000  0.81290000  0.75720000  1.0 -0.2401726106
N  N47  1  0.68710000  0.47420000  0.50720000  1.0 -0.2401726106
N  N48  1  0.31290000  0.52580000  0.00720000  1.0 -0.2401726106
Cl  Cl1  1  0.61877000  0.38123000  0.25000000  1.0 1.0332057346
Cl  Cl2  1  0.38123000  0.61877000  0.75000000  1.0 1.0332057346
Cl  Cl3  1  0.88123000  0.88123000  0.50000000  1.0 1.0332057346
Cl  Cl4  1  0.11877000  0.11877000  0.00000000  1.0 1.0332057346
O  O1  1  0.61190000  0.31850000  0.21120000  1.0 -0.3323189672
O  O2  1  0.68150000  0.38810000  0.28880000  1.0 -0.3323189672
O  O3  1  0.64400000  0.44250000  0.21440000  1.0 -0.3472090047
O  O4  1  0.55750000  0.35600000  0.28560000  1.0 -0.3472090047
O  O5  1  0.38810000  0.68150000  0.71120000  1.0 -0.3323189672
O  O6  1  0.31850000  0.61190000  0.78880000  1.0 -0.3323189672
O  O7  1  0.35600000  0.55750000  0.71440000  1.0 -0.3472090047
O  O8  1  0.44250000  0.64400000  0.78560000  1.0 -0.3472090047
O  O9  1  0.81850000  0.88810000  0.46120000  1.0 -0.3323189672
O  O10  1  0.88810000  0.81850000  0.53880000  1.0 -0.3323189672
O  O11  1  0.94250000  0.85600000  0.46440000  1.0 -0.3472090047
O  O12  1  0.85600000  0.94250000  0.53560000  1.0 -0.3472090047
O  O13  1  0.18150000  0.11190000  0.96120000  1.0 -0.3323189672
O  O14  1  0.11190000  0.18150000  0.03880000  1.0 -0.3323189672
O  O15  1  0.05750000  0.14400000  0.96440000  1.0 -0.3472090047
O  O16  1  0.14400000  0.05750000  0.03560000  1.0 -0.3472090047
