# DDEC6 charges by PACMAN v1.1 (https://github.com/mtap-research/PACMAN-charge/)
data_ITONAI_ASR_pacman
_symmetry_space_group_name_H-M   'P 1'
_cell_length_a   12.89570000
_cell_length_b   12.89570000
_cell_length_c   8.10658000
_cell_angle_alpha   85.19270000
_cell_angle_beta   94.80730000
_cell_angle_gamma   111.26900000
_symmetry_Int_Tables_number   1
_chemical_formula_structural   Zr3C11N2O13
_chemical_formula_sum   'Zr6 C22 N4 O26'
_cell_volume   1249.80197208
_cell_formula_units_Z   2
loop_
 _symmetry_equiv_pos_site_id
 _symmetry_equiv_pos_as_xyz
  1  'x, y, z'
loop_
 _atom_site_type_symbol
 _atom_site_label
 _atom_site_symmetry_multiplicity
 _atom_site_fract_x
 _atom_site_fract_y
 _atom_site_fract_z
 _atom_site_occupancy
 _atom_site_charge
Zr  Zr1  1  0.19763000  0.04061000  0.95948000  1.0 2.4183186935
Zr  Zr2  1  0.04061000  0.19763000  0.04052000  1.0 2.4183186935
Zr  Zr3  1  0.80237000  0.95939000  0.04052000  1.0 2.4183186935
Zr  Zr4  1  0.95939000  0.80237000  0.95948000  1.0 2.4183186935
Zr  Zr5  1  0.96334000  0.03666000  0.69324000  1.0 2.488919978
Zr  Zr6  1  0.03666000  0.96334000  0.30676000  1.0 2.488919978
C  C1  1  0.29365000  0.00441000  0.32096000  1.0 0.6438816534
C  C2  1  0.00441000  0.29365000  0.67904000  1.0 0.6438816534
C  C3  1  0.70635000  0.99559000  0.67904000  1.0 0.6438816534
C  C4  1  0.99559000  0.70635000  0.32096000  1.0 0.6438816534
C  C5  1  0.39874000  0.00328000  0.41577000  1.0 0.0139339167
C  C6  1  0.00328000  0.39874000  0.58423000  1.0 0.0139339167
C  C7  1  0.60126000  0.99672000  0.58423000  1.0 0.0139339167
C  C8  1  0.99672000  0.60126000  0.41577000  1.0 0.0139339167
C  C9  1  0.50104000  0.04384000  0.33751000  1.0 0.1515763076
C  C10  1  0.04384000  0.50104000  0.66249000  1.0 0.1515763076
C  C11  1  0.49896000  0.95616000  0.66249000  1.0 0.1515763076
C  C12  1  0.95616000  0.49896000  0.33751000  1.0 0.1515763076
C  C13  1  0.20510000  0.79490000  0.89420000  1.0 0.8680138634
C  C14  1  0.79490000  0.20510000  0.10580000  1.0 0.8680138634
C  C15  1  0.49559000  0.41081000  0.90820000  1.0 -0.0027640229
C  C16  1  0.41081000  0.49559000  0.09180000  1.0 -0.0027640229
C  C17  1  0.50441000  0.58919000  0.09180000  1.0 -0.0027640229
C  C18  1  0.58919000  0.50441000  0.90820000  1.0 -0.0027640229
C  C19  1  0.30360000  0.30360000  0.00000000  1.0 0.7099053906
C  C20  1  0.69640000  0.69640000  0.00000000  1.0 0.7099053906
C  C21  1  0.41160000  0.41160000  0.00000000  1.0 -0.0325417398
C  C22  1  0.58840000  0.58840000  0.00000000  1.0 -0.0325417398
N  N1  1  0.39925000  0.95889000  0.57970000  1.0 -0.2107225386
N  N2  1  0.95889000  0.39925000  0.42030000  1.0 -0.2107225386
N  N3  1  0.60075000  0.04111000  0.42030000  1.0 -0.2107225386
N  N4  1  0.04111000  0.60075000  0.57970000  1.0 -0.2107225386
O  O1  1  0.05665000  0.94335000  0.81420000  1.0 -1.101655717
O  O2  1  0.94335000  0.05665000  0.18580000  1.0 -1.101655717
O  O3  1  0.10300000  0.89700000  0.11570000  1.0 -1.1936604334
O  O4  1  0.89700000  0.10300000  0.88430000  1.0 -1.1936604334
O  O5  1  0.07830000  0.07830000  0.50000000  1.0 -0.8444501115
O  O6  1  0.92170000  0.92170000  0.50000000  1.0 -0.8458695366
O  O7  1  0.14492000  0.11168000  0.16680000  1.0 -1.149875219
O  O8  1  0.11168000  0.14492000  0.83320000  1.0 -1.149875219
O  O9  1  0.85508000  0.88832000  0.83320000  1.0 -1.149875219
O  O10  1  0.88832000  0.85508000  0.16680000  1.0 -1.149875219
O  O11  1  0.20977000  0.98727000  0.39690000  1.0 -0.5164734973
O  O12  1  0.98727000  0.20977000  0.60310000  1.0 -0.5164734973
O  O13  1  0.79023000  0.01273000  0.60310000  1.0 -0.5164734973
O  O14  1  0.01273000  0.79023000  0.39690000  1.0 -0.5164734973
O  O15  1  0.31854000  0.21404000  0.98710000  1.0 -0.5769184633
O  O16  1  0.21404000  0.31854000  0.01290000  1.0 -0.5769184633
O  O17  1  0.68146000  0.78596000  0.01290000  1.0 -0.5769184633
O  O18  1  0.78596000  0.68146000  0.98710000  1.0 -0.5769184633
O  O19  1  0.29986000  0.01334000  0.16560000  1.0 -0.5769184633
O  O20  1  0.01334000  0.29986000  0.83440000  1.0 -0.5769184633
O  O21  1  0.70014000  0.98666000  0.83440000  1.0 -0.5769184633
O  O22  1  0.98666000  0.70014000  0.16560000  1.0 -0.5769184633
O  O23  1  0.24902000  0.90170000  0.90320000  1.0 -0.6409491254
O  O24  1  0.90170000  0.24902000  0.09680000  1.0 -0.6409491254
O  O25  1  0.75098000  0.09830000  0.09680000  1.0 -0.6409491254
O  O26  1  0.09830000  0.75098000  0.90320000  1.0 -0.6409491254
