# DDEC6 charges by PACMAN v1.1 (https://github.com/mtap-research/PACMAN-charge/)
data_IVEDUL_ASR_pacman
_symmetry_space_group_name_H-M   'P 1'
_cell_length_a   30.69960000
_cell_length_b   30.69960000
_cell_length_c   63.42010000
_cell_angle_alpha   90.00000000
_cell_angle_beta   90.00000000
_cell_angle_gamma   90.00000000
_symmetry_Int_Tables_number   1
_chemical_formula_structural   K11H516(C150O127)2
_chemical_formula_sum   'K44 H2064 C1200 O1016'
_cell_volume   59771.25246149
_cell_formula_units_Z   4
loop_
 _symmetry_equiv_pos_site_id
 _symmetry_equiv_pos_as_xyz
  1  'x, y, z'
loop_
 _atom_site_type_symbol
 _atom_site_label
 _atom_site_symmetry_multiplicity
 _atom_site_fract_x
 _atom_site_fract_y
 _atom_site_fract_z
 _atom_site_occupancy
 _atom_site_charge
K  K1  1  0.81940000  0.50150000  0.59807000  1.0 0.8303454554
K  K2  1  0.19639000  0.49688000  0.59919000  1.0 0.821380296
K  K3  1  0.18547000  0.49059000  0.40699000  1.0 0.8303454554
K  K4  1  0.28256000  0.70840000  0.47854000  1.0 0.7190938975
K  K5  1  0.81195000  0.49345000  0.40622000  1.0 0.8303454554
K  K6  1  0.18060000  0.49850000  0.09807000  1.0 0.8303454554
K  K7  1  0.80361000  0.50312000  0.09919000  1.0 0.821380296
K  K8  1  0.81453000  0.50941000  0.90699000  1.0 0.8303454554
K  K9  1  0.71744000  0.29160000  0.97854000  1.0 0.7190938975
K  K10  1  0.18805000  0.50655000  0.90622000  1.0 0.8303454554
K  K11  1  0.99850000  0.31940000  0.84807000  1.0 0.8303454554
K  K12  1  0.00312000  0.69639000  0.84919000  1.0 0.821380296
K  K13  1  0.00941000  0.68547000  0.65699000  1.0 0.8303454554
K  K14  1  0.79160000  0.78256000  0.72854000  1.0 0.7190938975
K  K15  1  0.00655000  0.31195000  0.65622000  1.0 0.8303454554
K  K16  1  0.00150000  0.68060000  0.34807000  1.0 0.8303454554
K  K17  1  0.99688000  0.30361000  0.34919000  1.0 0.821380296
K  K18  1  0.99059000  0.31453000  0.15699000  1.0 0.8303454554
K  K19  1  0.20840000  0.21744000  0.22854000  1.0 0.7190938975
K  K20  1  0.99345000  0.68805000  0.15622000  1.0 0.8303454554
K  K21  1  0.68060000  0.00150000  0.65193000  1.0 0.8303454554
K  K22  1  0.30361000  0.99688000  0.65081000  1.0 0.821380296
K  K23  1  0.31453000  0.99059000  0.84301000  1.0 0.8303454554
K  K24  1  0.21744000  0.20840000  0.77146000  1.0 0.7190938975
K  K25  1  0.68805000  0.99345000  0.84378000  1.0 0.8303454554
K  K26  1  0.31940000  0.99850000  0.15193000  1.0 0.8303454554
K  K27  1  0.69639000  0.00312000  0.15081000  1.0 0.821380296
K  K28  1  0.68547000  0.00941000  0.34301000  1.0 0.8303454554
K  K29  1  0.78256000  0.79160000  0.27146000  1.0 0.7190938975
K  K30  1  0.31195000  0.00655000  0.34378000  1.0 0.8303454554
K  K31  1  0.50150000  0.81940000  0.40193000  1.0 0.8303454554
K  K32  1  0.49688000  0.19639000  0.40081000  1.0 0.821380296
K  K33  1  0.49059000  0.18547000  0.59301000  1.0 0.8303454554
K  K34  1  0.70840000  0.28256000  0.52146000  1.0 0.7190938975
K  K35  1  0.49345000  0.81195000  0.59378000  1.0 0.8303454554
K  K36  1  0.49850000  0.18060000  0.90193000  1.0 0.8303454554
K  K37  1  0.50312000  0.80361000  0.90081000  1.0 0.821380296
K  K38  1  0.50941000  0.81453000  0.09301000  1.0 0.8303454554
K  K39  1  0.29160000  0.71744000  0.02146000  1.0 0.7190938975
K  K40  1  0.50655000  0.18805000  0.09378000  1.0 0.8303454554
K  K41  1  0.31692000  0.31692000  0.50000000  1.0 0.8388175305
K  K42  1  0.68308000  0.68308000  0.00000000  1.0 0.8388175305
K  K43  1  0.18308000  0.81692000  0.75000000  1.0 0.8388175305
K  K44  1  0.81692000  0.18308000  0.25000000  1.0 0.8388175305
H  H1  1  0.79832000  0.42522000  0.45175000  1.0 0.3297348221
H  H2  1  0.87623000  0.40966000  0.40243000  1.0 0.3126519721
H  H3  1  0.76463000  0.26457000  0.46185000  1.0 0.3126519721
H  H4  1  0.94166000  0.44878000  0.41134000  1.0 0.3490727518
H  H5  1  0.01431000  0.44837000  0.40880000  1.0 0.3409018652
H  H6  1  0.92537000  0.24714000  0.37465000  1.0 0.1998830532
H  H7  1  0.08810000  0.43132000  0.40781000  1.0 0.3297348221
H  H8  1  0.18267000  0.42749000  0.44180000  1.0 0.2091729768
H  H9  1  0.08354000  0.26467000  0.39079000  1.0 0.2185350708
H  H10  1  0.17997000  0.43070000  0.45829000  1.0 0.2291639824
H  H11  1  0.23007000  0.46479000  0.51715000  1.0 0.2185350708
H  H12  1  0.25843000  0.26602000  0.46524000  1.0 0.2091729768
H  H13  1  0.16398000  0.46390000  0.55787000  1.0 0.3297348221
H  H14  1  0.12204000  0.42992000  0.59713000  1.0 0.1998830532
H  H15  1  0.23365000  0.26207000  0.54320000  1.0 0.1897413932
H  H16  1  0.09055000  0.44062000  0.59805000  1.0 0.2291639824
H  H17  1  0.94972000  0.45050000  0.60149000  1.0 0.2185350708
H  H18  1  0.07084000  0.25820000  0.62545000  1.0 0.3025613501
H  H19  1  0.91556000  0.45050000  0.59565000  1.0 0.2091729768
H  H20  1  0.81122000  0.43671000  0.55522000  1.0 0.2185350708
H  H21  1  0.91530000  0.27537000  0.61271000  1.0 0.2091729768
H  H22  1  0.80273000  0.43909000  0.53784000  1.0 0.2185350708
H  H23  1  0.76351000  0.45332000  0.48653000  1.0 0.3297348221
H  H24  1  0.79541000  0.25350000  0.54579000  1.0 0.3126519721
H  H25  1  0.78581000  0.34109000  0.44635000  1.0 0.0905139511
H  H26  1  0.86324000  0.39334000  0.44181000  1.0 0.0905139511
H  H27  1  0.80489000  0.36336000  0.40972000  1.0 0.0982258527
H  H28  1  0.86533000  0.32214000  0.39686000  1.0 0.0905139511
H  H29  1  0.87411000  0.31066000  0.45222000  1.0 0.0905139511
H  H30  1  0.84069000  0.23950000  0.45224000  1.0 0.0982258527
H  H31  1  0.82645000  0.26816000  0.47215000  1.0 0.0905139511
H  H32  1  0.92680000  0.34931000  0.38924000  1.0 0.0982258527
H  H33  1  0.97311000  0.39064000  0.42344000  1.0 0.0801729239
H  H34  1  0.98948000  0.39860000  0.37893000  1.0 0.0982258527
H  H35  1  0.05485000  0.36221000  0.38405000  1.0 0.0801729239
H  H36  1  0.98417000  0.30905000  0.41970000  1.0 0.0801729239
H  H37  1  0.97644000  0.24432000  0.40001000  1.0 0.0905139511
H  H38  1  0.92950000  0.25972000  0.40833000  1.0 0.0982258527
H  H39  1  0.10752000  0.34329000  0.40026000  1.0 0.0905139511
H  H40  1  0.10984000  0.39775000  0.43717000  1.0 0.0905139511
H  H41  1  0.18004000  0.37260000  0.40985000  1.0 0.0982258527
H  H42  1  0.20803000  0.33401000  0.43943000  1.0 0.0905139511
H  H43  1  0.09426000  0.31595000  0.44328000  1.0 0.0905139511
H  H44  1  0.09649000  0.24375000  0.42960000  1.0 0.0982258527
H  H45  1  0.05601000  0.27012000  0.42007000  1.0 0.0801729239
H  H46  1  0.22151000  0.36698000  0.46706000  1.0 0.0905139511
H  H47  1  0.15041000  0.40131000  0.49233000  1.0 0.0982258527
H  H48  1  0.24228000  0.41753000  0.49387000  1.0 0.0905139511
H  H49  1  0.24214000  0.38405000  0.52733000  1.0 0.0714405285
H  H50  1  0.16694000  0.32282000  0.49747000  1.0 0.0801729239
H  H51  1  0.21083000  0.26089000  0.49321000  1.0 0.0905139511
H  H52  1  0.18940000  0.27320000  0.47090000  1.0 0.0982258527
H  H53  1  0.21239000  0.36221000  0.55458000  1.0 0.0905139511
H  H54  1  0.12983000  0.40600000  0.55856000  1.0 0.0801729239
H  H55  1  0.19372000  0.38406000  0.58990000  1.0 0.0982258527
H  H56  1  0.13505000  0.34160000  0.60427000  1.0 0.0905139511
H  H57  1  0.12598000  0.32682000  0.54895000  1.0 0.0905139511
H  H58  1  0.15920000  0.25777000  0.54886000  1.0 0.0982258527
H  H59  1  0.17674000  0.28661000  0.52964000  1.0 0.0905139511
H  H60  1  0.07479000  0.37198000  0.61185000  1.0 0.0905139511
H  H61  1  0.02589000  0.40906000  0.57695000  1.0 0.0982258527
H  H62  1  0.01416000  0.42592000  0.62138000  1.0 0.0982258527
H  H63  1  0.94829000  0.38621000  0.61944000  1.0 0.0801729239
H  H64  1  0.01261000  0.33081000  0.58411000  1.0 0.0801729239
H  H65  1  0.02169000  0.26574000  0.60136000  1.0 0.0905139511
H  H66  1  0.06869000  0.28074000  0.59333000  1.0 0.0982258527
H  H67  1  0.89344000  0.36401000  0.60340000  1.0 0.0905139511
H  H68  1  0.89632000  0.41639000  0.56556000  1.0 0.0905139511
H  H69  1  0.82222000  0.39754000  0.59160000  1.0 0.0905139511
H  H70  1  0.79382000  0.35542000  0.56395000  1.0 0.0905139511
H  H71  1  0.90755000  0.33455000  0.56037000  1.0 0.0905139511
H  H72  1  0.90118000  0.26329000  0.57450000  1.0 0.0982258527
H  H73  1  0.94274000  0.28796000  0.58400000  1.0 0.0905139511
H  H74  1  0.77901000  0.35730000  0.53354000  1.0 0.0905139511
H  H75  1  0.83383000  0.40977000  0.50715000  1.0 0.0982258527
H  H76  1  0.74246000  0.39442000  0.50206000  1.0 0.0801729239
H  H77  1  0.75619000  0.34727000  0.47448000  1.0 0.0801729239
H  H78  1  0.84844000  0.33187000  0.50571000  1.0 0.0905139511
H  H79  1  0.83478000  0.25908000  0.51520000  1.0 0.0982258527
H  H80  1  0.85298000  0.28597000  0.53503000  1.0 0.0982258527
H  H81  1  0.80496000  0.57214000  0.55142000  1.0 0.3025613501
H  H82  1  0.83604000  0.58685000  0.61215000  1.0 0.2091729768
H  H83  1  0.79516000  0.75252000  0.54238000  1.0 0.3409018652
H  H84  1  0.72322000  0.69966000  0.47242000  1.0 0.1383375667
H  H85  1  0.91232000  0.56575000  0.59968000  1.0 0.3297348221
H  H86  1  0.03900000  0.53304000  0.62075000  1.0 0.3409018652
H  H87  1  0.75856000  0.56007000  0.48468000  1.0 0.2091729768
H  H88  1  0.74662000  0.56891000  0.52662000  1.0 0.1634170443
H  H89  1  0.93717000  0.74048000  0.62786000  1.0 0.3126519721
H  H90  1  0.09471000  0.54649000  0.59787000  1.0 0.3297348221
H  H91  1  0.18594000  0.55429000  0.55875000  1.0 0.2291639824
H  H92  1  0.08898000  0.72876000  0.61415000  1.0 0.1179892357
H  H93  1  0.18540000  0.54901000  0.54292000  1.0 0.2461951135
H  H94  1  0.19283000  0.54175000  0.47454000  1.0 0.2185350708
H  H95  1  0.26364000  0.68060000  0.52766000  1.0 0.2461951135
H  H96  1  0.18551000  0.54280000  0.45644000  1.0 0.2091729768
H  H97  1  0.10994000  0.55545000  0.41034000  1.0 0.2091729768
H  H98  1  0.21469000  0.73781000  0.44825000  1.0 0.3025613501
H  H99  1  0.07669000  0.55287000  0.41090000  1.0 0.2291639824
H  H100  1  0.93779000  0.54998000  0.40621000  1.0 0.2091729768
H  H101  1  0.06354000  0.67982000  0.37667000  1.0 0.1897413932
H  H102  1  0.90113000  0.55398000  0.40459000  1.0 0.2091729768
H  H103  1  0.80381000  0.56268000  0.44857000  1.0 0.2433895647
H  H104  1  0.90604000  0.73092000  0.39114000  1.0 0.1897413932
H  H105  1  0.77483000  0.65085000  0.47157000  1.0 0.0714405285
H  H106  1  0.80056000  0.66256000  0.55812000  1.0 0.0905139511
H  H107  1  0.85038000  0.69186000  0.49040000  1.0 0.0714405285
H  H108  1  0.86960000  0.60037000  0.56190000  1.0 0.0905139511
H  H109  1  0.79998000  0.71720000  0.46098000  1.0 0.0905139511
H  H110  1  0.79970000  0.74933000  0.48043000  1.0 0.0714405285
H  H111  1  0.81395000  0.63679000  0.59342000  1.0 0.0905139511
H  H112  1  0.76634000  0.66214000  0.53379000  1.0 0.0982258527
H  H113  1  0.87875000  0.66850000  0.60655000  1.0 0.0905139511
H  H114  1  0.74091000  0.62000000  0.50569000  1.0 0.0982258527
H  H115  1  0.89245000  0.67574000  0.55174000  1.0 0.0905139511
H  H116  1  0.82903000  0.59593000  0.49632000  1.0 0.0801729239
H  H117  1  0.87694000  0.75192000  0.54891000  1.0 0.1112036729
H  H118  1  0.85403000  0.72559000  0.53002000  1.0 0.0801729239
H  H119  1  0.93472000  0.63606000  0.61600000  1.0 0.0982258527
H  H120  1  0.97957000  0.58732000  0.58366000  1.0 0.0982258527
H  H121  1  0.99476000  0.58275000  0.62823000  1.0 0.0905139511
H  H122  1  0.06224000  0.61555000  0.62262000  1.0 0.0801729239
H  H123  1  0.99676000  0.66954000  0.58596000  1.0 0.0801729239
H  H124  1  0.99197000  0.73626000  0.60501000  1.0 0.0905139511
H  H125  1  0.94587000  0.72416000  0.59466000  1.0 0.0982258527
H  H126  1  0.11474000  0.63395000  0.60524000  1.0 0.0905139511
H  H127  1  0.11307000  0.57973000  0.56832000  1.0 0.0905139511
H  H128  1  0.18730000  0.60303000  0.59336000  1.0 0.0982258527
H  H129  1  0.21173000  0.64406000  0.56384000  1.0 0.0801729239
H  H130  1  0.09853000  0.66370000  0.56260000  1.0 0.0801729239
H  H131  1  0.10509000  0.73486000  0.57727000  1.0 0.1112036729
H  H132  1  0.06342000  0.70976000  0.58618000  1.0 0.1307152767
H  H133  1  0.22286000  0.61322000  0.53516000  1.0 0.0801729239
H  H134  1  0.14895000  0.58398000  0.51093000  1.0 0.0982258527
H  H135  1  0.24000000  0.56463000  0.50550000  1.0 0.1112036729
H  H136  1  0.23601000  0.60335000  0.47385000  1.0 0.0714405285
H  H137  1  0.16725000  0.66256000  0.50721000  1.0 0.0801729239
H  H138  1  0.20380000  0.72366000  0.51372000  1.0 0.1112036729
H  H139  1  0.19465000  0.70384000  0.53646000  1.0 0.0905139511
H  H140  1  0.20430000  0.62884000  0.44831000  1.0 0.0982258527
H  H141  1  0.12509000  0.57926000  0.44692000  1.0 0.0905139511
H  H142  1  0.18216000  0.60283000  0.41275000  1.0 0.0905139511
H  H143  1  0.12455000  0.64624000  0.40020000  1.0 0.0905139511
H  H144  1  0.11696000  0.66128000  0.45475000  1.0 0.0905139511
H  H145  1  0.14966000  0.73182000  0.45352000  1.0 0.0905139511
H  H146  1  0.16516000  0.70456000  0.47368000  1.0 0.0982258527
H  H147  1  0.06456000  0.61897000  0.39262000  1.0 0.0801729239
H  H148  1  0.00995000  0.58704000  0.42670000  1.0 0.0905139511
H  H149  1  0.00198000  0.57334000  0.38173000  1.0 0.0982258527
H  H150  1  0.93701000  0.61491000  0.38390000  1.0 0.0801729239
H  H151  1  0.00498000  0.66545000  0.41991000  1.0 0.0905139511
H  H152  1  0.01905000  0.72979000  0.40144000  1.0 0.0982258527
H  H153  1  0.06341000  0.71271000  0.41187000  1.0 0.0982258527
H  H154  1  0.88229000  0.63558000  0.39988000  1.0 0.0905139511
H  H155  1  0.88395000  0.58298000  0.43763000  1.0 0.0801729239
H  H156  1  0.80990000  0.60288000  0.41195000  1.0 0.0982258527
H  H157  1  0.78279000  0.64473000  0.44020000  1.0 0.0714405285
H  H158  1  0.89529000  0.66638000  0.44250000  1.0 0.0905139511
H  H159  1  0.88887000  0.73734000  0.42754000  1.0 0.0982258527
H  H160  1  0.93154000  0.71251000  0.41945000  1.0 0.0905139511
H  H161  1  0.31847000  0.67416000  0.49855000  1.0 0.2617576897
H  H162  1  0.36224000  0.67934000  0.49364000  1.0 0.2827722535
H  H163  1  0.88571000  0.80359000  0.70966000  1.0 0.2091729768
H  H164  1  0.79584000  0.87282000  0.70103000  1.0 0.1897413932
H  H165  1  0.90082000  0.77541000  0.63479000  1.0 0.3297348221
H  H166  1  0.78926000  0.91169000  0.70384000  1.0 0.2091729768
H  H167  1  0.81990000  0.03763000  0.71081000  1.0 0.3216567599
H  H168  1  0.72998000  0.92667000  0.62385000  1.0 0.2091729768
H  H169  1  0.80513000  0.09618000  0.70669000  1.0 0.2827722535
H  H170  1  0.87713000  0.19026000  0.70153000  1.0 0.2185350708
H  H171  1  0.76872000  0.08357000  0.61920000  1.0 0.3216567599
H  H172  1  0.90851000  0.16688000  0.70427000  1.0 0.2291639824
H  H173  1  0.02861000  0.20468000  0.72458000  1.0 0.3297348221
H  H174  1  0.93548000  0.26893000  0.62682000  1.0 0.2091729768
H  H175  1  0.09151000  0.19568000  0.70926000  1.0 0.3126519721
H  H176  1  0.18761000  0.11882000  0.70814000  1.0 0.2291639824
H  H177  1  0.11733000  0.20808000  0.61600000  1.0 0.3297348221
H  H178  1  0.19208000  0.08423000  0.71060000  1.0 0.2291639824
H  H179  1  0.23577000  0.96953000  0.72603000  1.0 0.2291639824
H  H180  1  0.24506000  0.07020000  0.62589000  1.0 0.2185350708
H  H181  1  0.18732000  0.90905000  0.71777000  1.0 0.3297348221
H  H182  1  0.10176000  0.81255000  0.71515000  1.0 0.2091729768
H  H183  1  0.21569000  0.90197000  0.62639000  1.0 0.1897413932
H  H184  1  0.06692000  0.80990000  0.71630000  1.0 0.2291639824
H  H185  1  0.92256000  0.80476000  0.71010000  1.0 0.2185350708
H  H186  1  0.07336000  0.74372000  0.63057000  1.0 0.2091729768
H  H187  1  0.88282000  0.78791000  0.66360000  1.0 0.0801729239
H  H188  1  0.86975000  0.86012000  0.69202000  1.0 0.0905139511
H  H189  1  0.80239000  0.80611000  0.67410000  1.0 0.0905139511
H  H190  1  0.78056000  0.86965000  0.65546000  1.0 0.0905139511
H  H191  1  0.89366000  0.87882000  0.65367000  1.0 0.0905139511
H  H192  1  0.89971000  0.85485000  0.61824000  1.0 0.1112036729
H  H193  1  0.93941000  0.83860000  0.63257000  1.0 0.0982258527
H  H194  1  0.76587000  0.92895000  0.67167000  1.0 0.0905139511
H  H195  1  0.83977000  0.97235000  0.69062000  1.0 0.0905139511
H  H196  1  0.75097000  0.99488000  0.69677000  1.0 0.0905139511
H  H197  1  0.75822000  0.05757000  0.67758000  1.0 0.0801729239
H  H198  1  0.82778000  0.98525000  0.65047000  1.0 0.0801729239
H  H199  1  0.78234000  0.97752000  0.62061000  1.0 0.0905139511
H  H200  1  0.79977000  0.93048000  0.62770000  1.0 0.0905139511
H  H201  1  0.78805000  0.10793000  0.66380000  1.0 0.0905139511
H  H202  1  0.86416000  0.11623000  0.69025000  1.0 0.0801729239
H  H203  1  0.80913000  0.18526000  0.67528000  1.0 0.0982258527
H  H204  1  0.87165000  0.20935000  0.65610000  1.0 0.0905139511
H  H205  1  0.87610000  0.09489000  0.65002000  1.0 0.0905139511
H  H206  1  0.84555000  0.09532000  0.61566000  1.0 0.0982258527
H  H207  1  0.82616000  0.05614000  0.62943000  1.0 0.0905139511
H  H208  1  0.92913000  0.22154000  0.67504000  1.0 0.0905139511
H  H209  1  0.97432000  0.14324000  0.68903000  1.0 0.0905139511
H  H210  1  0.99058000  0.23263000  0.70192000  1.0 0.0801729239
H  H211  1  0.05603000  0.23271000  0.68356000  1.0 0.0714405285
H  H212  1  0.98960000  0.16644000  0.65165000  1.0 0.0801729239
H  H213  1  0.98319000  0.21601000  0.62349000  1.0 0.0801729239
H  H214  1  0.93598000  0.19635000  0.62873000  1.0 0.0982258527
H  H215  1  0.10825000  0.20598000  0.66808000  1.0 0.0905139511
H  H216  1  0.11475000  0.13183000  0.69592000  1.0 0.0905139511
H  H217  1  0.18527000  0.18779000  0.68248000  1.0 0.0905139511
H  H218  1  0.21269000  0.12475000  0.66492000  1.0 0.0905139511
H  H219  1  0.09922000  0.11621000  0.65559000  1.0 0.0905139511
H  H220  1  0.10136000  0.14328000  0.62057000  1.0 0.0905139511
H  H221  1  0.06027000  0.16240000  0.63315000  1.0 0.0982258527
H  H222  1  0.22597000  0.06391000  0.67602000  1.0 0.0905139511
H  H223  1  0.15750000  0.01844000  0.69837000  1.0 0.0905139511
H  H224  1  0.24968000  0.00325000  0.69934000  1.0 0.0801729239
H  H225  1  0.23786000  0.93779000  0.68189000  1.0 0.0905139511
H  H226  1  0.15919000  0.00779000  0.65897000  1.0 0.0905139511
H  H227  1  0.19617000  0.01507000  0.62636000  1.0 0.0905139511
H  H228  1  0.17719000  0.06108000  0.63410000  1.0 0.0982258527
H  H229  1  0.20297000  0.88299000  0.67718000  1.0 0.0982258527
H  H230  1  0.12427000  0.88732000  0.70200000  1.0 0.0905139511
H  H231  1  0.17854000  0.81252000  0.69546000  1.0 0.0905139511
H  H232  1  0.12089000  0.78422000  0.67446000  1.0 0.0982258527
H  H233  1  0.11434000  0.89478000  0.66267000  1.0 0.0905139511
H  H234  1  0.14205000  0.88923000  0.62804000  1.0 0.0982258527
H  H235  1  0.16030000  0.93180000  0.63962000  1.0 0.0905139511
H  H236  1  0.05751000  0.77260000  0.68315000  1.0 0.0905139511
H  H237  1  0.00601000  0.84612000  0.69730000  1.0 0.0905139511
H  H238  1  0.98784000  0.75561000  0.70449000  1.0 0.0982258527
H  H239  1  0.93200000  0.75806000  0.67994000  1.0 0.0801729239
H  H240  1  0.00533000  0.83286000  0.65894000  1.0 0.0801729239
H  H241  1  0.02357000  0.79345000  0.62839000  1.0 0.0905139511
H  H242  1  0.06683000  0.81405000  0.63843000  1.0 0.0982258527
H  H243  1  0.23082000  0.71939000  0.49900000  1.0 0.0982258527
H  H244  1  0.12779000  0.73677000  0.56328000  1.0 0.2617576897
H  H245  1  0.80693000  0.55415000  0.46332000  1.0 0.2291639824
H  H246  1  0.78508000  0.52463000  0.52029000  1.0 0.289532886
H  H247  1  0.69042000  0.67765000  0.48006000  1.0 0.2291639824
H  H248  1  0.06374000  0.70898000  0.58844000  1.0 0.1307152767
H  H249  1  0.10981000  0.71588000  0.60009000  1.0 0.1112036729
H  H250  1  0.18766000  0.71128000  0.53207000  1.0 0.0905139511
H  H251  1  0.23619000  0.69289000  0.53311000  1.0 0.1307152767
H  H252  1  0.77001000  0.62381000  0.46896000  1.0 0.0982258527
H  H253  1  0.84099000  0.58715000  0.49216000  1.0 0.0801729239
H  H254  1  0.75223000  0.57750000  0.50596000  1.0 0.0801729239
H  H255  1  0.82555000  0.68630000  0.49006000  1.0 0.1112036729
H  H256  1  0.75656000  0.68070000  0.46586000  1.0 0.0714405285
H  H257  1  0.76616000  0.72158000  0.47972000  1.0 0.1307152767
H  H258  1  0.74800000  0.61400000  0.53100000  1.0 0.0905139511
H  H259  1  0.20168000  0.57478000  0.95175000  1.0 0.3297348221
H  H260  1  0.12377000  0.59034000  0.90243000  1.0 0.3126519721
H  H261  1  0.23537000  0.73543000  0.96185000  1.0 0.3126519721
H  H262  1  0.05834000  0.55122000  0.91134000  1.0 0.3490727518
H  H263  1  0.98569000  0.55163000  0.90880000  1.0 0.3409018652
H  H264  1  0.07463000  0.75286000  0.87465000  1.0 0.1998830532
H  H265  1  0.91190000  0.56868000  0.90781000  1.0 0.3297348221
H  H266  1  0.81733000  0.57251000  0.94180000  1.0 0.2091729768
H  H267  1  0.91646000  0.73533000  0.89079000  1.0 0.2185350708
H  H268  1  0.82003000  0.56930000  0.95829000  1.0 0.2291639824
H  H269  1  0.76993000  0.53521000  0.01715000  1.0 0.2185350708
H  H270  1  0.74157000  0.73398000  0.96524000  1.0 0.2091729768
H  H271  1  0.83602000  0.53610000  0.05787000  1.0 0.3297348221
H  H272  1  0.87796000  0.57008000  0.09713000  1.0 0.1998830532
H  H273  1  0.76635000  0.73793000  0.04320000  1.0 0.1998830532
H  H274  1  0.90945000  0.55938000  0.09805000  1.0 0.2291639824
H  H275  1  0.05028000  0.54950000  0.10149000  1.0 0.2185350708
H  H276  1  0.92916000  0.74180000  0.12545000  1.0 0.3025613501
H  H277  1  0.08444000  0.54950000  0.09565000  1.0 0.2091729768
H  H278  1  0.18878000  0.56329000  0.05522000  1.0 0.2185350708
H  H279  1  0.08470000  0.72463000  0.11271000  1.0 0.2091729768
H  H280  1  0.19727000  0.56091000  0.03784000  1.0 0.2185350708
H  H281  1  0.23649000  0.54668000  0.98653000  1.0 0.3297348221
H  H282  1  0.20459000  0.74650000  0.04579000  1.0 0.3126519721
H  H283  1  0.21419000  0.65891000  0.94635000  1.0 0.0905139511
H  H284  1  0.13676000  0.60666000  0.94181000  1.0 0.0905139511
H  H285  1  0.19511000  0.63664000  0.90972000  1.0 0.0982258527
H  H286  1  0.13467000  0.67786000  0.89686000  1.0 0.0905139511
H  H287  1  0.12589000  0.68934000  0.95222000  1.0 0.0905139511
H  H288  1  0.15931000  0.76050000  0.95224000  1.0 0.0982258527
H  H289  1  0.17355000  0.73184000  0.97215000  1.0 0.0905139511
H  H290  1  0.07320000  0.65069000  0.88924000  1.0 0.0982258527
H  H291  1  0.02689000  0.60936000  0.92344000  1.0 0.0801729239
H  H292  1  0.01052000  0.60140000  0.87893000  1.0 0.0982258527
H  H293  1  0.94515000  0.63779000  0.88405000  1.0 0.0801729239
H  H294  1  0.01583000  0.69095000  0.91970000  1.0 0.0801729239
H  H295  1  0.02356000  0.75568000  0.90001000  1.0 0.0905139511
H  H296  1  0.07050000  0.74028000  0.90833000  1.0 0.0982258527
H  H297  1  0.89248000  0.65671000  0.90026000  1.0 0.0905139511
H  H298  1  0.89016000  0.60225000  0.93717000  1.0 0.0905139511
H  H299  1  0.81996000  0.62740000  0.90985000  1.0 0.0982258527
H  H300  1  0.79197000  0.66599000  0.93943000  1.0 0.0905139511
H  H301  1  0.90574000  0.68405000  0.94328000  1.0 0.0905139511
H  H302  1  0.90351000  0.75625000  0.92960000  1.0 0.0982258527
H  H303  1  0.94399000  0.72988000  0.92007000  1.0 0.0801729239
H  H304  1  0.77849000  0.63302000  0.96706000  1.0 0.0905139511
H  H305  1  0.84959000  0.59869000  0.99233000  1.0 0.0982258527
H  H306  1  0.75772000  0.58247000  0.99387000  1.0 0.0905139511
H  H307  1  0.75786000  0.61595000  0.02733000  1.0 0.0714405285
H  H308  1  0.83306000  0.67718000  0.99747000  1.0 0.0801729239
H  H309  1  0.78917000  0.73911000  0.99321000  1.0 0.0905139511
H  H310  1  0.81060000  0.72680000  0.97090000  1.0 0.0982258527
H  H311  1  0.78761000  0.63779000  0.05458000  1.0 0.0905139511
H  H312  1  0.87017000  0.59400000  0.05856000  1.0 0.0801729239
H  H313  1  0.80628000  0.61594000  0.08990000  1.0 0.0982258527
H  H314  1  0.86495000  0.65840000  0.10427000  1.0 0.0905139511
H  H315  1  0.87402000  0.67318000  0.04895000  1.0 0.0905139511
H  H316  1  0.84080000  0.74223000  0.04886000  1.0 0.0982258527
H  H317  1  0.82326000  0.71339000  0.02964000  1.0 0.0905139511
H  H318  1  0.92521000  0.62802000  0.11185000  1.0 0.0905139511
H  H319  1  0.97411000  0.59094000  0.07695000  1.0 0.0982258527
H  H320  1  0.98584000  0.57408000  0.12138000  1.0 0.0982258527
H  H321  1  0.05171000  0.61379000  0.11944000  1.0 0.0801729239
H  H322  1  0.98739000  0.66919000  0.08411000  1.0 0.0801729239
H  H323  1  0.97831000  0.73426000  0.10136000  1.0 0.0905139511
H  H324  1  0.93131000  0.71926000  0.09333000  1.0 0.0982258527
H  H325  1  0.10656000  0.63599000  0.10340000  1.0 0.0905139511
H  H326  1  0.10368000  0.58361000  0.06556000  1.0 0.0905139511
H  H327  1  0.17778000  0.60246000  0.09160000  1.0 0.0905139511
H  H328  1  0.20618000  0.64458000  0.06395000  1.0 0.0905139511
H  H329  1  0.09245000  0.66545000  0.06037000  1.0 0.0905139511
H  H330  1  0.09882000  0.73671000  0.07450000  1.0 0.0982258527
H  H331  1  0.05726000  0.71204000  0.08400000  1.0 0.0905139511
H  H332  1  0.22099000  0.64270000  0.03354000  1.0 0.0905139511
H  H333  1  0.16617000  0.59023000  0.00715000  1.0 0.0982258527
H  H334  1  0.25754000  0.60558000  0.00206000  1.0 0.0801729239
H  H335  1  0.24381000  0.65273000  0.97448000  1.0 0.0801729239
H  H336  1  0.15156000  0.66813000  0.00571000  1.0 0.0905139511
H  H337  1  0.16522000  0.74092000  0.01520000  1.0 0.0982258527
H  H338  1  0.14702000  0.71403000  0.03503000  1.0 0.0982258527
H  H339  1  0.19504000  0.42786000  0.05142000  1.0 0.3025613501
H  H340  1  0.16396000  0.41315000  0.11215000  1.0 0.2091729768
H  H341  1  0.20484000  0.24748000  0.04238000  1.0 0.3409018652
H  H342  1  0.27678000  0.30034000  0.97242000  1.0 0.1383375667
H  H343  1  0.08768000  0.43425000  0.09968000  1.0 0.3297348221
H  H344  1  0.96100000  0.46696000  0.12075000  1.0 0.3409018652
H  H345  1  0.24144000  0.43993000  0.98468000  1.0 0.2091729768
H  H346  1  0.25338000  0.43109000  0.02662000  1.0 0.1634170443
H  H347  1  0.06283000  0.25952000  0.12786000  1.0 0.3126519721
H  H348  1  0.90529000  0.45351000  0.09787000  1.0 0.3297348221
H  H349  1  0.81406000  0.44571000  0.05875000  1.0 0.2291639824
H  H350  1  0.91102000  0.27124000  0.11415000  1.0 0.1179892357
H  H351  1  0.81460000  0.45099000  0.04292000  1.0 0.2461951135
H  H352  1  0.80717000  0.45825000  0.97454000  1.0 0.2185350708
H  H353  1  0.73636000  0.31940000  0.02766000  1.0 0.2461951135
H  H354  1  0.81449000  0.45720000  0.95644000  1.0 0.2091729768
H  H355  1  0.89006000  0.44455000  0.91034000  1.0 0.2091729768
H  H356  1  0.78531000  0.26219000  0.94825000  1.0 0.3025613501
H  H357  1  0.92331000  0.44713000  0.91090000  1.0 0.2291639824
H  H358  1  0.06221000  0.45002000  0.90621000  1.0 0.2091729768
H  H359  1  0.93646000  0.32018000  0.87667000  1.0 0.1897413932
H  H360  1  0.09887000  0.44602000  0.90459000  1.0 0.2091729768
H  H361  1  0.19619000  0.43732000  0.94857000  1.0 0.2433895647
H  H362  1  0.09396000  0.26908000  0.89114000  1.0 0.1897413932
H  H363  1  0.22517000  0.34915000  0.97157000  1.0 0.0714405285
H  H364  1  0.19944000  0.33744000  0.05812000  1.0 0.0905139511
H  H365  1  0.14962000  0.30814000  0.99040000  1.0 0.0714405285
H  H366  1  0.13040000  0.39963000  0.06190000  1.0 0.0905139511
H  H367  1  0.20002000  0.28280000  0.96098000  1.0 0.0905139511
H  H368  1  0.20030000  0.25067000  0.98043000  1.0 0.0714405285
H  H369  1  0.18605000  0.36321000  0.09342000  1.0 0.0905139511
H  H370  1  0.23366000  0.33786000  0.03379000  1.0 0.0982258527
H  H371  1  0.12125000  0.33150000  0.10655000  1.0 0.0905139511
H  H372  1  0.25909000  0.38000000  0.00569000  1.0 0.0982258527
H  H373  1  0.10755000  0.32426000  0.05174000  1.0 0.0905139511
H  H374  1  0.17097000  0.40407000  0.99632000  1.0 0.0801729239
H  H375  1  0.12306000  0.24808000  0.04891000  1.0 0.1112036729
H  H376  1  0.14597000  0.27441000  0.03002000  1.0 0.0801729239
H  H377  1  0.06528000  0.36394000  0.11600000  1.0 0.0982258527
H  H378  1  0.02043000  0.41268000  0.08366000  1.0 0.0982258527
H  H379  1  0.00524000  0.41725000  0.12823000  1.0 0.0905139511
H  H380  1  0.93776000  0.38445000  0.12262000  1.0 0.0801729239
H  H381  1  0.00324000  0.33046000  0.08596000  1.0 0.0801729239
H  H382  1  0.00803000  0.26374000  0.10501000  1.0 0.0905139511
H  H383  1  0.05413000  0.27584000  0.09466000  1.0 0.0982258527
H  H384  1  0.88526000  0.36605000  0.10524000  1.0 0.0905139511
H  H385  1  0.88693000  0.42027000  0.06832000  1.0 0.0905139511
H  H386  1  0.81270000  0.39697000  0.09336000  1.0 0.0982258527
H  H387  1  0.78827000  0.35594000  0.06384000  1.0 0.0801729239
H  H388  1  0.90147000  0.33630000  0.06260000  1.0 0.0801729239
H  H389  1  0.89491000  0.26514000  0.07727000  1.0 0.1112036729
H  H390  1  0.93658000  0.29024000  0.08618000  1.0 0.1307152767
H  H391  1  0.77714000  0.38678000  0.03516000  1.0 0.0801729239
H  H392  1  0.85105000  0.41602000  0.01093000  1.0 0.0982258527
H  H393  1  0.76000000  0.43537000  0.00550000  1.0 0.1112036729
H  H394  1  0.76399000  0.39665000  0.97385000  1.0 0.0714405285
H  H395  1  0.83275000  0.33744000  0.00721000  1.0 0.0801729239
H  H396  1  0.79620000  0.27634000  0.01372000  1.0 0.1179892357
H  H397  1  0.80535000  0.29616000  0.03646000  1.0 0.0905139511
H  H398  1  0.79570000  0.37116000  0.94831000  1.0 0.0982258527
H  H399  1  0.87491000  0.42074000  0.94692000  1.0 0.0905139511
H  H400  1  0.81784000  0.39717000  0.91275000  1.0 0.0905139511
H  H401  1  0.87545000  0.35376000  0.90020000  1.0 0.0905139511
H  H402  1  0.88304000  0.33872000  0.95475000  1.0 0.0905139511
H  H403  1  0.85034000  0.26818000  0.95352000  1.0 0.0905139511
H  H404  1  0.83484000  0.29544000  0.97368000  1.0 0.0982258527
H  H405  1  0.93544000  0.38103000  0.89262000  1.0 0.0801729239
H  H406  1  0.99005000  0.41296000  0.92670000  1.0 0.0905139511
H  H407  1  0.99802000  0.42666000  0.88173000  1.0 0.0982258527
H  H408  1  0.06299000  0.38509000  0.88390000  1.0 0.0801729239
H  H409  1  0.99502000  0.33455000  0.91991000  1.0 0.0905139511
H  H410  1  0.98095000  0.27021000  0.90144000  1.0 0.0982258527
H  H411  1  0.93659000  0.28729000  0.91187000  1.0 0.0982258527
H  H412  1  0.11771000  0.36442000  0.89988000  1.0 0.0905139511
H  H413  1  0.11605000  0.41702000  0.93763000  1.0 0.0905139511
H  H414  1  0.19010000  0.39712000  0.91195000  1.0 0.0982258527
H  H415  1  0.21721000  0.35527000  0.94020000  1.0 0.0714405285
H  H416  1  0.10471000  0.33362000  0.94250000  1.0 0.0905139511
H  H417  1  0.11113000  0.26266000  0.92754000  1.0 0.0982258527
H  H418  1  0.06846000  0.28749000  0.91945000  1.0 0.0801729239
H  H419  1  0.68153000  0.32584000  0.99855000  1.0 0.2617576897
H  H420  1  0.63776000  0.32066000  0.99364000  1.0 0.2827722535
H  H421  1  0.11429000  0.19641000  0.20966000  1.0 0.2091729768
H  H422  1  0.20416000  0.12718000  0.20103000  1.0 0.1897413932
H  H423  1  0.09918000  0.22459000  0.13479000  1.0 0.3297348221
H  H424  1  0.21074000  0.08831000  0.20384000  1.0 0.2091729768
H  H425  1  0.18010000  0.96237000  0.21081000  1.0 0.3216567599
H  H426  1  0.27002000  0.07333000  0.12385000  1.0 0.1998830532
H  H427  1  0.19487000  0.90382000  0.20669000  1.0 0.2827722535
H  H428  1  0.12287000  0.80974000  0.20153000  1.0 0.2185350708
H  H429  1  0.23128000  0.91643000  0.11920000  1.0 0.3216567599
H  H430  1  0.09149000  0.83312000  0.20427000  1.0 0.2291639824
H  H431  1  0.97139000  0.79532000  0.22458000  1.0 0.3297348221
H  H432  1  0.06452000  0.73107000  0.12682000  1.0 0.2091729768
H  H433  1  0.90849000  0.80432000  0.20926000  1.0 0.3126519721
H  H434  1  0.81239000  0.88118000  0.20814000  1.0 0.2291639824
H  H435  1  0.88267000  0.79192000  0.11600000  1.0 0.3297348221
H  H436  1  0.80792000  0.91577000  0.21060000  1.0 0.2291639824
H  H437  1  0.76423000  0.03047000  0.22603000  1.0 0.2291639824
H  H438  1  0.75494000  0.92980000  0.12589000  1.0 0.2291639824
H  H439  1  0.81268000  0.09095000  0.21777000  1.0 0.3297348221
H  H440  1  0.89824000  0.18745000  0.21515000  1.0 0.2091729768
H  H441  1  0.78431000  0.09803000  0.12639000  1.0 0.1897413932
H  H442  1  0.93308000  0.19010000  0.21630000  1.0 0.2291639824
H  H443  1  0.07744000  0.19524000  0.21010000  1.0 0.2185350708
H  H444  1  0.92664000  0.25628000  0.13057000  1.0 0.2091729768
H  H445  1  0.11718000  0.21209000  0.16360000  1.0 0.0801729239
H  H446  1  0.13025000  0.13988000  0.19202000  1.0 0.0905139511
H  H447  1  0.19761000  0.19389000  0.17410000  1.0 0.0905139511
H  H448  1  0.21944000  0.13035000  0.15546000  1.0 0.0905139511
H  H449  1  0.10634000  0.12118000  0.15367000  1.0 0.0905139511
H  H450  1  0.10029000  0.14515000  0.11824000  1.0 0.1112036729
H  H451  1  0.06059000  0.16140000  0.13257000  1.0 0.0982258527
H  H452  1  0.23413000  0.07105000  0.17167000  1.0 0.0905139511
H  H453  1  0.16023000  0.02765000  0.19062000  1.0 0.0905139511
H  H454  1  0.24903000  0.00512000  0.19677000  1.0 0.0905139511
H  H455  1  0.24178000  0.94243000  0.17758000  1.0 0.0801729239
H  H456  1  0.17222000  0.01475000  0.15047000  1.0 0.0801729239
H  H457  1  0.21766000  0.02248000  0.12061000  1.0 0.0905139511
H  H458  1  0.20023000  0.06952000  0.12770000  1.0 0.0905139511
H  H459  1  0.21195000  0.89207000  0.16380000  1.0 0.0905139511
H  H460  1  0.13584000  0.88377000  0.19025000  1.0 0.0801729239
H  H461  1  0.19087000  0.81474000  0.17528000  1.0 0.0982258527
H  H462  1  0.12835000  0.79065000  0.15610000  1.0 0.0905139511
H  H463  1  0.12390000  0.90511000  0.15002000  1.0 0.0905139511
H  H464  1  0.15445000  0.90468000  0.11566000  1.0 0.0982258527
H  H465  1  0.17384000  0.94386000  0.12943000  1.0 0.0905139511
H  H466  1  0.07087000  0.77846000  0.17504000  1.0 0.0905139511
H  H467  1  0.02568000  0.85676000  0.18903000  1.0 0.0905139511
H  H468  1  0.00942000  0.76737000  0.20192000  1.0 0.0801729239
H  H469  1  0.94397000  0.76729000  0.18356000  1.0 0.0714405285
H  H470  1  0.01040000  0.83356000  0.15165000  1.0 0.0801729239
H  H471  1  0.01681000  0.78399000  0.12349000  1.0 0.0801729239
H  H472  1  0.06402000  0.80365000  0.12873000  1.0 0.0982258527
H  H473  1  0.89175000  0.79402000  0.16808000  1.0 0.0905139511
H  H474  1  0.88525000  0.86817000  0.19592000  1.0 0.0905139511
H  H475  1  0.81473000  0.81221000  0.18248000  1.0 0.0905139511
H  H476  1  0.78731000  0.87525000  0.16492000  1.0 0.0905139511
H  H477  1  0.90078000  0.88379000  0.15559000  1.0 0.0905139511
H  H478  1  0.89864000  0.85672000  0.12057000  1.0 0.0905139511
H  H479  1  0.93973000  0.83760000  0.13315000  1.0 0.0982258527
H  H480  1  0.77403000  0.93609000  0.17602000  1.0 0.0905139511
H  H481  1  0.84250000  0.98156000  0.19837000  1.0 0.0905139511
H  H482  1  0.75032000  0.99675000  0.19934000  1.0 0.0801729239
H  H483  1  0.76214000  0.06221000  0.18189000  1.0 0.0905139511
H  H484  1  0.84081000  0.99221000  0.15897000  1.0 0.0905139511
H  H485  1  0.80383000  0.98493000  0.12636000  1.0 0.0905139511
H  H486  1  0.82281000  0.93892000  0.13410000  1.0 0.0982258527
H  H487  1  0.79703000  0.11701000  0.17718000  1.0 0.0982258527
H  H488  1  0.87573000  0.11268000  0.20200000  1.0 0.0905139511
H  H489  1  0.82146000  0.18748000  0.19546000  1.0 0.0905139511
H  H490  1  0.87911000  0.21578000  0.17446000  1.0 0.0982258527
H  H491  1  0.88566000  0.10522000  0.16267000  1.0 0.0905139511
H  H492  1  0.85795000  0.11077000  0.12804000  1.0 0.0982258527
H  H493  1  0.83970000  0.06820000  0.13962000  1.0 0.0905139511
H  H494  1  0.94249000  0.22740000  0.18315000  1.0 0.0905139511
H  H495  1  0.99399000  0.15388000  0.19730000  1.0 0.0905139511
H  H496  1  0.01216000  0.24439000  0.20449000  1.0 0.0982258527
H  H497  1  0.06800000  0.24194000  0.17994000  1.0 0.0801729239
H  H498  1  0.99467000  0.16714000  0.15894000  1.0 0.0801729239
H  H499  1  0.97643000  0.20655000  0.12839000  1.0 0.0905139511
H  H500  1  0.93317000  0.18595000  0.13843000  1.0 0.0982258527
H  H501  1  0.76918000  0.28061000  0.99900000  1.0 0.0982258527
H  H502  1  0.87221000  0.26323000  0.06328000  1.0 0.2617576897
H  H503  1  0.19307000  0.44585000  0.96332000  1.0 0.2291639824
H  H504  1  0.21492000  0.47537000  0.02029000  1.0 0.289532886
H  H505  1  0.30958000  0.32235000  0.98006000  1.0 0.2291639824
H  H506  1  0.93626000  0.29102000  0.08844000  1.0 0.1307152767
H  H507  1  0.89019000  0.28412000  0.10009000  1.0 0.1112036729
H  H508  1  0.81234000  0.28872000  0.03207000  1.0 0.0905139511
H  H509  1  0.76381000  0.30711000  0.03311000  1.0 0.1307152767
H  H510  1  0.22999000  0.37619000  0.96896000  1.0 0.0982258527
H  H511  1  0.15901000  0.41285000  0.99216000  1.0 0.0801729239
H  H512  1  0.24777000  0.42250000  0.00596000  1.0 0.0801729239
H  H513  1  0.17445000  0.31370000  0.99006000  1.0 0.1112036729
H  H514  1  0.24344000  0.31930000  0.96586000  1.0 0.0714405285
H  H515  1  0.23384000  0.27842000  0.97972000  1.0 0.1307152767
H  H516  1  0.25200000  0.38600000  0.03100000  1.0 0.0905139511
H  H517  1  0.07478000  0.29832000  0.70175000  1.0 0.3297348221
H  H518  1  0.09034000  0.37623000  0.65243000  1.0 0.3126519721
H  H519  1  0.23543000  0.26463000  0.71185000  1.0 0.3126519721
H  H520  1  0.05122000  0.44166000  0.66134000  1.0 0.3490727518
H  H521  1  0.05163000  0.51431000  0.65880000  1.0 0.3409018652
H  H522  1  0.25286000  0.42537000  0.62465000  1.0 0.1998830532
H  H523  1  0.06868000  0.58810000  0.65781000  1.0 0.3297348221
H  H524  1  0.07251000  0.68267000  0.69180000  1.0 0.2091729768
H  H525  1  0.23533000  0.58354000  0.64079000  1.0 0.2185350708
H  H526  1  0.06930000  0.67997000  0.70829000  1.0 0.2291639824
H  H527  1  0.03521000  0.73007000  0.76715000  1.0 0.2185350708
H  H528  1  0.23398000  0.75843000  0.71524000  1.0 0.2091729768
H  H529  1  0.03610000  0.66398000  0.80787000  1.0 0.3297348221
H  H530  1  0.07008000  0.62204000  0.84713000  1.0 0.1998830532
H  H531  1  0.23793000  0.73365000  0.79320000  1.0 0.1998830532
H  H532  1  0.05938000  0.59055000  0.84805000  1.0 0.2291639824
H  H533  1  0.04950000  0.44972000  0.85149000  1.0 0.2185350708
H  H534  1  0.24180000  0.57084000  0.87545000  1.0 0.3025613501
H  H535  1  0.04950000  0.41556000  0.84565000  1.0 0.2091729768
H  H536  1  0.06329000  0.31122000  0.80522000  1.0 0.2185350708
H  H537  1  0.22463000  0.41530000  0.86271000  1.0 0.2091729768
H  H538  1  0.06091000  0.30273000  0.78784000  1.0 0.2185350708
H  H539  1  0.04668000  0.26351000  0.73653000  1.0 0.3297348221
H  H540  1  0.24650000  0.29541000  0.79579000  1.0 0.3126519721
H  H541  1  0.15891000  0.28581000  0.69635000  1.0 0.0905139511
H  H542  1  0.10666000  0.36324000  0.69181000  1.0 0.0905139511
H  H543  1  0.13664000  0.30489000  0.65972000  1.0 0.0982258527
H  H544  1  0.17786000  0.36533000  0.64686000  1.0 0.0905139511
H  H545  1  0.18934000  0.37411000  0.70222000  1.0 0.0905139511
H  H546  1  0.26050000  0.34069000  0.70224000  1.0 0.0982258527
H  H547  1  0.23184000  0.32645000  0.72215000  1.0 0.0905139511
H  H548  1  0.15069000  0.42680000  0.63924000  1.0 0.0982258527
H  H549  1  0.10936000  0.47311000  0.67344000  1.0 0.0801729239
H  H550  1  0.10140000  0.48948000  0.62893000  1.0 0.0982258527
H  H551  1  0.13779000  0.55485000  0.63405000  1.0 0.0801729239
H  H552  1  0.19095000  0.48417000  0.66970000  1.0 0.0801729239
H  H553  1  0.25568000  0.47644000  0.65001000  1.0 0.0905139511
H  H554  1  0.24028000  0.42950000  0.65833000  1.0 0.0982258527
H  H555  1  0.15671000  0.60752000  0.65026000  1.0 0.0905139511
H  H556  1  0.10225000  0.60984000  0.68717000  1.0 0.0905139511
H  H557  1  0.12740000  0.68004000  0.65985000  1.0 0.0982258527
H  H558  1  0.16599000  0.70803000  0.68943000  1.0 0.0905139511
H  H559  1  0.18405000  0.59426000  0.69328000  1.0 0.0905139511
H  H560  1  0.25625000  0.59649000  0.67960000  1.0 0.0982258527
H  H561  1  0.22988000  0.55601000  0.67007000  1.0 0.0801729239
H  H562  1  0.13302000  0.72151000  0.71706000  1.0 0.0905139511
H  H563  1  0.09869000  0.65041000  0.74233000  1.0 0.0982258527
H  H564  1  0.08247000  0.74228000  0.74387000  1.0 0.0905139511
H  H565  1  0.11595000  0.74214000  0.77733000  1.0 0.0714405285
H  H566  1  0.17718000  0.66694000  0.74747000  1.0 0.0801729239
H  H567  1  0.23911000  0.71083000  0.74321000  1.0 0.0905139511
H  H568  1  0.22680000  0.68940000  0.72090000  1.0 0.0982258527
H  H569  1  0.13779000  0.71239000  0.80458000  1.0 0.0905139511
H  H570  1  0.09400000  0.62983000  0.80856000  1.0 0.0801729239
H  H571  1  0.11594000  0.69372000  0.83990000  1.0 0.0982258527
H  H572  1  0.15840000  0.63505000  0.85427000  1.0 0.0905139511
H  H573  1  0.17318000  0.62598000  0.79895000  1.0 0.0905139511
H  H574  1  0.24223000  0.65920000  0.79886000  1.0 0.0982258527
H  H575  1  0.21339000  0.67674000  0.77964000  1.0 0.0905139511
H  H576  1  0.12802000  0.57479000  0.86185000  1.0 0.0905139511
H  H577  1  0.09094000  0.52589000  0.82695000  1.0 0.0982258527
H  H578  1  0.07408000  0.51416000  0.87138000  1.0 0.0982258527
H  H579  1  0.11379000  0.44829000  0.86944000  1.0 0.0801729239
H  H580  1  0.16919000  0.51261000  0.83411000  1.0 0.0801729239
H  H581  1  0.23426000  0.52169000  0.85136000  1.0 0.0905139511
H  H582  1  0.21926000  0.56869000  0.84333000  1.0 0.0982258527
H  H583  1  0.13599000  0.39344000  0.85340000  1.0 0.0905139511
H  H584  1  0.08361000  0.39632000  0.81556000  1.0 0.0905139511
H  H585  1  0.10246000  0.32222000  0.84160000  1.0 0.0905139511
H  H586  1  0.14458000  0.29382000  0.81395000  1.0 0.0905139511
H  H587  1  0.16545000  0.40755000  0.81037000  1.0 0.0905139511
H  H588  1  0.23671000  0.40118000  0.82450000  1.0 0.0982258527
H  H589  1  0.21204000  0.44274000  0.83400000  1.0 0.0905139511
H  H590  1  0.14270000  0.27901000  0.78354000  1.0 0.0905139511
H  H591  1  0.09023000  0.33383000  0.75715000  1.0 0.0905139511
H  H592  1  0.10558000  0.24246000  0.75206000  1.0 0.0801729239
H  H593  1  0.15273000  0.25619000  0.72448000  1.0 0.0801729239
H  H594  1  0.16813000  0.34844000  0.75571000  1.0 0.0905139511
H  H595  1  0.24092000  0.33478000  0.76520000  1.0 0.0982258527
H  H596  1  0.21403000  0.35298000  0.78503000  1.0 0.0982258527
H  H597  1  0.92786000  0.30496000  0.80142000  1.0 0.3025613501
H  H598  1  0.91315000  0.33604000  0.86215000  1.0 0.2091729768
H  H599  1  0.74748000  0.29516000  0.79238000  1.0 0.3409018652
H  H600  1  0.80034000  0.22322000  0.72242000  1.0 0.1383375667
H  H601  1  0.93425000  0.41232000  0.84968000  1.0 0.3297348221
H  H602  1  0.96696000  0.53900000  0.87075000  1.0 0.3409018652
H  H603  1  0.93993000  0.25856000  0.73468000  1.0 0.2091729768
H  H604  1  0.93109000  0.24662000  0.77662000  1.0 0.1634170443
H  H605  1  0.75952000  0.43717000  0.87786000  1.0 0.3126519721
H  H606  1  0.95351000  0.59471000  0.84787000  1.0 0.3297348221
H  H607  1  0.94571000  0.68594000  0.80875000  1.0 0.2291639824
H  H608  1  0.77124000  0.58898000  0.86415000  1.0 0.1179892357
H  H609  1  0.95099000  0.68540000  0.79292000  1.0 0.2461951135
H  H610  1  0.95825000  0.69283000  0.72454000  1.0 0.2185350708
H  H611  1  0.81940000  0.76364000  0.77766000  1.0 0.2461951135
H  H612  1  0.95720000  0.68551000  0.70644000  1.0 0.2091729768
H  H613  1  0.94455000  0.60994000  0.66034000  1.0 0.2091729768
H  H614  1  0.76219000  0.71469000  0.69825000  1.0 0.3025613501
H  H615  1  0.94713000  0.57669000  0.66090000  1.0 0.2291639824
H  H616  1  0.95002000  0.43779000  0.65621000  1.0 0.2091729768
H  H617  1  0.82018000  0.56354000  0.62667000  1.0 0.1897413932
H  H618  1  0.94602000  0.40113000  0.65459000  1.0 0.2091729768
H  H619  1  0.93732000  0.30381000  0.69857000  1.0 0.2433895647
H  H620  1  0.76908000  0.40604000  0.64114000  1.0 0.1897413932
H  H621  1  0.84915000  0.27483000  0.72157000  1.0 0.0714405285
H  H622  1  0.83744000  0.30056000  0.80812000  1.0 0.0905139511
H  H623  1  0.80814000  0.35038000  0.74040000  1.0 0.0714405285
H  H624  1  0.89963000  0.36960000  0.81190000  1.0 0.0905139511
H  H625  1  0.78280000  0.29998000  0.71098000  1.0 0.0905139511
H  H626  1  0.75067000  0.29970000  0.73043000  1.0 0.0714405285
H  H627  1  0.86321000  0.31395000  0.84342000  1.0 0.0905139511
H  H628  1  0.83786000  0.26634000  0.78379000  1.0 0.0982258527
H  H629  1  0.83150000  0.37875000  0.85655000  1.0 0.0905139511
H  H630  1  0.88000000  0.24091000  0.75569000  1.0 0.0982258527
H  H631  1  0.82426000  0.39245000  0.80174000  1.0 0.0905139511
H  H632  1  0.90407000  0.32903000  0.74632000  1.0 0.0801729239
H  H633  1  0.74808000  0.37694000  0.79891000  1.0 0.1112036729
H  H634  1  0.77441000  0.35403000  0.78002000  1.0 0.0801729239
H  H635  1  0.86394000  0.43472000  0.86600000  1.0 0.0982258527
H  H636  1  0.91268000  0.47957000  0.83366000  1.0 0.0982258527
H  H637  1  0.91725000  0.49476000  0.87823000  1.0 0.0905139511
H  H638  1  0.88445000  0.56224000  0.87262000  1.0 0.0801729239
H  H639  1  0.83046000  0.49676000  0.83596000  1.0 0.0801729239
H  H640  1  0.76374000  0.49197000  0.85501000  1.0 0.0905139511
H  H641  1  0.77584000  0.44587000  0.84466000  1.0 0.0982258527
H  H642  1  0.86605000  0.61474000  0.85524000  1.0 0.0905139511
H  H643  1  0.92027000  0.61307000  0.81832000  1.0 0.0905139511
H  H644  1  0.89697000  0.68730000  0.84336000  1.0 0.0982258527
H  H645  1  0.85594000  0.71173000  0.81384000  1.0 0.0801729239
H  H646  1  0.83630000  0.59853000  0.81260000  1.0 0.0801729239
H  H647  1  0.76514000  0.60509000  0.82727000  1.0 0.1112036729
H  H648  1  0.79024000  0.56342000  0.83618000  1.0 0.1307152767
H  H649  1  0.88678000  0.72286000  0.78516000  1.0 0.0801729239
H  H650  1  0.91602000  0.64895000  0.76093000  1.0 0.0982258527
H  H651  1  0.93537000  0.74000000  0.75550000  1.0 0.1112036729
H  H652  1  0.89665000  0.73601000  0.72385000  1.0 0.0714405285
H  H653  1  0.83744000  0.66725000  0.75721000  1.0 0.0905139511
H  H654  1  0.77634000  0.70380000  0.76372000  1.0 0.1179892357
H  H655  1  0.79616000  0.69465000  0.78646000  1.0 0.0905139511
H  H656  1  0.87116000  0.70430000  0.69831000  1.0 0.0982258527
H  H657  1  0.92074000  0.62509000  0.69692000  1.0 0.0905139511
H  H658  1  0.89717000  0.68216000  0.66275000  1.0 0.0905139511
H  H659  1  0.85376000  0.62455000  0.65020000  1.0 0.0905139511
H  H660  1  0.83872000  0.61696000  0.70475000  1.0 0.0905139511
H  H661  1  0.76818000  0.64966000  0.70352000  1.0 0.0905139511
H  H662  1  0.79544000  0.66516000  0.72368000  1.0 0.0982258527
H  H663  1  0.88103000  0.56456000  0.64262000  1.0 0.0801729239
H  H664  1  0.91296000  0.50995000  0.67670000  1.0 0.0905139511
H  H665  1  0.92666000  0.50198000  0.63173000  1.0 0.0982258527
H  H666  1  0.88509000  0.43701000  0.63390000  1.0 0.0801729239
H  H667  1  0.83455000  0.50498000  0.66991000  1.0 0.0905139511
H  H668  1  0.77021000  0.51905000  0.65144000  1.0 0.0982258527
H  H669  1  0.78729000  0.56341000  0.66187000  1.0 0.0982258527
H  H670  1  0.86442000  0.38229000  0.64988000  1.0 0.0905139511
H  H671  1  0.91702000  0.38395000  0.68763000  1.0 0.0905139511
H  H672  1  0.89712000  0.30990000  0.66195000  1.0 0.0982258527
H  H673  1  0.85527000  0.28279000  0.69020000  1.0 0.0714405285
H  H674  1  0.83362000  0.39529000  0.69250000  1.0 0.0905139511
H  H675  1  0.76266000  0.38887000  0.67754000  1.0 0.0982258527
H  H676  1  0.78749000  0.43154000  0.66945000  1.0 0.0905139511
H  H677  1  0.82584000  0.81847000  0.74855000  1.0 0.2617576897
H  H678  1  0.82066000  0.86224000  0.74364000  1.0 0.2827722535
H  H679  1  0.69641000  0.38571000  0.95966000  1.0 0.2091729768
H  H680  1  0.62718000  0.29584000  0.95103000  1.0 0.1897413932
H  H681  1  0.72459000  0.40082000  0.88479000  1.0 0.3297348221
H  H682  1  0.58831000  0.28926000  0.95384000  1.0 0.2091729768
H  H683  1  0.46237000  0.31990000  0.96081000  1.0 0.3216567599
H  H684  1  0.57333000  0.22998000  0.87385000  1.0 0.1998830532
H  H685  1  0.40382000  0.30513000  0.95669000  1.0 0.2827722535
H  H686  1  0.30974000  0.37713000  0.95153000  1.0 0.2185350708
H  H687  1  0.41643000  0.26872000  0.86920000  1.0 0.3216567599
H  H688  1  0.33312000  0.40851000  0.95427000  1.0 0.2291639824
H  H689  1  0.29532000  0.52861000  0.97458000  1.0 0.3297348221
H  H690  1  0.23107000  0.43548000  0.87682000  1.0 0.2091729768
H  H691  1  0.30432000  0.59151000  0.95926000  1.0 0.3126519721
H  H692  1  0.38118000  0.68761000  0.95814000  1.0 0.2291639824
H  H693  1  0.29192000  0.61733000  0.86600000  1.0 0.3297348221
H  H694  1  0.41577000  0.69208000  0.96060000  1.0 0.2291639824
H  H695  1  0.53047000  0.73577000  0.97603000  1.0 0.2291639824
H  H696  1  0.42980000  0.74506000  0.87589000  1.0 0.2291639824
H  H697  1  0.59095000  0.68732000  0.96777000  1.0 0.3297348221
H  H698  1  0.68745000  0.60176000  0.96515000  1.0 0.2091729768
H  H699  1  0.59803000  0.71569000  0.87639000  1.0 0.1897413932
H  H700  1  0.69010000  0.56692000  0.96630000  1.0 0.2291639824
H  H701  1  0.69524000  0.42256000  0.96010000  1.0 0.2185350708
H  H702  1  0.75628000  0.57336000  0.88057000  1.0 0.2091729768
H  H703  1  0.71209000  0.38282000  0.91360000  1.0 0.0801729239
H  H704  1  0.63988000  0.36975000  0.94202000  1.0 0.0905139511
H  H705  1  0.69389000  0.30239000  0.92410000  1.0 0.0905139511
H  H706  1  0.63035000  0.28056000  0.90546000  1.0 0.0905139511
H  H707  1  0.62118000  0.39366000  0.90367000  1.0 0.0905139511
H  H708  1  0.64515000  0.39971000  0.86824000  1.0 0.1112036729
H  H709  1  0.66140000  0.43941000  0.88257000  1.0 0.0982258527
H  H710  1  0.57105000  0.26587000  0.92167000  1.0 0.0905139511
H  H711  1  0.52765000  0.33977000  0.94062000  1.0 0.0905139511
H  H712  1  0.50512000  0.25097000  0.94677000  1.0 0.0905139511
H  H713  1  0.44243000  0.25822000  0.92758000  1.0 0.0801729239
H  H714  1  0.51475000  0.32778000  0.90047000  1.0 0.0801729239
H  H715  1  0.52248000  0.28234000  0.87061000  1.0 0.0905139511
H  H716  1  0.56952000  0.29977000  0.87770000  1.0 0.0905139511
H  H717  1  0.39207000  0.28805000  0.91380000  1.0 0.0905139511
H  H718  1  0.38377000  0.36416000  0.94025000  1.0 0.0801729239
H  H719  1  0.31474000  0.30913000  0.92528000  1.0 0.0982258527
H  H720  1  0.29065000  0.37165000  0.90610000  1.0 0.0905139511
H  H721  1  0.40511000  0.37610000  0.90002000  1.0 0.0905139511
H  H722  1  0.40468000  0.34555000  0.86566000  1.0 0.0982258527
H  H723  1  0.44386000  0.32616000  0.87943000  1.0 0.0905139511
H  H724  1  0.27846000  0.42913000  0.92504000  1.0 0.0905139511
H  H725  1  0.35676000  0.47432000  0.93903000  1.0 0.0905139511
H  H726  1  0.26737000  0.49058000  0.95192000  1.0 0.0801729239
H  H727  1  0.26729000  0.55603000  0.93356000  1.0 0.0714405285
H  H728  1  0.33356000  0.48960000  0.90165000  1.0 0.0801729239
H  H729  1  0.28399000  0.48319000  0.87349000  1.0 0.0801729239
H  H730  1  0.30365000  0.43598000  0.87873000  1.0 0.0982258527
H  H731  1  0.29402000  0.60825000  0.91808000  1.0 0.0905139511
H  H732  1  0.36817000  0.61475000  0.94592000  1.0 0.0905139511
H  H733  1  0.31221000  0.68527000  0.93248000  1.0 0.0905139511
H  H734  1  0.37525000  0.71269000  0.91492000  1.0 0.0905139511
H  H735  1  0.38379000  0.59922000  0.90559000  1.0 0.0905139511
H  H736  1  0.35672000  0.60136000  0.87057000  1.0 0.0905139511
H  H737  1  0.33760000  0.56027000  0.88315000  1.0 0.0982258527
H  H738  1  0.43609000  0.72597000  0.92602000  1.0 0.0905139511
H  H739  1  0.48156000  0.65750000  0.94837000  1.0 0.0905139511
H  H740  1  0.49675000  0.74968000  0.94934000  1.0 0.0801729239
H  H741  1  0.56221000  0.73786000  0.93189000  1.0 0.0905139511
H  H742  1  0.49221000  0.65919000  0.90897000  1.0 0.0905139511
H  H743  1  0.48493000  0.69617000  0.87636000  1.0 0.0905139511
H  H744  1  0.43892000  0.67719000  0.88410000  1.0 0.0982258527
H  H745  1  0.61701000  0.70297000  0.92718000  1.0 0.0982258527
H  H746  1  0.61268000  0.62427000  0.95200000  1.0 0.0905139511
H  H747  1  0.68748000  0.67854000  0.94546000  1.0 0.0905139511
H  H748  1  0.71578000  0.62089000  0.92446000  1.0 0.0982258527
H  H749  1  0.60522000  0.61434000  0.91267000  1.0 0.0905139511
H  H750  1  0.61077000  0.64205000  0.87804000  1.0 0.0982258527
H  H751  1  0.56820000  0.66030000  0.88962000  1.0 0.0905139511
H  H752  1  0.72740000  0.55751000  0.93315000  1.0 0.0905139511
H  H753  1  0.65388000  0.50601000  0.94730000  1.0 0.0905139511
H  H754  1  0.74439000  0.48784000  0.95449000  1.0 0.0982258527
H  H755  1  0.74194000  0.43200000  0.92994000  1.0 0.0801729239
H  H756  1  0.66714000  0.50533000  0.90894000  1.0 0.0801729239
H  H757  1  0.70655000  0.52357000  0.87839000  1.0 0.0905139511
H  H758  1  0.68595000  0.56683000  0.88843000  1.0 0.0982258527
H  H759  1  0.78061000  0.73082000  0.74900000  1.0 0.0982258527
H  H760  1  0.76323000  0.62779000  0.81328000  1.0 0.2617576897
H  H761  1  0.94585000  0.30693000  0.71332000  1.0 0.2291639824
H  H762  1  0.97537000  0.28508000  0.77029000  1.0 0.289532886
H  H763  1  0.82235000  0.19042000  0.73006000  1.0 0.2291639824
H  H764  1  0.79102000  0.56374000  0.83844000  1.0 0.1307152767
H  H765  1  0.78412000  0.60981000  0.85009000  1.0 0.1112036729
H  H766  1  0.78872000  0.68766000  0.78207000  1.0 0.0905139511
H  H767  1  0.80711000  0.73619000  0.78311000  1.0 0.1307152767
H  H768  1  0.87619000  0.27001000  0.71896000  1.0 0.0982258527
H  H769  1  0.91285000  0.34099000  0.74216000  1.0 0.0801729239
H  H770  1  0.92250000  0.25223000  0.75596000  1.0 0.0801729239
H  H771  1  0.81370000  0.32555000  0.74006000  1.0 0.1112036729
H  H772  1  0.81930000  0.25656000  0.71586000  1.0 0.0714405285
H  H773  1  0.77842000  0.26616000  0.72972000  1.0 0.1307152767
H  H774  1  0.88600000  0.24800000  0.78100000  1.0 0.0905139511
H  H775  1  0.92522000  0.70168000  0.20175000  1.0 0.3297348221
H  H776  1  0.90966000  0.62377000  0.15243000  1.0 0.3126519721
H  H777  1  0.76457000  0.73537000  0.21185000  1.0 0.3126519721
H  H778  1  0.94878000  0.55834000  0.16134000  1.0 0.3490727518
H  H779  1  0.94837000  0.48569000  0.15880000  1.0 0.3409018652
H  H780  1  0.74714000  0.57463000  0.12465000  1.0 0.1998830532
H  H781  1  0.93132000  0.41190000  0.15781000  1.0 0.3297348221
H  H782  1  0.92749000  0.31733000  0.19180000  1.0 0.2091729768
H  H783  1  0.76467000  0.41646000  0.14079000  1.0 0.2185350708
H  H784  1  0.93070000  0.32003000  0.20829000  1.0 0.2291639824
H  H785  1  0.96479000  0.26993000  0.26715000  1.0 0.2185350708
H  H786  1  0.76602000  0.24157000  0.21524000  1.0 0.2091729768
H  H787  1  0.96390000  0.33602000  0.30787000  1.0 0.3297348221
H  H788  1  0.92992000  0.37796000  0.34713000  1.0 0.1998830532
H  H789  1  0.76207000  0.26635000  0.29320000  1.0 0.1897413932
H  H790  1  0.94062000  0.40945000  0.34805000  1.0 0.2291639824
H  H791  1  0.95050000  0.55028000  0.35149000  1.0 0.2185350708
H  H792  1  0.75820000  0.42916000  0.37545000  1.0 0.3025613501
H  H793  1  0.95050000  0.58444000  0.34565000  1.0 0.2091729768
H  H794  1  0.93671000  0.68878000  0.30522000  1.0 0.2185350708
H  H795  1  0.77537000  0.58470000  0.36271000  1.0 0.2091729768
H  H796  1  0.93909000  0.69727000  0.28784000  1.0 0.2185350708
H  H797  1  0.95332000  0.73649000  0.23653000  1.0 0.3297348221
H  H798  1  0.75350000  0.70459000  0.29579000  1.0 0.3126519721
H  H799  1  0.84109000  0.71419000  0.19635000  1.0 0.0905139511
H  H800  1  0.89334000  0.63676000  0.19181000  1.0 0.0905139511
H  H801  1  0.86336000  0.69511000  0.15972000  1.0 0.0982258527
H  H802  1  0.82214000  0.63467000  0.14686000  1.0 0.0905139511
H  H803  1  0.81066000  0.62589000  0.20222000  1.0 0.0905139511
H  H804  1  0.73950000  0.65931000  0.20224000  1.0 0.0982258527
H  H805  1  0.76816000  0.67355000  0.22215000  1.0 0.0905139511
H  H806  1  0.84931000  0.57320000  0.13924000  1.0 0.0982258527
H  H807  1  0.89064000  0.52689000  0.17344000  1.0 0.0801729239
H  H808  1  0.89860000  0.51052000  0.12893000  1.0 0.0982258527
H  H809  1  0.86221000  0.44515000  0.13405000  1.0 0.0801729239
H  H810  1  0.80905000  0.51583000  0.16970000  1.0 0.0801729239
H  H811  1  0.74432000  0.52356000  0.15001000  1.0 0.0905139511
H  H812  1  0.75972000  0.57050000  0.15833000  1.0 0.0982258527
H  H813  1  0.84329000  0.39248000  0.15026000  1.0 0.0905139511
H  H814  1  0.89775000  0.39016000  0.18717000  1.0 0.0905139511
H  H815  1  0.87260000  0.31996000  0.15985000  1.0 0.0982258527
H  H816  1  0.83401000  0.29197000  0.18943000  1.0 0.0905139511
H  H817  1  0.81595000  0.40574000  0.19328000  1.0 0.0905139511
H  H818  1  0.74375000  0.40351000  0.17960000  1.0 0.0982258527
H  H819  1  0.77012000  0.44399000  0.17007000  1.0 0.0801729239
H  H820  1  0.86698000  0.27849000  0.21706000  1.0 0.0905139511
H  H821  1  0.90131000  0.34959000  0.24233000  1.0 0.0982258527
H  H822  1  0.91753000  0.25772000  0.24387000  1.0 0.0905139511
H  H823  1  0.88405000  0.25786000  0.27733000  1.0 0.0714405285
H  H824  1  0.82282000  0.33306000  0.24747000  1.0 0.0801729239
H  H825  1  0.76089000  0.28917000  0.24321000  1.0 0.0905139511
H  H826  1  0.77320000  0.31060000  0.22090000  1.0 0.0982258527
H  H827  1  0.86221000  0.28761000  0.30458000  1.0 0.0905139511
H  H828  1  0.90600000  0.37017000  0.30856000  1.0 0.0801729239
H  H829  1  0.88406000  0.30628000  0.33990000  1.0 0.0982258527
H  H830  1  0.84160000  0.36495000  0.35427000  1.0 0.0905139511
H  H831  1  0.82682000  0.37402000  0.29895000  1.0 0.0905139511
H  H832  1  0.75777000  0.34080000  0.29886000  1.0 0.0982258527
H  H833  1  0.78661000  0.32326000  0.27964000  1.0 0.0905139511
H  H834  1  0.87198000  0.42521000  0.36185000  1.0 0.0905139511
H  H835  1  0.90906000  0.47411000  0.32695000  1.0 0.0982258527
H  H836  1  0.92592000  0.48584000  0.37138000  1.0 0.0982258527
H  H837  1  0.88621000  0.55171000  0.36944000  1.0 0.0801729239
H  H838  1  0.83081000  0.48739000  0.33411000  1.0 0.0801729239
H  H839  1  0.76574000  0.47831000  0.35136000  1.0 0.0905139511
H  H840  1  0.78074000  0.43131000  0.34333000  1.0 0.0982258527
H  H841  1  0.86401000  0.60656000  0.35340000  1.0 0.0905139511
H  H842  1  0.91639000  0.60368000  0.31556000  1.0 0.0905139511
H  H843  1  0.89754000  0.67778000  0.34160000  1.0 0.0905139511
H  H844  1  0.85542000  0.70618000  0.31395000  1.0 0.0905139511
H  H845  1  0.83455000  0.59245000  0.31037000  1.0 0.0905139511
H  H846  1  0.76329000  0.59882000  0.32450000  1.0 0.0982258527
H  H847  1  0.78796000  0.55726000  0.33400000  1.0 0.0905139511
H  H848  1  0.85730000  0.72099000  0.28354000  1.0 0.0905139511
H  H849  1  0.90977000  0.66617000  0.25715000  1.0 0.0982258527
H  H850  1  0.89442000  0.75754000  0.25206000  1.0 0.0801729239
H  H851  1  0.84727000  0.74381000  0.22448000  1.0 0.0801729239
H  H852  1  0.83187000  0.65156000  0.25571000  1.0 0.0905139511
H  H853  1  0.75908000  0.66522000  0.26520000  1.0 0.0982258527
H  H854  1  0.78597000  0.64702000  0.28503000  1.0 0.0982258527
H  H855  1  0.07214000  0.69504000  0.30142000  1.0 0.3025613501
H  H856  1  0.08685000  0.66396000  0.36215000  1.0 0.2091729768
H  H857  1  0.25252000  0.70484000  0.29238000  1.0 0.3409018652
H  H858  1  0.19966000  0.77678000  0.22242000  1.0 0.1383375667
H  H859  1  0.06575000  0.58768000  0.34968000  1.0 0.3297348221
H  H860  1  0.03304000  0.46100000  0.37075000  1.0 0.3409018652
H  H861  1  0.06007000  0.74144000  0.23468000  1.0 0.2091729768
H  H862  1  0.06891000  0.75338000  0.27662000  1.0 0.1634170443
H  H863  1  0.24048000  0.56283000  0.37786000  1.0 0.3126519721
H  H864  1  0.04649000  0.40529000  0.34787000  1.0 0.3297348221
H  H865  1  0.05429000  0.31406000  0.30875000  1.0 0.2291639824
H  H866  1  0.22876000  0.41102000  0.36415000  1.0 0.1179892357
H  H867  1  0.04901000  0.31460000  0.29292000  1.0 0.2461951135
H  H868  1  0.04175000  0.30717000  0.22454000  1.0 0.2185350708
H  H869  1  0.18060000  0.23636000  0.27766000  1.0 0.2461951135
H  H870  1  0.04280000  0.31449000  0.20644000  1.0 0.2091729768
H  H871  1  0.05545000  0.39006000  0.16034000  1.0 0.2091729768
H  H872  1  0.23781000  0.28531000  0.19825000  1.0 0.3025613501
H  H873  1  0.05287000  0.42331000  0.16090000  1.0 0.2291639824
H  H874  1  0.04998000  0.56221000  0.15621000  1.0 0.2091729768
H  H875  1  0.17982000  0.43646000  0.12667000  1.0 0.1897413932
H  H876  1  0.05398000  0.59887000  0.15459000  1.0 0.2091729768
H  H877  1  0.06268000  0.69619000  0.19857000  1.0 0.2433895647
H  H878  1  0.23092000  0.59396000  0.14114000  1.0 0.1897413932
H  H879  1  0.15085000  0.72517000  0.22157000  1.0 0.0714405285
H  H880  1  0.16256000  0.69944000  0.30812000  1.0 0.0905139511
H  H881  1  0.19186000  0.64962000  0.24040000  1.0 0.0714405285
H  H882  1  0.10037000  0.63040000  0.31190000  1.0 0.0905139511
H  H883  1  0.21720000  0.70002000  0.21098000  1.0 0.0905139511
H  H884  1  0.24933000  0.70030000  0.23043000  1.0 0.0714405285
H  H885  1  0.13679000  0.68605000  0.34342000  1.0 0.0905139511
H  H886  1  0.16214000  0.73366000  0.28379000  1.0 0.0982258527
H  H887  1  0.16850000  0.62125000  0.35655000  1.0 0.0905139511
H  H888  1  0.12000000  0.75909000  0.25569000  1.0 0.0982258527
H  H889  1  0.17574000  0.60755000  0.30174000  1.0 0.0905139511
H  H890  1  0.09593000  0.67097000  0.24632000  1.0 0.0801729239
H  H891  1  0.25192000  0.62306000  0.29891000  1.0 0.1112036729
H  H892  1  0.22559000  0.64597000  0.28002000  1.0 0.0801729239
H  H893  1  0.13606000  0.56528000  0.36600000  1.0 0.0982258527
H  H894  1  0.08732000  0.52043000  0.33366000  1.0 0.0982258527
H  H895  1  0.08275000  0.50524000  0.37823000  1.0 0.0905139511
H  H896  1  0.11555000  0.43776000  0.37262000  1.0 0.0801729239
H  H897  1  0.16954000  0.50324000  0.33596000  1.0 0.0801729239
H  H898  1  0.23626000  0.50803000  0.35501000  1.0 0.0905139511
H  H899  1  0.22416000  0.55413000  0.34466000  1.0 0.0982258527
H  H900  1  0.13395000  0.38526000  0.35524000  1.0 0.0905139511
H  H901  1  0.07973000  0.38693000  0.31832000  1.0 0.0905139511
H  H902  1  0.10303000  0.31270000  0.34336000  1.0 0.0982258527
H  H903  1  0.14406000  0.28827000  0.31384000  1.0 0.0801729239
H  H904  1  0.16370000  0.40147000  0.31260000  1.0 0.0801729239
H  H905  1  0.23486000  0.39491000  0.32727000  1.0 0.1112036729
H  H906  1  0.20976000  0.43658000  0.33618000  1.0 0.1307152767
H  H907  1  0.11322000  0.27714000  0.28516000  1.0 0.0801729239
H  H908  1  0.08398000  0.35105000  0.26093000  1.0 0.0982258527
H  H909  1  0.06463000  0.26000000  0.25550000  1.0 0.1112036729
H  H910  1  0.10335000  0.26399000  0.22385000  1.0 0.0714405285
H  H911  1  0.16256000  0.33275000  0.25721000  1.0 0.0801729239
H  H912  1  0.22366000  0.29620000  0.26372000  1.0 0.1112036729
H  H913  1  0.20384000  0.30535000  0.28646000  1.0 0.0905139511
H  H914  1  0.12884000  0.29570000  0.19831000  1.0 0.0982258527
H  H915  1  0.07926000  0.37491000  0.19692000  1.0 0.0905139511
H  H916  1  0.10283000  0.31784000  0.16275000  1.0 0.0905139511
H  H917  1  0.14624000  0.37545000  0.15020000  1.0 0.0905139511
H  H918  1  0.16128000  0.38304000  0.20475000  1.0 0.0905139511
H  H919  1  0.23182000  0.35034000  0.20352000  1.0 0.0905139511
H  H920  1  0.20456000  0.33484000  0.22368000  1.0 0.0982258527
H  H921  1  0.11897000  0.43544000  0.14262000  1.0 0.0801729239
H  H922  1  0.08704000  0.49005000  0.17670000  1.0 0.0905139511
H  H923  1  0.07334000  0.49802000  0.13173000  1.0 0.0982258527
H  H924  1  0.11491000  0.56299000  0.13390000  1.0 0.0801729239
H  H925  1  0.16545000  0.49502000  0.16991000  1.0 0.0905139511
H  H926  1  0.22979000  0.48095000  0.15144000  1.0 0.0982258527
H  H927  1  0.21271000  0.43659000  0.16187000  1.0 0.0982258527
H  H928  1  0.13558000  0.61771000  0.14988000  1.0 0.0905139511
H  H929  1  0.08298000  0.61605000  0.18763000  1.0 0.0801729239
H  H930  1  0.10288000  0.69010000  0.16195000  1.0 0.0982258527
H  H931  1  0.14473000  0.71721000  0.19020000  1.0 0.0714405285
H  H932  1  0.16638000  0.60471000  0.19250000  1.0 0.0905139511
H  H933  1  0.23734000  0.61113000  0.17754000  1.0 0.0982258527
H  H934  1  0.21251000  0.56846000  0.16945000  1.0 0.0905139511
H  H935  1  0.17416000  0.18153000  0.24855000  1.0 0.2617576897
H  H936  1  0.17934000  0.13776000  0.24364000  1.0 0.2827722535
H  H937  1  0.30359000  0.61429000  0.45966000  1.0 0.2091729768
H  H938  1  0.37282000  0.70416000  0.45103000  1.0 0.1897413932
H  H939  1  0.27541000  0.59918000  0.38479000  1.0 0.3297348221
H  H940  1  0.41169000  0.71074000  0.45384000  1.0 0.2091729768
H  H941  1  0.53763000  0.68010000  0.46081000  1.0 0.3216567599
H  H942  1  0.42667000  0.77002000  0.37385000  1.0 0.2091729768
H  H943  1  0.59618000  0.69487000  0.45669000  1.0 0.2827722535
H  H944  1  0.69026000  0.62287000  0.45153000  1.0 0.2185350708
H  H945  1  0.58357000  0.73128000  0.36920000  1.0 0.3216567599
H  H946  1  0.66688000  0.59149000  0.45427000  1.0 0.2291639824
H  H947  1  0.70468000  0.47139000  0.47458000  1.0 0.3297348221
H  H948  1  0.76893000  0.56452000  0.37682000  1.0 0.2091729768
H  H949  1  0.69568000  0.40849000  0.45926000  1.0 0.3126519721
H  H950  1  0.61882000  0.31239000  0.45814000  1.0 0.2291639824
H  H951  1  0.70808000  0.38267000  0.36600000  1.0 0.3297348221
H  H952  1  0.58423000  0.30792000  0.46060000  1.0 0.2291639824
H  H953  1  0.46953000  0.26423000  0.47603000  1.0 0.2291639824
H  H954  1  0.57020000  0.25494000  0.37589000  1.0 0.2185350708
H  H955  1  0.40905000  0.31268000  0.46777000  1.0 0.3297348221
H  H956  1  0.31255000  0.39824000  0.46515000  1.0 0.2091729768
H  H957  1  0.40197000  0.28431000  0.37639000  1.0 0.1897413932
H  H958  1  0.30990000  0.43308000  0.46630000  1.0 0.2291639824
H  H959  1  0.30476000  0.57744000  0.46010000  1.0 0.2185350708
H  H960  1  0.24372000  0.42664000  0.38057000  1.0 0.2091729768
H  H961  1  0.28791000  0.61718000  0.41360000  1.0 0.0801729239
H  H962  1  0.36012000  0.63025000  0.44202000  1.0 0.0905139511
H  H963  1  0.30611000  0.69761000  0.42410000  1.0 0.0905139511
H  H964  1  0.36965000  0.71944000  0.40546000  1.0 0.0905139511
H  H965  1  0.37882000  0.60634000  0.40367000  1.0 0.0905139511
H  H966  1  0.35485000  0.60029000  0.36824000  1.0 0.1112036729
H  H967  1  0.33860000  0.56059000  0.38257000  1.0 0.0982258527
H  H968  1  0.42895000  0.73413000  0.42167000  1.0 0.0905139511
H  H969  1  0.47235000  0.66023000  0.44062000  1.0 0.0905139511
H  H970  1  0.49488000  0.74903000  0.44677000  1.0 0.0905139511
H  H971  1  0.55757000  0.74178000  0.42758000  1.0 0.0801729239
H  H972  1  0.48525000  0.67222000  0.40047000  1.0 0.0801729239
H  H973  1  0.47752000  0.71766000  0.37061000  1.0 0.0905139511
H  H974  1  0.43048000  0.70023000  0.37770000  1.0 0.0905139511
H  H975  1  0.60793000  0.71195000  0.41380000  1.0 0.0905139511
H  H976  1  0.61623000  0.63584000  0.44025000  1.0 0.0801729239
H  H977  1  0.68526000  0.69087000  0.42528000  1.0 0.0982258527
H  H978  1  0.70935000  0.62835000  0.40610000  1.0 0.0905139511
H  H979  1  0.59489000  0.62390000  0.40002000  1.0 0.0905139511
H  H980  1  0.59532000  0.65445000  0.36566000  1.0 0.0982258527
H  H981  1  0.55614000  0.67384000  0.37943000  1.0 0.0905139511
H  H982  1  0.72154000  0.57087000  0.42504000  1.0 0.0905139511
H  H983  1  0.64324000  0.52568000  0.43903000  1.0 0.0905139511
H  H984  1  0.73263000  0.50942000  0.45192000  1.0 0.0801729239
H  H985  1  0.73271000  0.44397000  0.43356000  1.0 0.0714405285
H  H986  1  0.66644000  0.51040000  0.40165000  1.0 0.0801729239
H  H987  1  0.71601000  0.51681000  0.37349000  1.0 0.0801729239
H  H988  1  0.69635000  0.56402000  0.37873000  1.0 0.0982258527
H  H989  1  0.70598000  0.39175000  0.41808000  1.0 0.0905139511
H  H990  1  0.63183000  0.38525000  0.44592000  1.0 0.0905139511
H  H991  1  0.68779000  0.31473000  0.43248000  1.0 0.0905139511
H  H992  1  0.62475000  0.28731000  0.41492000  1.0 0.0905139511
H  H993  1  0.61621000  0.40078000  0.40559000  1.0 0.0905139511
H  H994  1  0.64328000  0.39864000  0.37057000  1.0 0.0905139511
H  H995  1  0.66240000  0.43973000  0.38315000  1.0 0.0982258527
H  H996  1  0.56391000  0.27403000  0.42602000  1.0 0.0905139511
H  H997  1  0.51844000  0.34250000  0.44837000  1.0 0.0905139511
H  H998  1  0.50325000  0.25032000  0.44934000  1.0 0.0801729239
H  H999  1  0.43779000  0.26214000  0.43189000  1.0 0.0905139511
H  H1000  1  0.50779000  0.34081000  0.40897000  1.0 0.0905139511
H  H1001  1  0.51507000  0.30383000  0.37636000  1.0 0.0905139511
H  H1002  1  0.56108000  0.32281000  0.38410000  1.0 0.0982258527
H  H1003  1  0.38299000  0.29703000  0.42718000  1.0 0.0982258527
H  H1004  1  0.38732000  0.37573000  0.45200000  1.0 0.0905139511
H  H1005  1  0.31252000  0.32146000  0.44546000  1.0 0.0905139511
H  H1006  1  0.28422000  0.37911000  0.42446000  1.0 0.0982258527
H  H1007  1  0.39478000  0.38566000  0.41267000  1.0 0.0905139511
H  H1008  1  0.38923000  0.35795000  0.37804000  1.0 0.0982258527
H  H1009  1  0.43180000  0.33970000  0.38962000  1.0 0.0905139511
H  H1010  1  0.27260000  0.44249000  0.43315000  1.0 0.0905139511
H  H1011  1  0.34612000  0.49399000  0.44730000  1.0 0.0905139511
H  H1012  1  0.25561000  0.51216000  0.45449000  1.0 0.0982258527
H  H1013  1  0.25806000  0.56800000  0.42994000  1.0 0.0801729239
H  H1014  1  0.33286000  0.49467000  0.40894000  1.0 0.0801729239
H  H1015  1  0.29345000  0.47643000  0.37839000  1.0 0.0905139511
H  H1016  1  0.31405000  0.43317000  0.38843000  1.0 0.0982258527
H  H1017  1  0.21939000  0.26918000  0.24900000  1.0 0.0982258527
H  H1018  1  0.23677000  0.37221000  0.31328000  1.0 0.2617576897
H  H1019  1  0.05415000  0.69307000  0.21332000  1.0 0.2291639824
H  H1020  1  0.02463000  0.71492000  0.27029000  1.0 0.289532886
H  H1021  1  0.17765000  0.80958000  0.23006000  1.0 0.2291639824
H  H1022  1  0.20898000  0.43626000  0.33844000  1.0 0.1307152767
H  H1023  1  0.21588000  0.39019000  0.35009000  1.0 0.1112036729
H  H1024  1  0.21128000  0.31234000  0.28207000  1.0 0.0905139511
H  H1025  1  0.19289000  0.26381000  0.28311000  1.0 0.1307152767
H  H1026  1  0.12381000  0.72999000  0.21896000  1.0 0.0982258527
H  H1027  1  0.08715000  0.65901000  0.24216000  1.0 0.0801729239
H  H1028  1  0.07750000  0.74777000  0.25596000  1.0 0.0801729239
H  H1029  1  0.18630000  0.67445000  0.24006000  1.0 0.1112036729
H  H1030  1  0.18070000  0.74344000  0.21586000  1.0 0.0714405285
H  H1031  1  0.22158000  0.73384000  0.22972000  1.0 0.1307152767
H  H1032  1  0.11400000  0.75200000  0.28100000  1.0 0.0905139511
H  H1033  1  0.70168000  0.92522000  0.79825000  1.0 0.3297348221
H  H1034  1  0.62377000  0.90966000  0.84757000  1.0 0.3126519721
H  H1035  1  0.73537000  0.76457000  0.78815000  1.0 0.3126519721
H  H1036  1  0.55834000  0.94878000  0.83866000  1.0 0.3490727518
H  H1037  1  0.48569000  0.94837000  0.84120000  1.0 0.3409018652
H  H1038  1  0.57463000  0.74714000  0.87535000  1.0 0.1998830532
H  H1039  1  0.41190000  0.93132000  0.84219000  1.0 0.3297348221
H  H1040  1  0.31733000  0.92749000  0.80820000  1.0 0.2091729768
H  H1041  1  0.41646000  0.76467000  0.85921000  1.0 0.2185350708
H  H1042  1  0.32003000  0.93070000  0.79171000  1.0 0.2291639824
H  H1043  1  0.26993000  0.96479000  0.73285000  1.0 0.2185350708
H  H1044  1  0.24157000  0.76602000  0.78476000  1.0 0.2091729768
H  H1045  1  0.33602000  0.96390000  0.69213000  1.0 0.3297348221
H  H1046  1  0.37796000  0.92992000  0.65287000  1.0 0.1998830532
H  H1047  1  0.26635000  0.76207000  0.70680000  1.0 0.1998830532
H  H1048  1  0.40945000  0.94062000  0.65195000  1.0 0.2291639824
H  H1049  1  0.55028000  0.95050000  0.64851000  1.0 0.2185350708
H  H1050  1  0.42916000  0.75820000  0.62455000  1.0 0.3025613501
H  H1051  1  0.58444000  0.95050000  0.65435000  1.0 0.2091729768
H  H1052  1  0.68878000  0.93671000  0.69478000  1.0 0.2185350708
H  H1053  1  0.58470000  0.77537000  0.63729000  1.0 0.2091729768
H  H1054  1  0.69727000  0.93909000  0.71216000  1.0 0.2185350708
H  H1055  1  0.73649000  0.95332000  0.76347000  1.0 0.3297348221
H  H1056  1  0.70459000  0.75350000  0.70421000  1.0 0.3126519721
H  H1057  1  0.71419000  0.84109000  0.80365000  1.0 0.0905139511
H  H1058  1  0.63676000  0.89334000  0.80819000  1.0 0.0905139511
H  H1059  1  0.69511000  0.86336000  0.84028000  1.0 0.0982258527
H  H1060  1  0.63467000  0.82214000  0.85314000  1.0 0.0905139511
H  H1061  1  0.62589000  0.81066000  0.79778000  1.0 0.0905139511
H  H1062  1  0.65931000  0.73950000  0.79776000  1.0 0.0982258527
H  H1063  1  0.67355000  0.76816000  0.77785000  1.0 0.0905139511
H  H1064  1  0.57320000  0.84931000  0.86076000  1.0 0.0982258527
H  H1065  1  0.52689000  0.89064000  0.82656000  1.0 0.0801729239
H  H1066  1  0.51052000  0.89860000  0.87107000  1.0 0.0982258527
H  H1067  1  0.44515000  0.86221000  0.86595000  1.0 0.0801729239
H  H1068  1  0.51583000  0.80905000  0.83030000  1.0 0.0801729239
H  H1069  1  0.52356000  0.74432000  0.84999000  1.0 0.0905139511
H  H1070  1  0.57050000  0.75972000  0.84167000  1.0 0.0982258527
H  H1071  1  0.39248000  0.84329000  0.84974000  1.0 0.0905139511
H  H1072  1  0.39016000  0.89775000  0.81283000  1.0 0.0905139511
H  H1073  1  0.31996000  0.87260000  0.84015000  1.0 0.0982258527
H  H1074  1  0.29197000  0.83401000  0.81057000  1.0 0.0905139511
H  H1075  1  0.40574000  0.81595000  0.80672000  1.0 0.0905139511
H  H1076  1  0.40351000  0.74375000  0.82040000  1.0 0.0982258527
H  H1077  1  0.44399000  0.77012000  0.82993000  1.0 0.0801729239
H  H1078  1  0.27849000  0.86698000  0.78294000  1.0 0.0905139511
H  H1079  1  0.34959000  0.90131000  0.75767000  1.0 0.0982258527
H  H1080  1  0.25772000  0.91753000  0.75613000  1.0 0.0905139511
H  H1081  1  0.25786000  0.88405000  0.72267000  1.0 0.0714405285
H  H1082  1  0.33306000  0.82282000  0.75253000  1.0 0.0801729239
H  H1083  1  0.28917000  0.76089000  0.75679000  1.0 0.0905139511
H  H1084  1  0.31060000  0.77320000  0.77910000  1.0 0.0982258527
H  H1085  1  0.28761000  0.86221000  0.69542000  1.0 0.0905139511
H  H1086  1  0.37017000  0.90600000  0.69144000  1.0 0.0801729239
H  H1087  1  0.30628000  0.88406000  0.66010000  1.0 0.0982258527
H  H1088  1  0.36495000  0.84160000  0.64573000  1.0 0.0905139511
H  H1089  1  0.37402000  0.82682000  0.70105000  1.0 0.0905139511
H  H1090  1  0.34080000  0.75777000  0.70114000  1.0 0.0982258527
H  H1091  1  0.32326000  0.78661000  0.72036000  1.0 0.0905139511
H  H1092  1  0.42521000  0.87198000  0.63815000  1.0 0.0905139511
H  H1093  1  0.47411000  0.90906000  0.67305000  1.0 0.0982258527
H  H1094  1  0.48584000  0.92592000  0.62862000  1.0 0.0982258527
H  H1095  1  0.55171000  0.88621000  0.63056000  1.0 0.0801729239
H  H1096  1  0.48739000  0.83081000  0.66589000  1.0 0.0801729239
H  H1097  1  0.47831000  0.76574000  0.64864000  1.0 0.0905139511
H  H1098  1  0.43131000  0.78074000  0.65667000  1.0 0.0982258527
H  H1099  1  0.60656000  0.86401000  0.64660000  1.0 0.0905139511
H  H1100  1  0.60368000  0.91639000  0.68444000  1.0 0.0905139511
H  H1101  1  0.67778000  0.89754000  0.65840000  1.0 0.0905139511
H  H1102  1  0.70618000  0.85542000  0.68605000  1.0 0.0905139511
H  H1103  1  0.59245000  0.83455000  0.68963000  1.0 0.0905139511
H  H1104  1  0.59882000  0.76329000  0.67550000  1.0 0.0982258527
H  H1105  1  0.55726000  0.78796000  0.66600000  1.0 0.0905139511
H  H1106  1  0.72099000  0.85730000  0.71646000  1.0 0.0905139511
H  H1107  1  0.66617000  0.90977000  0.74285000  1.0 0.0982258527
H  H1108  1  0.75754000  0.89442000  0.74794000  1.0 0.0801729239
H  H1109  1  0.74381000  0.84727000  0.77552000  1.0 0.0801729239
H  H1110  1  0.65156000  0.83187000  0.74429000  1.0 0.0905139511
H  H1111  1  0.66522000  0.75908000  0.73480000  1.0 0.0982258527
H  H1112  1  0.64702000  0.78597000  0.71497000  1.0 0.0982258527
H  H1113  1  0.69504000  0.07214000  0.69858000  1.0 0.3025613501
H  H1114  1  0.66396000  0.08685000  0.63785000  1.0 0.2091729768
H  H1115  1  0.70484000  0.25252000  0.70762000  1.0 0.3409018652
H  H1116  1  0.77678000  0.19966000  0.77758000  1.0 0.1383375667
H  H1117  1  0.58768000  0.06575000  0.65032000  1.0 0.3297348221
H  H1118  1  0.46100000  0.03304000  0.62925000  1.0 0.3409018652
H  H1119  1  0.74144000  0.06007000  0.76532000  1.0 0.2091729768
H  H1120  1  0.75338000  0.06891000  0.72338000  1.0 0.1634170443
H  H1121  1  0.56283000  0.24048000  0.62214000  1.0 0.3126519721
H  H1122  1  0.40529000  0.04649000  0.65213000  1.0 0.3297348221
H  H1123  1  0.31406000  0.05429000  0.69125000  1.0 0.2291639824
H  H1124  1  0.41102000  0.22876000  0.63585000  1.0 0.1179892357
H  H1125  1  0.31460000  0.04901000  0.70708000  1.0 0.2461951135
H  H1126  1  0.30717000  0.04175000  0.77546000  1.0 0.2185350708
H  H1127  1  0.23636000  0.18060000  0.72234000  1.0 0.2461951135
H  H1128  1  0.31449000  0.04280000  0.79356000  1.0 0.2091729768
H  H1129  1  0.39006000  0.05545000  0.83966000  1.0 0.2091729768
H  H1130  1  0.28531000  0.23781000  0.80175000  1.0 0.3025613501
H  H1131  1  0.42331000  0.05287000  0.83910000  1.0 0.2291639824
H  H1132  1  0.56221000  0.04998000  0.84379000  1.0 0.1998830532
H  H1133  1  0.43646000  0.17982000  0.87333000  1.0 0.1897413932
H  H1134  1  0.59887000  0.05398000  0.84541000  1.0 0.2091729768
H  H1135  1  0.69619000  0.06268000  0.80143000  1.0 0.2433895647
H  H1136  1  0.59396000  0.23092000  0.85886000  1.0 0.1897413932
H  H1137  1  0.72517000  0.15085000  0.77843000  1.0 0.0714405285
H  H1138  1  0.69944000  0.16256000  0.69188000  1.0 0.0905139511
H  H1139  1  0.64962000  0.19186000  0.75960000  1.0 0.0714405285
H  H1140  1  0.63040000  0.10037000  0.68810000  1.0 0.0905139511
H  H1141  1  0.70002000  0.21720000  0.78902000  1.0 0.0905139511
H  H1142  1  0.70030000  0.24933000  0.76957000  1.0 0.0714405285
H  H1143  1  0.68605000  0.13679000  0.65658000  1.0 0.0905139511
H  H1144  1  0.73366000  0.16214000  0.71621000  1.0 0.0982258527
H  H1145  1  0.62125000  0.16850000  0.64345000  1.0 0.0905139511
H  H1146  1  0.75909000  0.12000000  0.74431000  1.0 0.0982258527
H  H1147  1  0.60755000  0.17574000  0.69826000  1.0 0.0905139511
H  H1148  1  0.67097000  0.09593000  0.75368000  1.0 0.0801729239
H  H1149  1  0.62306000  0.25192000  0.70109000  1.0 0.1112036729
H  H1150  1  0.64597000  0.22559000  0.71998000  1.0 0.0801729239
H  H1151  1  0.56528000  0.13606000  0.63400000  1.0 0.0982258527
H  H1152  1  0.52043000  0.08732000  0.66634000  1.0 0.0982258527
H  H1153  1  0.50524000  0.08275000  0.62177000  1.0 0.0905139511
H  H1154  1  0.43776000  0.11555000  0.62738000  1.0 0.0801729239
H  H1155  1  0.50324000  0.16954000  0.66404000  1.0 0.0801729239
H  H1156  1  0.50803000  0.23626000  0.64499000  1.0 0.0905139511
H  H1157  1  0.55413000  0.22416000  0.65534000  1.0 0.0982258527
H  H1158  1  0.38526000  0.13395000  0.64476000  1.0 0.0905139511
H  H1159  1  0.38693000  0.07973000  0.68168000  1.0 0.0905139511
H  H1160  1  0.31270000  0.10303000  0.65664000  1.0 0.0982258527
H  H1161  1  0.28827000  0.14406000  0.68616000  1.0 0.0801729239
H  H1162  1  0.40147000  0.16370000  0.68740000  1.0 0.0801729239
H  H1163  1  0.39491000  0.23486000  0.67273000  1.0 0.1112036729
H  H1164  1  0.43658000  0.20976000  0.66382000  1.0 0.1307152767
H  H1165  1  0.27714000  0.11322000  0.71484000  1.0 0.0801729239
H  H1166  1  0.35105000  0.08398000  0.73907000  1.0 0.0982258527
H  H1167  1  0.26000000  0.06463000  0.74450000  1.0 0.1112036729
H  H1168  1  0.26399000  0.10335000  0.77615000  1.0 0.0714405285
H  H1169  1  0.33275000  0.16256000  0.74279000  1.0 0.0801729239
H  H1170  1  0.29620000  0.22366000  0.73628000  1.0 0.1112036729
H  H1171  1  0.30535000  0.20384000  0.71354000  1.0 0.0905139511
H  H1172  1  0.29570000  0.12884000  0.80169000  1.0 0.0982258527
H  H1173  1  0.37491000  0.07926000  0.80308000  1.0 0.0905139511
H  H1174  1  0.31784000  0.10283000  0.83725000  1.0 0.0905139511
H  H1175  1  0.37545000  0.14624000  0.84980000  1.0 0.0905139511
H  H1176  1  0.38304000  0.16128000  0.79525000  1.0 0.0905139511
H  H1177  1  0.35034000  0.23182000  0.79648000  1.0 0.0905139511
H  H1178  1  0.33484000  0.20456000  0.77632000  1.0 0.0982258527
H  H1179  1  0.43544000  0.11897000  0.85738000  1.0 0.0801729239
H  H1180  1  0.49005000  0.08704000  0.82330000  1.0 0.0905139511
H  H1181  1  0.49802000  0.07334000  0.86827000  1.0 0.0982258527
H  H1182  1  0.56299000  0.11491000  0.86610000  1.0 0.0801729239
H  H1183  1  0.49502000  0.16545000  0.83009000  1.0 0.0905139511
H  H1184  1  0.48095000  0.22979000  0.84856000  1.0 0.0982258527
H  H1185  1  0.43659000  0.21271000  0.83813000  1.0 0.0982258527
H  H1186  1  0.61771000  0.13558000  0.85012000  1.0 0.0905139511
H  H1187  1  0.61605000  0.08298000  0.81237000  1.0 0.0905139511
H  H1188  1  0.69010000  0.10288000  0.83805000  1.0 0.0982258527
H  H1189  1  0.71721000  0.14473000  0.80980000  1.0 0.0714405285
H  H1190  1  0.60471000  0.16638000  0.80750000  1.0 0.0905139511
H  H1191  1  0.61113000  0.23734000  0.82246000  1.0 0.0982258527
H  H1192  1  0.56846000  0.21251000  0.83055000  1.0 0.0905139511
H  H1193  1  0.18153000  0.17416000  0.75145000  1.0 0.2617576897
H  H1194  1  0.13776000  0.17934000  0.75636000  1.0 0.2827722535
H  H1195  1  0.61429000  0.30359000  0.54034000  1.0 0.2091729768
H  H1196  1  0.70416000  0.37282000  0.54897000  1.0 0.1897413932
H  H1197  1  0.59918000  0.27541000  0.61521000  1.0 0.3297348221
H  H1198  1  0.71074000  0.41169000  0.54616000  1.0 0.2091729768
H  H1199  1  0.68010000  0.53763000  0.53919000  1.0 0.3216567599
H  H1200  1  0.77002000  0.42667000  0.62615000  1.0 0.1998830532
H  H1201  1  0.69487000  0.59618000  0.54331000  1.0 0.2827722535
H  H1202  1  0.62287000  0.69026000  0.54847000  1.0 0.2185350708
H  H1203  1  0.73128000  0.58357000  0.63080000  1.0 0.3216567599
H  H1204  1  0.59149000  0.66688000  0.54573000  1.0 0.2291639824
H  H1205  1  0.47139000  0.70468000  0.52542000  1.0 0.3297348221
H  H1206  1  0.56452000  0.76893000  0.62318000  1.0 0.2091729768
H  H1207  1  0.40849000  0.69568000  0.54074000  1.0 0.3126519721
H  H1208  1  0.31239000  0.61882000  0.54186000  1.0 0.2291639824
H  H1209  1  0.38267000  0.70808000  0.63400000  1.0 0.3216567599
H  H1210  1  0.30792000  0.58423000  0.53940000  1.0 0.2291639824
H  H1211  1  0.26423000  0.46953000  0.52397000  1.0 0.2291639824
H  H1212  1  0.25494000  0.57020000  0.62411000  1.0 0.2291639824
H  H1213  1  0.31268000  0.40905000  0.53223000  1.0 0.3297348221
H  H1214  1  0.39824000  0.31255000  0.53485000  1.0 0.2091729768
H  H1215  1  0.28431000  0.40197000  0.62361000  1.0 0.1897413932
H  H1216  1  0.43308000  0.30990000  0.53370000  1.0 0.2291639824
H  H1217  1  0.57744000  0.30476000  0.53990000  1.0 0.2185350708
H  H1218  1  0.42664000  0.24372000  0.61943000  1.0 0.2091729768
H  H1219  1  0.61718000  0.28791000  0.58640000  1.0 0.0801729239
H  H1220  1  0.63025000  0.36012000  0.55798000  1.0 0.0905139511
H  H1221  1  0.69761000  0.30611000  0.57590000  1.0 0.0905139511
H  H1222  1  0.71944000  0.36965000  0.59454000  1.0 0.0905139511
H  H1223  1  0.60634000  0.37882000  0.59633000  1.0 0.0905139511
H  H1224  1  0.60029000  0.35485000  0.63176000  1.0 0.1112036729
H  H1225  1  0.56059000  0.33860000  0.61743000  1.0 0.0982258527
H  H1226  1  0.73413000  0.42895000  0.57833000  1.0 0.0905139511
H  H1227  1  0.66023000  0.47235000  0.55938000  1.0 0.0905139511
H  H1228  1  0.74903000  0.49488000  0.55323000  1.0 0.0905139511
H  H1229  1  0.74178000  0.55757000  0.57242000  1.0 0.0801729239
H  H1230  1  0.67222000  0.48525000  0.59953000  1.0 0.0801729239
H  H1231  1  0.71766000  0.47752000  0.62939000  1.0 0.0905139511
H  H1232  1  0.70023000  0.43048000  0.62230000  1.0 0.0905139511
H  H1233  1  0.71195000  0.60793000  0.58620000  1.0 0.0905139511
H  H1234  1  0.63584000  0.61623000  0.55975000  1.0 0.0801729239
H  H1235  1  0.69087000  0.68526000  0.57472000  1.0 0.0982258527
H  H1236  1  0.62835000  0.70935000  0.59390000  1.0 0.0905139511
H  H1237  1  0.62390000  0.59489000  0.59998000  1.0 0.0905139511
H  H1238  1  0.65445000  0.59532000  0.63434000  1.0 0.0982258527
H  H1239  1  0.67384000  0.55614000  0.62057000  1.0 0.0905139511
H  H1240  1  0.57087000  0.72154000  0.57496000  1.0 0.0905139511
H  H1241  1  0.52568000  0.64324000  0.56097000  1.0 0.0905139511
H  H1242  1  0.50942000  0.73263000  0.54808000  1.0 0.0801729239
H  H1243  1  0.44397000  0.73271000  0.56644000  1.0 0.0714405285
H  H1244  1  0.51040000  0.66644000  0.59835000  1.0 0.0801729239
H  H1245  1  0.51681000  0.71601000  0.62651000  1.0 0.0801729239
H  H1246  1  0.56402000  0.69635000  0.62127000  1.0 0.0982258527
H  H1247  1  0.39175000  0.70598000  0.58192000  1.0 0.0905139511
H  H1248  1  0.38525000  0.63183000  0.55408000  1.0 0.0905139511
H  H1249  1  0.31473000  0.68779000  0.56752000  1.0 0.0905139511
H  H1250  1  0.28731000  0.62475000  0.58508000  1.0 0.0905139511
H  H1251  1  0.40078000  0.61621000  0.59441000  1.0 0.0905139511
H  H1252  1  0.39864000  0.64328000  0.62943000  1.0 0.0905139511
H  H1253  1  0.43973000  0.66240000  0.61685000  1.0 0.0982258527
H  H1254  1  0.27403000  0.56391000  0.57398000  1.0 0.0905139511
H  H1255  1  0.34250000  0.51844000  0.55163000  1.0 0.0905139511
H  H1256  1  0.25032000  0.50325000  0.55066000  1.0 0.0801729239
H  H1257  1  0.26214000  0.43779000  0.56811000  1.0 0.0905139511
H  H1258  1  0.34081000  0.50779000  0.59103000  1.0 0.0905139511
H  H1259  1  0.30383000  0.51507000  0.62364000  1.0 0.0905139511
H  H1260  1  0.32281000  0.56108000  0.61590000  1.0 0.0982258527
H  H1261  1  0.29703000  0.38299000  0.57282000  1.0 0.0982258527
H  H1262  1  0.37573000  0.38732000  0.54800000  1.0 0.0905139511
H  H1263  1  0.32146000  0.31252000  0.55454000  1.0 0.0905139511
H  H1264  1  0.37911000  0.28422000  0.57554000  1.0 0.0982258527
H  H1265  1  0.38566000  0.39478000  0.58733000  1.0 0.0905139511
H  H1266  1  0.35795000  0.38923000  0.62196000  1.0 0.0982258527
H  H1267  1  0.33970000  0.43180000  0.61038000  1.0 0.0905139511
H  H1268  1  0.44249000  0.27260000  0.56685000  1.0 0.0905139511
H  H1269  1  0.49399000  0.34612000  0.55270000  1.0 0.0905139511
H  H1270  1  0.51216000  0.25561000  0.54551000  1.0 0.0982258527
H  H1271  1  0.56800000  0.25806000  0.57006000  1.0 0.0801729239
H  H1272  1  0.49467000  0.33286000  0.59106000  1.0 0.0801729239
H  H1273  1  0.47643000  0.29345000  0.62161000  1.0 0.0905139511
H  H1274  1  0.43317000  0.31405000  0.61157000  1.0 0.0982258527
H  H1275  1  0.26918000  0.21939000  0.75100000  1.0 0.0982258527
H  H1276  1  0.37221000  0.23677000  0.68672000  1.0 0.2617576897
H  H1277  1  0.69307000  0.05415000  0.78668000  1.0 0.2291639824
H  H1278  1  0.71492000  0.02463000  0.72971000  1.0 0.289532886
H  H1279  1  0.80958000  0.17765000  0.76994000  1.0 0.2291639824
H  H1280  1  0.43626000  0.20898000  0.66156000  1.0 0.1307152767
H  H1281  1  0.39019000  0.21588000  0.64991000  1.0 0.1112036729
H  H1282  1  0.31234000  0.21128000  0.71793000  1.0 0.0905139511
H  H1283  1  0.26381000  0.19289000  0.71689000  1.0 0.1307152767
H  H1284  1  0.72999000  0.12381000  0.78104000  1.0 0.0982258527
H  H1285  1  0.65901000  0.08715000  0.75784000  1.0 0.0801729239
H  H1286  1  0.74777000  0.07750000  0.74404000  1.0 0.0801729239
H  H1287  1  0.67445000  0.18630000  0.75994000  1.0 0.1112036729
H  H1288  1  0.74344000  0.18070000  0.78414000  1.0 0.0714405285
H  H1289  1  0.73384000  0.22158000  0.77028000  1.0 0.1307152767
H  H1290  1  0.75200000  0.11400000  0.71900000  1.0 0.0905139511
H  H1291  1  0.29832000  0.07478000  0.29825000  1.0 0.3297348221
H  H1292  1  0.37623000  0.09034000  0.34757000  1.0 0.3126519721
H  H1293  1  0.26463000  0.23543000  0.28815000  1.0 0.3126519721
H  H1294  1  0.44166000  0.05122000  0.33866000  1.0 0.3490727518
H  H1295  1  0.51431000  0.05163000  0.34120000  1.0 0.3409018652
H  H1296  1  0.42537000  0.25286000  0.37535000  1.0 0.1998830532
H  H1297  1  0.58810000  0.06868000  0.34219000  1.0 0.3297348221
H  H1298  1  0.68267000  0.07251000  0.30820000  1.0 0.2091729768
H  H1299  1  0.58354000  0.23533000  0.35921000  1.0 0.2185350708
H  H1300  1  0.67997000  0.06930000  0.29171000  1.0 0.2291639824
H  H1301  1  0.73007000  0.03521000  0.23285000  1.0 0.2185350708
H  H1302  1  0.75843000  0.23398000  0.28476000  1.0 0.2091729768
H  H1303  1  0.66398000  0.03610000  0.19213000  1.0 0.3297348221
H  H1304  1  0.62204000  0.07008000  0.15287000  1.0 0.1998830532
H  H1305  1  0.73365000  0.23793000  0.20680000  1.0 0.1897413932
H  H1306  1  0.59055000  0.05938000  0.15195000  1.0 0.2291639824
H  H1307  1  0.44972000  0.04950000  0.14851000  1.0 0.2185350708
H  H1308  1  0.57084000  0.24180000  0.12455000  1.0 0.3025613501
H  H1309  1  0.41556000  0.04950000  0.15435000  1.0 0.2091729768
H  H1310  1  0.31122000  0.06329000  0.19478000  1.0 0.2185350708
H  H1311  1  0.41530000  0.22463000  0.13729000  1.0 0.2091729768
H  H1312  1  0.30273000  0.06091000  0.21216000  1.0 0.2185350708
H  H1313  1  0.26351000  0.04668000  0.26347000  1.0 0.3297348221
H  H1314  1  0.29541000  0.24650000  0.20421000  1.0 0.3126519721
H  H1315  1  0.28581000  0.15891000  0.30365000  1.0 0.0905139511
H  H1316  1  0.36324000  0.10666000  0.30819000  1.0 0.0905139511
H  H1317  1  0.30489000  0.13664000  0.34028000  1.0 0.0982258527
H  H1318  1  0.36533000  0.17786000  0.35314000  1.0 0.0905139511
H  H1319  1  0.37411000  0.18934000  0.29778000  1.0 0.0905139511
H  H1320  1  0.34069000  0.26050000  0.29776000  1.0 0.0982258527
H  H1321  1  0.32645000  0.23184000  0.27785000  1.0 0.0905139511
H  H1322  1  0.42680000  0.15069000  0.36076000  1.0 0.0982258527
H  H1323  1  0.47311000  0.10936000  0.32656000  1.0 0.0801729239
H  H1324  1  0.48948000  0.10140000  0.37107000  1.0 0.0982258527
H  H1325  1  0.55485000  0.13779000  0.36595000  1.0 0.0801729239
H  H1326  1  0.48417000  0.19095000  0.33030000  1.0 0.0801729239
H  H1327  1  0.47644000  0.25568000  0.34999000  1.0 0.0905139511
H  H1328  1  0.42950000  0.24028000  0.34167000  1.0 0.0982258527
H  H1329  1  0.60752000  0.15671000  0.34974000  1.0 0.0905139511
H  H1330  1  0.60984000  0.10225000  0.31283000  1.0 0.0905139511
H  H1331  1  0.68004000  0.12740000  0.34015000  1.0 0.0982258527
H  H1332  1  0.70803000  0.16599000  0.31057000  1.0 0.0905139511
H  H1333  1  0.59426000  0.18405000  0.30672000  1.0 0.0905139511
H  H1334  1  0.59649000  0.25625000  0.32040000  1.0 0.0982258527
H  H1335  1  0.55601000  0.22988000  0.32993000  1.0 0.0801729239
H  H1336  1  0.72151000  0.13302000  0.28294000  1.0 0.0905139511
H  H1337  1  0.65041000  0.09869000  0.25767000  1.0 0.0982258527
H  H1338  1  0.74228000  0.08247000  0.25613000  1.0 0.0905139511
H  H1339  1  0.74214000  0.11595000  0.22267000  1.0 0.0714405285
H  H1340  1  0.66694000  0.17718000  0.25253000  1.0 0.0801729239
H  H1341  1  0.71083000  0.23911000  0.25679000  1.0 0.0905139511
H  H1342  1  0.68940000  0.22680000  0.27910000  1.0 0.0982258527
H  H1343  1  0.71239000  0.13779000  0.19542000  1.0 0.0905139511
H  H1344  1  0.62983000  0.09400000  0.19144000  1.0 0.0801729239
H  H1345  1  0.69372000  0.11594000  0.16010000  1.0 0.0982258527
H  H1346  1  0.63505000  0.15840000  0.14573000  1.0 0.0905139511
H  H1347  1  0.62598000  0.17318000  0.20105000  1.0 0.0905139511
H  H1348  1  0.65920000  0.24223000  0.20114000  1.0 0.0982258527
H  H1349  1  0.67674000  0.21339000  0.22036000  1.0 0.0905139511
H  H1350  1  0.57479000  0.12802000  0.13815000  1.0 0.0905139511
H  H1351  1  0.52589000  0.09094000  0.17305000  1.0 0.0982258527
H  H1352  1  0.51416000  0.07408000  0.12862000  1.0 0.0982258527
H  H1353  1  0.44829000  0.11379000  0.13056000  1.0 0.0801729239
H  H1354  1  0.51261000  0.16919000  0.16589000  1.0 0.0801729239
H  H1355  1  0.52169000  0.23426000  0.14864000  1.0 0.0905139511
H  H1356  1  0.56869000  0.21926000  0.15667000  1.0 0.0982258527
H  H1357  1  0.39344000  0.13599000  0.14660000  1.0 0.0905139511
H  H1358  1  0.39632000  0.08361000  0.18444000  1.0 0.0905139511
H  H1359  1  0.32222000  0.10246000  0.15840000  1.0 0.0905139511
H  H1360  1  0.29382000  0.14458000  0.18605000  1.0 0.0905139511
H  H1361  1  0.40755000  0.16545000  0.18963000  1.0 0.0905139511
H  H1362  1  0.40118000  0.23671000  0.17550000  1.0 0.0982258527
H  H1363  1  0.44274000  0.21204000  0.16600000  1.0 0.0905139511
H  H1364  1  0.27901000  0.14270000  0.21646000  1.0 0.0905139511
H  H1365  1  0.33383000  0.09023000  0.24285000  1.0 0.0905139511
H  H1366  1  0.24246000  0.10558000  0.24794000  1.0 0.0801729239
H  H1367  1  0.25619000  0.15273000  0.27552000  1.0 0.0801729239
H  H1368  1  0.34844000  0.16813000  0.24429000  1.0 0.0905139511
H  H1369  1  0.33478000  0.24092000  0.23480000  1.0 0.0982258527
H  H1370  1  0.35298000  0.21403000  0.21497000  1.0 0.0982258527
H  H1371  1  0.30496000  0.92786000  0.19858000  1.0 0.3025613501
H  H1372  1  0.33604000  0.91315000  0.13785000  1.0 0.2091729768
H  H1373  1  0.29516000  0.74748000  0.20762000  1.0 0.3409018652
H  H1374  1  0.22322000  0.80034000  0.27758000  1.0 0.1383375667
H  H1375  1  0.41232000  0.93425000  0.15032000  1.0 0.3297348221
H  H1376  1  0.53900000  0.96696000  0.12925000  1.0 0.3409018652
H  H1377  1  0.25856000  0.93993000  0.26532000  1.0 0.2091729768
H  H1378  1  0.24662000  0.93109000  0.22338000  1.0 0.1634170443
H  H1379  1  0.43717000  0.75952000  0.12214000  1.0 0.3126519721
H  H1380  1  0.59471000  0.95351000  0.15213000  1.0 0.3297348221
H  H1381  1  0.68594000  0.94571000  0.19125000  1.0 0.2291639824
H  H1382  1  0.58898000  0.77124000  0.13585000  1.0 0.1179892357
H  H1383  1  0.68540000  0.95099000  0.20708000  1.0 0.2461951135
H  H1384  1  0.69283000  0.95825000  0.27546000  1.0 0.2185350708
H  H1385  1  0.76364000  0.81940000  0.22234000  1.0 0.2461951135
H  H1386  1  0.68551000  0.95720000  0.29356000  1.0 0.2091729768
H  H1387  1  0.60994000  0.94455000  0.33966000  1.0 0.2091729768
H  H1388  1  0.71469000  0.76219000  0.30175000  1.0 0.3025613501
H  H1389  1  0.57669000  0.94713000  0.33910000  1.0 0.2291639824
H  H1390  1  0.43779000  0.95002000  0.34379000  1.0 0.2091729768
H  H1391  1  0.56354000  0.82018000  0.37333000  1.0 0.1897413932
H  H1392  1  0.40113000  0.94602000  0.34541000  1.0 0.2091729768
H  H1393  1  0.30381000  0.93732000  0.30143000  1.0 0.2433895647
H  H1394  1  0.40604000  0.76908000  0.35886000  1.0 0.1897413932
H  H1395  1  0.27483000  0.84915000  0.27843000  1.0 0.0714405285
H  H1396  1  0.30056000  0.83744000  0.19188000  1.0 0.0905139511
H  H1397  1  0.35038000  0.80814000  0.25960000  1.0 0.0714405285
H  H1398  1  0.36960000  0.89963000  0.18810000  1.0 0.0905139511
H  H1399  1  0.29998000  0.78280000  0.28902000  1.0 0.0905139511
H  H1400  1  0.29970000  0.75067000  0.26957000  1.0 0.0714405285
H  H1401  1  0.31395000  0.86321000  0.15658000  1.0 0.0905139511
H  H1402  1  0.26634000  0.83786000  0.21621000  1.0 0.0982258527
H  H1403  1  0.37875000  0.83150000  0.14345000  1.0 0.0905139511
H  H1404  1  0.24091000  0.88000000  0.24431000  1.0 0.0982258527
H  H1405  1  0.39245000  0.82426000  0.19826000  1.0 0.0905139511
H  H1406  1  0.32903000  0.90407000  0.25368000  1.0 0.0801729239
H  H1407  1  0.37694000  0.74808000  0.20109000  1.0 0.1112036729
H  H1408  1  0.35403000  0.77441000  0.21998000  1.0 0.0801729239
H  H1409  1  0.43472000  0.86394000  0.13400000  1.0 0.0982258527
H  H1410  1  0.47957000  0.91268000  0.16634000  1.0 0.0982258527
H  H1411  1  0.49476000  0.91725000  0.12177000  1.0 0.0905139511
H  H1412  1  0.56224000  0.88445000  0.12738000  1.0 0.0801729239
H  H1413  1  0.49676000  0.83046000  0.16404000  1.0 0.0801729239
H  H1414  1  0.49197000  0.76374000  0.14499000  1.0 0.0905139511
H  H1415  1  0.44587000  0.77584000  0.15534000  1.0 0.0982258527
H  H1416  1  0.61474000  0.86605000  0.14476000  1.0 0.0905139511
H  H1417  1  0.61307000  0.92027000  0.18168000  1.0 0.0905139511
H  H1418  1  0.68730000  0.89697000  0.15664000  1.0 0.0982258527
H  H1419  1  0.71173000  0.85594000  0.18616000  1.0 0.0801729239
H  H1420  1  0.59853000  0.83630000  0.18740000  1.0 0.0801729239
H  H1421  1  0.60509000  0.76514000  0.17273000  1.0 0.1112036729
H  H1422  1  0.56342000  0.79024000  0.16382000  1.0 0.1307152767
H  H1423  1  0.72286000  0.88678000  0.21484000  1.0 0.0801729239
H  H1424  1  0.64895000  0.91602000  0.23907000  1.0 0.0982258527
H  H1425  1  0.74000000  0.93537000  0.24450000  1.0 0.1112036729
H  H1426  1  0.73601000  0.89665000  0.27615000  1.0 0.0714405285
H  H1427  1  0.66725000  0.83744000  0.24279000  1.0 0.0801729239
H  H1428  1  0.70380000  0.77634000  0.23628000  1.0 0.1179892357
H  H1429  1  0.69465000  0.79616000  0.21354000  1.0 0.0905139511
H  H1430  1  0.70430000  0.87116000  0.30169000  1.0 0.0982258527
H  H1431  1  0.62509000  0.92074000  0.30308000  1.0 0.0905139511
H  H1432  1  0.68216000  0.89717000  0.33725000  1.0 0.0905139511
H  H1433  1  0.62455000  0.85376000  0.34980000  1.0 0.0905139511
H  H1434  1  0.61696000  0.83872000  0.29525000  1.0 0.0905139511
H  H1435  1  0.64966000  0.76818000  0.29648000  1.0 0.0905139511
H  H1436  1  0.66516000  0.79544000  0.27632000  1.0 0.0982258527
H  H1437  1  0.56456000  0.88103000  0.35738000  1.0 0.0801729239
H  H1438  1  0.50995000  0.91296000  0.32330000  1.0 0.0905139511
H  H1439  1  0.50198000  0.92666000  0.36827000  1.0 0.0982258527
H  H1440  1  0.43701000  0.88509000  0.36610000  1.0 0.0801729239
H  H1441  1  0.50498000  0.83455000  0.33009000  1.0 0.0905139511
H  H1442  1  0.51905000  0.77021000  0.34856000  1.0 0.0982258527
H  H1443  1  0.56341000  0.78729000  0.33813000  1.0 0.0982258527
H  H1444  1  0.38229000  0.86442000  0.35012000  1.0 0.0905139511
H  H1445  1  0.38395000  0.91702000  0.31237000  1.0 0.0801729239
H  H1446  1  0.30990000  0.89712000  0.33805000  1.0 0.0982258527
H  H1447  1  0.28279000  0.85527000  0.30980000  1.0 0.0714405285
H  H1448  1  0.39529000  0.83362000  0.30750000  1.0 0.0905139511
H  H1449  1  0.38887000  0.76266000  0.32246000  1.0 0.0982258527
H  H1450  1  0.43154000  0.78749000  0.33055000  1.0 0.0905139511
H  H1451  1  0.81847000  0.82584000  0.25145000  1.0 0.2617576897
H  H1452  1  0.86224000  0.82066000  0.25636000  1.0 0.2827722535
H  H1453  1  0.38571000  0.69641000  0.04034000  1.0 0.2091729768
H  H1454  1  0.29584000  0.62718000  0.04897000  1.0 0.1897413932
H  H1455  1  0.40082000  0.72459000  0.11521000  1.0 0.3297348221
H  H1456  1  0.28926000  0.58831000  0.04616000  1.0 0.2091729768
H  H1457  1  0.31990000  0.46237000  0.03919000  1.0 0.3216567599
H  H1458  1  0.22998000  0.57333000  0.12615000  1.0 0.1998830532
H  H1459  1  0.30513000  0.40382000  0.04331000  1.0 0.2827722535
H  H1460  1  0.37713000  0.30974000  0.04847000  1.0 0.2185350708
H  H1461  1  0.26872000  0.41643000  0.13080000  1.0 0.3216567599
H  H1462  1  0.40851000  0.33312000  0.04573000  1.0 0.2291639824
H  H1463  1  0.52861000  0.29532000  0.02542000  1.0 0.3297348221
H  H1464  1  0.43548000  0.23107000  0.12318000  1.0 0.2091729768
H  H1465  1  0.59151000  0.30432000  0.04074000  1.0 0.3126519721
H  H1466  1  0.68761000  0.38118000  0.04186000  1.0 0.2291639824
H  H1467  1  0.61733000  0.29192000  0.13400000  1.0 0.3297348221
H  H1468  1  0.69208000  0.41577000  0.03940000  1.0 0.2291639824
H  H1469  1  0.73577000  0.53047000  0.02397000  1.0 0.2291639824
H  H1470  1  0.74506000  0.42980000  0.12411000  1.0 0.2291639824
H  H1471  1  0.68732000  0.59095000  0.03223000  1.0 0.3297348221
H  H1472  1  0.60176000  0.68745000  0.03485000  1.0 0.2091729768
H  H1473  1  0.71569000  0.59803000  0.12361000  1.0 0.1897413932
H  H1474  1  0.56692000  0.69010000  0.03370000  1.0 0.2291639824
H  H1475  1  0.42256000  0.69524000  0.03990000  1.0 0.2185350708
H  H1476  1  0.57336000  0.75628000  0.11943000  1.0 0.2091729768
H  H1477  1  0.38282000  0.71209000  0.08640000  1.0 0.0801729239
H  H1478  1  0.36975000  0.63988000  0.05798000  1.0 0.0905139511
H  H1479  1  0.30239000  0.69389000  0.07590000  1.0 0.0905139511
H  H1480  1  0.28056000  0.63035000  0.09454000  1.0 0.0905139511
H  H1481  1  0.39366000  0.62118000  0.09633000  1.0 0.0905139511
H  H1482  1  0.39971000  0.64515000  0.13176000  1.0 0.1112036729
H  H1483  1  0.43941000  0.66140000  0.11743000  1.0 0.0982258527
H  H1484  1  0.26587000  0.57105000  0.07833000  1.0 0.0905139511
H  H1485  1  0.33977000  0.52765000  0.05938000  1.0 0.0905139511
H  H1486  1  0.25097000  0.50512000  0.05323000  1.0 0.0905139511
H  H1487  1  0.25822000  0.44243000  0.07242000  1.0 0.0801729239
H  H1488  1  0.32778000  0.51475000  0.09953000  1.0 0.0801729239
H  H1489  1  0.28234000  0.52248000  0.12939000  1.0 0.0905139511
H  H1490  1  0.29977000  0.56952000  0.12230000  1.0 0.0905139511
H  H1491  1  0.28805000  0.39207000  0.08620000  1.0 0.0905139511
H  H1492  1  0.36416000  0.38377000  0.05975000  1.0 0.0801729239
H  H1493  1  0.30913000  0.31474000  0.07472000  1.0 0.0982258527
H  H1494  1  0.37165000  0.29065000  0.09390000  1.0 0.0905139511
H  H1495  1  0.37610000  0.40511000  0.09998000  1.0 0.0905139511
H  H1496  1  0.34555000  0.40468000  0.13434000  1.0 0.0982258527
H  H1497  1  0.32616000  0.44386000  0.12057000  1.0 0.0905139511
H  H1498  1  0.42913000  0.27846000  0.07496000  1.0 0.0905139511
H  H1499  1  0.47432000  0.35676000  0.06097000  1.0 0.0905139511
H  H1500  1  0.49058000  0.26737000  0.04808000  1.0 0.0801729239
H  H1501  1  0.55603000  0.26729000  0.06644000  1.0 0.0714405285
H  H1502  1  0.48960000  0.33356000  0.09835000  1.0 0.0801729239
H  H1503  1  0.48319000  0.28399000  0.12651000  1.0 0.0801729239
H  H1504  1  0.43598000  0.30365000  0.12127000  1.0 0.0982258527
H  H1505  1  0.60825000  0.29402000  0.08192000  1.0 0.0905139511
H  H1506  1  0.61475000  0.36817000  0.05408000  1.0 0.0905139511
H  H1507  1  0.68527000  0.31221000  0.06752000  1.0 0.0905139511
H  H1508  1  0.71269000  0.37525000  0.08508000  1.0 0.0905139511
H  H1509  1  0.59922000  0.38379000  0.09441000  1.0 0.0905139511
H  H1510  1  0.60136000  0.35672000  0.12943000  1.0 0.0905139511
H  H1511  1  0.56027000  0.33760000  0.11685000  1.0 0.0982258527
H  H1512  1  0.72597000  0.43609000  0.07398000  1.0 0.0905139511
H  H1513  1  0.65750000  0.48156000  0.05163000  1.0 0.0905139511
H  H1514  1  0.74968000  0.49675000  0.05066000  1.0 0.0801729239
H  H1515  1  0.73786000  0.56221000  0.06811000  1.0 0.0905139511
H  H1516  1  0.65919000  0.49221000  0.09103000  1.0 0.0905139511
H  H1517  1  0.69617000  0.48493000  0.12364000  1.0 0.0905139511
H  H1518  1  0.67719000  0.43892000  0.11590000  1.0 0.0982258527
H  H1519  1  0.70297000  0.61701000  0.07282000  1.0 0.0982258527
H  H1520  1  0.62427000  0.61268000  0.04800000  1.0 0.0905139511
H  H1521  1  0.67854000  0.68748000  0.05454000  1.0 0.0905139511
H  H1522  1  0.62089000  0.71578000  0.07554000  1.0 0.0982258527
H  H1523  1  0.61434000  0.60522000  0.08733000  1.0 0.0905139511
H  H1524  1  0.64205000  0.61077000  0.12196000  1.0 0.0982258527
H  H1525  1  0.66030000  0.56820000  0.11038000  1.0 0.0905139511
H  H1526  1  0.55751000  0.72740000  0.06685000  1.0 0.0905139511
H  H1527  1  0.50601000  0.65388000  0.05270000  1.0 0.0905139511
H  H1528  1  0.48784000  0.74439000  0.04551000  1.0 0.0982258527
H  H1529  1  0.43200000  0.74194000  0.07006000  1.0 0.0801729239
H  H1530  1  0.50533000  0.66714000  0.09106000  1.0 0.0801729239
H  H1531  1  0.52357000  0.70655000  0.12161000  1.0 0.0905139511
H  H1532  1  0.56683000  0.68595000  0.11157000  1.0 0.0982258527
H  H1533  1  0.73082000  0.78061000  0.25100000  1.0 0.0982258527
H  H1534  1  0.62779000  0.76323000  0.18672000  1.0 0.2617576897
H  H1535  1  0.30693000  0.94585000  0.28668000  1.0 0.2291639824
H  H1536  1  0.28508000  0.97537000  0.22971000  1.0 0.289532886
H  H1537  1  0.19042000  0.82235000  0.26994000  1.0 0.2291639824
H  H1538  1  0.56374000  0.79102000  0.16156000  1.0 0.1307152767
H  H1539  1  0.60981000  0.78412000  0.14991000  1.0 0.1112036729
H  H1540  1  0.68766000  0.78872000  0.21793000  1.0 0.0905139511
H  H1541  1  0.73619000  0.80711000  0.21689000  1.0 0.1307152767
H  H1542  1  0.27001000  0.87619000  0.28104000  1.0 0.0982258527
H  H1543  1  0.34099000  0.91285000  0.25784000  1.0 0.0801729239
H  H1544  1  0.25223000  0.92250000  0.24404000  1.0 0.0801729239
H  H1545  1  0.32555000  0.81370000  0.25994000  1.0 0.1112036729
H  H1546  1  0.25656000  0.81930000  0.28414000  1.0 0.0714405285
H  H1547  1  0.26616000  0.77842000  0.27028000  1.0 0.1307152767
H  H1548  1  0.24800000  0.88600000  0.21900000  1.0 0.0905139511
H  H1549  1  0.42522000  0.79832000  0.54825000  1.0 0.3297348221
H  H1550  1  0.40966000  0.87623000  0.59757000  1.0 0.3126519721
H  H1551  1  0.26457000  0.76463000  0.53815000  1.0 0.3126519721
H  H1552  1  0.44878000  0.94166000  0.58866000  1.0 0.3490727518
H  H1553  1  0.44837000  0.01431000  0.59120000  1.0 0.3409018652
H  H1554  1  0.24714000  0.92537000  0.62535000  1.0 0.1998830532
H  H1555  1  0.43132000  0.08810000  0.59219000  1.0 0.3297348221
H  H1556  1  0.42749000  0.18267000  0.55820000  1.0 0.2091729768
H  H1557  1  0.26467000  0.08354000  0.60921000  1.0 0.2185350708
H  H1558  1  0.43070000  0.17997000  0.54171000  1.0 0.2291639824
H  H1559  1  0.46479000  0.23007000  0.48285000  1.0 0.2185350708
H  H1560  1  0.26602000  0.25843000  0.53476000  1.0 0.2091729768
H  H1561  1  0.46390000  0.16398000  0.44213000  1.0 0.3297348221
H  H1562  1  0.42992000  0.12204000  0.40287000  1.0 0.1998830532
H  H1563  1  0.26207000  0.23365000  0.45680000  1.0 0.1897413932
H  H1564  1  0.44062000  0.09055000  0.40195000  1.0 0.2291639824
H  H1565  1  0.45050000  0.94972000  0.39851000  1.0 0.2185350708
H  H1566  1  0.25820000  0.07084000  0.37455000  1.0 0.3025613501
H  H1567  1  0.45050000  0.91556000  0.40435000  1.0 0.2091729768
H  H1568  1  0.43671000  0.81122000  0.44478000  1.0 0.2185350708
H  H1569  1  0.27537000  0.91530000  0.38729000  1.0 0.2091729768
H  H1570  1  0.43909000  0.80273000  0.46216000  1.0 0.2185350708
H  H1571  1  0.45332000  0.76351000  0.51347000  1.0 0.3297348221
H  H1572  1  0.25350000  0.79541000  0.45421000  1.0 0.3126519721
H  H1573  1  0.34109000  0.78581000  0.55365000  1.0 0.0905139511
H  H1574  1  0.39334000  0.86324000  0.55819000  1.0 0.0905139511
H  H1575  1  0.36336000  0.80489000  0.59028000  1.0 0.0982258527
H  H1576  1  0.32214000  0.86533000  0.60314000  1.0 0.0905139511
H  H1577  1  0.31066000  0.87411000  0.54778000  1.0 0.0905139511
H  H1578  1  0.23950000  0.84069000  0.54776000  1.0 0.0982258527
H  H1579  1  0.26816000  0.82645000  0.52785000  1.0 0.0905139511
H  H1580  1  0.34931000  0.92680000  0.61076000  1.0 0.0982258527
H  H1581  1  0.39064000  0.97311000  0.57656000  1.0 0.0801729239
H  H1582  1  0.39860000  0.98948000  0.62107000  1.0 0.0982258527
H  H1583  1  0.36221000  0.05485000  0.61595000  1.0 0.0801729239
H  H1584  1  0.30905000  0.98417000  0.58030000  1.0 0.0801729239
H  H1585  1  0.24432000  0.97644000  0.59999000  1.0 0.0905139511
H  H1586  1  0.25972000  0.92950000  0.59167000  1.0 0.0982258527
H  H1587  1  0.34329000  0.10752000  0.59974000  1.0 0.0905139511
H  H1588  1  0.39775000  0.10984000  0.56283000  1.0 0.0905139511
H  H1589  1  0.37260000  0.18004000  0.59015000  1.0 0.0982258527
H  H1590  1  0.33401000  0.20803000  0.56057000  1.0 0.0905139511
H  H1591  1  0.31595000  0.09426000  0.55672000  1.0 0.0905139511
H  H1592  1  0.24375000  0.09649000  0.57040000  1.0 0.0982258527
H  H1593  1  0.27012000  0.05601000  0.57993000  1.0 0.0801729239
H  H1594  1  0.36698000  0.22151000  0.53294000  1.0 0.0905139511
H  H1595  1  0.40131000  0.15041000  0.50767000  1.0 0.0982258527
H  H1596  1  0.41753000  0.24228000  0.50613000  1.0 0.0905139511
H  H1597  1  0.38405000  0.24214000  0.47267000  1.0 0.0714405285
H  H1598  1  0.32282000  0.16694000  0.50253000  1.0 0.0801729239
H  H1599  1  0.26089000  0.21083000  0.50679000  1.0 0.0905139511
H  H1600  1  0.27320000  0.18940000  0.52910000  1.0 0.0982258527
H  H1601  1  0.36221000  0.21239000  0.44542000  1.0 0.0905139511
H  H1602  1  0.40600000  0.12983000  0.44144000  1.0 0.0801729239
H  H1603  1  0.38406000  0.19372000  0.41010000  1.0 0.0982258527
H  H1604  1  0.34160000  0.13505000  0.39573000  1.0 0.0905139511
H  H1605  1  0.32682000  0.12598000  0.45105000  1.0 0.0905139511
H  H1606  1  0.25777000  0.15920000  0.45114000  1.0 0.0982258527
H  H1607  1  0.28661000  0.17674000  0.47036000  1.0 0.0905139511
H  H1608  1  0.37198000  0.07479000  0.38815000  1.0 0.0905139511
H  H1609  1  0.40906000  0.02589000  0.42305000  1.0 0.0982258527
H  H1610  1  0.42592000  0.01416000  0.37862000  1.0 0.0982258527
H  H1611  1  0.38621000  0.94829000  0.38056000  1.0 0.0801729239
H  H1612  1  0.33081000  0.01261000  0.41589000  1.0 0.0801729239
H  H1613  1  0.26574000  0.02169000  0.39864000  1.0 0.0905139511
H  H1614  1  0.28074000  0.06869000  0.40667000  1.0 0.0982258527
H  H1615  1  0.36401000  0.89344000  0.39660000  1.0 0.0905139511
H  H1616  1  0.41639000  0.89632000  0.43444000  1.0 0.0905139511
H  H1617  1  0.39754000  0.82222000  0.40840000  1.0 0.0905139511
H  H1618  1  0.35542000  0.79382000  0.43605000  1.0 0.0905139511
H  H1619  1  0.33455000  0.90755000  0.43963000  1.0 0.0905139511
H  H1620  1  0.26329000  0.90118000  0.42550000  1.0 0.0982258527
H  H1621  1  0.28796000  0.94274000  0.41600000  1.0 0.0905139511
H  H1622  1  0.35730000  0.77901000  0.46646000  1.0 0.0905139511
H  H1623  1  0.40977000  0.83383000  0.49285000  1.0 0.0982258527
H  H1624  1  0.39442000  0.74246000  0.49794000  1.0 0.0801729239
H  H1625  1  0.34727000  0.75619000  0.52552000  1.0 0.0801729239
H  H1626  1  0.33187000  0.84844000  0.49429000  1.0 0.0905139511
H  H1627  1  0.25908000  0.83478000  0.48480000  1.0 0.0982258527
H  H1628  1  0.28597000  0.85298000  0.46497000  1.0 0.0982258527
H  H1629  1  0.57214000  0.80496000  0.44858000  1.0 0.3025613501
H  H1630  1  0.58685000  0.83604000  0.38785000  1.0 0.2091729768
H  H1631  1  0.75252000  0.79516000  0.45762000  1.0 0.3409018652
H  H1632  1  0.69966000  0.72322000  0.52758000  1.0 0.1383375667
H  H1633  1  0.56575000  0.91232000  0.40032000  1.0 0.3297348221
H  H1634  1  0.53304000  0.03900000  0.37925000  1.0 0.3409018652
H  H1635  1  0.56007000  0.75856000  0.51532000  1.0 0.2091729768
H  H1636  1  0.56891000  0.74662000  0.47338000  1.0 0.1634170443
H  H1637  1  0.74048000  0.93717000  0.37214000  1.0 0.3126519721
H  H1638  1  0.54649000  0.09471000  0.40213000  1.0 0.3297348221
H  H1639  1  0.55429000  0.18594000  0.44125000  1.0 0.2291639824
H  H1640  1  0.72876000  0.08898000  0.38585000  1.0 0.1179892357
H  H1641  1  0.54901000  0.18540000  0.45708000  1.0 0.2461951135
H  H1642  1  0.54175000  0.19283000  0.52546000  1.0 0.2185350708
H  H1643  1  0.68060000  0.26364000  0.47234000  1.0 0.2461951135
H  H1644  1  0.54280000  0.18551000  0.54356000  1.0 0.2091729768
H  H1645  1  0.55545000  0.10994000  0.58966000  1.0 0.2091729768
H  H1646  1  0.73781000  0.21469000  0.55175000  1.0 0.3025613501
H  H1647  1  0.55287000  0.07669000  0.58910000  1.0 0.2291639824
H  H1648  1  0.54998000  0.93779000  0.59379000  1.0 0.2091729768
H  H1649  1  0.67982000  0.06354000  0.62333000  1.0 0.1897413932
H  H1650  1  0.55398000  0.90113000  0.59541000  1.0 0.2091729768
H  H1651  1  0.56268000  0.80381000  0.55143000  1.0 0.2433895647
H  H1652  1  0.73092000  0.90604000  0.60886000  1.0 0.1897413932
H  H1653  1  0.65085000  0.77483000  0.52843000  1.0 0.0714405285
H  H1654  1  0.66256000  0.80056000  0.44188000  1.0 0.0905139511
H  H1655  1  0.69186000  0.85038000  0.50960000  1.0 0.0714405285
H  H1656  1  0.60037000  0.86960000  0.43810000  1.0 0.0905139511
H  H1657  1  0.71720000  0.79998000  0.53902000  1.0 0.0905139511
H  H1658  1  0.74933000  0.79970000  0.51957000  1.0 0.0714405285
H  H1659  1  0.63679000  0.81395000  0.40658000  1.0 0.0905139511
H  H1660  1  0.66214000  0.76634000  0.46621000  1.0 0.0982258527
H  H1661  1  0.66850000  0.87875000  0.39345000  1.0 0.0905139511
H  H1662  1  0.62000000  0.74091000  0.49431000  1.0 0.0982258527
H  H1663  1  0.67574000  0.89245000  0.44826000  1.0 0.0905139511
H  H1664  1  0.59593000  0.82903000  0.50368000  1.0 0.0801729239
H  H1665  1  0.75192000  0.87694000  0.45109000  1.0 0.1112036729
H  H1666  1  0.72559000  0.85403000  0.46998000  1.0 0.0801729239
H  H1667  1  0.63606000  0.93472000  0.38400000  1.0 0.0982258527
H  H1668  1  0.58732000  0.97957000  0.41634000  1.0 0.0982258527
H  H1669  1  0.58275000  0.99476000  0.37177000  1.0 0.0905139511
H  H1670  1  0.61555000  0.06224000  0.37738000  1.0 0.0801729239
H  H1671  1  0.66954000  0.99676000  0.41404000  1.0 0.0801729239
H  H1672  1  0.73626000  0.99197000  0.39499000  1.0 0.0905139511
H  H1673  1  0.72416000  0.94587000  0.40534000  1.0 0.0982258527
H  H1674  1  0.63395000  0.11474000  0.39476000  1.0 0.0905139511
H  H1675  1  0.57973000  0.11307000  0.43168000  1.0 0.0905139511
H  H1676  1  0.60303000  0.18730000  0.40664000  1.0 0.0982258527
H  H1677  1  0.64406000  0.21173000  0.43616000  1.0 0.0801729239
H  H1678  1  0.66370000  0.09853000  0.43740000  1.0 0.0801729239
H  H1679  1  0.73486000  0.10509000  0.42273000  1.0 0.1112036729
H  H1680  1  0.70976000  0.06342000  0.41382000  1.0 0.1307152767
H  H1681  1  0.61322000  0.22286000  0.46484000  1.0 0.0801729239
H  H1682  1  0.58398000  0.14895000  0.48907000  1.0 0.0982258527
H  H1683  1  0.56463000  0.24000000  0.49450000  1.0 0.1112036729
H  H1684  1  0.60335000  0.23601000  0.52615000  1.0 0.0714405285
H  H1685  1  0.66256000  0.16725000  0.49279000  1.0 0.0801729239
H  H1686  1  0.72366000  0.20380000  0.48628000  1.0 0.1112036729
H  H1687  1  0.70384000  0.19465000  0.46354000  1.0 0.0905139511
H  H1688  1  0.62884000  0.20430000  0.55169000  1.0 0.0982258527
H  H1689  1  0.57926000  0.12509000  0.55308000  1.0 0.0905139511
H  H1690  1  0.60283000  0.18216000  0.58725000  1.0 0.0905139511
H  H1691  1  0.64624000  0.12455000  0.59980000  1.0 0.0905139511
H  H1692  1  0.66128000  0.11696000  0.54525000  1.0 0.0905139511
H  H1693  1  0.73182000  0.14966000  0.54648000  1.0 0.0905139511
H  H1694  1  0.70456000  0.16516000  0.52632000  1.0 0.0982258527
H  H1695  1  0.61897000  0.06456000  0.60738000  1.0 0.0801729239
H  H1696  1  0.58704000  0.00995000  0.57330000  1.0 0.0905139511
H  H1697  1  0.57334000  0.00198000  0.61827000  1.0 0.0982258527
H  H1698  1  0.61491000  0.93701000  0.61610000  1.0 0.0801729239
H  H1699  1  0.66545000  0.00498000  0.58009000  1.0 0.0905139511
H  H1700  1  0.72979000  0.01905000  0.59856000  1.0 0.0982258527
H  H1701  1  0.71271000  0.06341000  0.58813000  1.0 0.0982258527
H  H1702  1  0.63558000  0.88229000  0.60012000  1.0 0.0905139511
H  H1703  1  0.58298000  0.88395000  0.56237000  1.0 0.0801729239
H  H1704  1  0.60288000  0.80990000  0.58805000  1.0 0.0982258527
H  H1705  1  0.64473000  0.78279000  0.55980000  1.0 0.0714405285
H  H1706  1  0.66638000  0.89529000  0.55750000  1.0 0.0905139511
H  H1707  1  0.73734000  0.88887000  0.57246000  1.0 0.0982258527
H  H1708  1  0.71251000  0.93154000  0.58055000  1.0 0.0905139511
H  H1709  1  0.67416000  0.31847000  0.50145000  1.0 0.2617576897
H  H1710  1  0.67934000  0.36224000  0.50636000  1.0 0.2827722535
H  H1711  1  0.80359000  0.88571000  0.29034000  1.0 0.2091729768
H  H1712  1  0.87282000  0.79584000  0.29897000  1.0 0.1897413932
H  H1713  1  0.77541000  0.90082000  0.36521000  1.0 0.3297348221
H  H1714  1  0.91169000  0.78926000  0.29616000  1.0 0.2091729768
H  H1715  1  0.03763000  0.81990000  0.28919000  1.0 0.3216567599
H  H1716  1  0.92667000  0.72998000  0.37615000  1.0 0.2091729768
H  H1717  1  0.09618000  0.80513000  0.29331000  1.0 0.2827722535
H  H1718  1  0.19026000  0.87713000  0.29847000  1.0 0.2185350708
H  H1719  1  0.08357000  0.76872000  0.38080000  1.0 0.3216567599
H  H1720  1  0.16688000  0.90851000  0.29573000  1.0 0.2291639824
H  H1721  1  0.20468000  0.02861000  0.27542000  1.0 0.3297348221
H  H1722  1  0.26893000  0.93548000  0.37318000  1.0 0.2091729768
H  H1723  1  0.19568000  0.09151000  0.29074000  1.0 0.3126519721
H  H1724  1  0.11882000  0.18761000  0.29186000  1.0 0.2291639824
H  H1725  1  0.20808000  0.11733000  0.38400000  1.0 0.3297348221
H  H1726  1  0.08423000  0.19208000  0.28940000  1.0 0.2291639824
H  H1727  1  0.96953000  0.23577000  0.27397000  1.0 0.2291639824
H  H1728  1  0.07020000  0.24506000  0.37411000  1.0 0.2185350708
H  H1729  1  0.90905000  0.18732000  0.28223000  1.0 0.3297348221
H  H1730  1  0.81255000  0.10176000  0.28485000  1.0 0.2091729768
H  H1731  1  0.90197000  0.21569000  0.37361000  1.0 0.1897413932
H  H1732  1  0.80990000  0.06692000  0.28370000  1.0 0.2291639824
H  H1733  1  0.80476000  0.92256000  0.28990000  1.0 0.2185350708
H  H1734  1  0.74372000  0.07336000  0.36943000  1.0 0.2091729768
H  H1735  1  0.78791000  0.88282000  0.33640000  1.0 0.0801729239
H  H1736  1  0.86012000  0.86975000  0.30798000  1.0 0.0905139511
H  H1737  1  0.80611000  0.80239000  0.32590000  1.0 0.0905139511
H  H1738  1  0.86965000  0.78056000  0.34454000  1.0 0.0905139511
H  H1739  1  0.87882000  0.89366000  0.34633000  1.0 0.0905139511
H  H1740  1  0.85485000  0.89971000  0.38176000  1.0 0.1112036729
H  H1741  1  0.83860000  0.93941000  0.36743000  1.0 0.0982258527
H  H1742  1  0.92895000  0.76587000  0.32833000  1.0 0.0905139511
H  H1743  1  0.97235000  0.83977000  0.30938000  1.0 0.0905139511
H  H1744  1  0.99488000  0.75097000  0.30323000  1.0 0.0905139511
H  H1745  1  0.05757000  0.75822000  0.32242000  1.0 0.0801729239
H  H1746  1  0.98525000  0.82778000  0.34953000  1.0 0.0801729239
H  H1747  1  0.97752000  0.78234000  0.37939000  1.0 0.0905139511
H  H1748  1  0.93048000  0.79977000  0.37230000  1.0 0.0905139511
H  H1749  1  0.10793000  0.78805000  0.33620000  1.0 0.0905139511
H  H1750  1  0.11623000  0.86416000  0.30975000  1.0 0.0801729239
H  H1751  1  0.18526000  0.80913000  0.32472000  1.0 0.0982258527
H  H1752  1  0.20935000  0.87165000  0.34390000  1.0 0.0905139511
H  H1753  1  0.09489000  0.87610000  0.34998000  1.0 0.0905139511
H  H1754  1  0.09532000  0.84555000  0.38434000  1.0 0.0982258527
H  H1755  1  0.05614000  0.82616000  0.37057000  1.0 0.0905139511
H  H1756  1  0.22154000  0.92913000  0.32496000  1.0 0.0905139511
H  H1757  1  0.14324000  0.97432000  0.31097000  1.0 0.0905139511
H  H1758  1  0.23263000  0.99058000  0.29808000  1.0 0.0801729239
H  H1759  1  0.23271000  0.05603000  0.31644000  1.0 0.0714405285
H  H1760  1  0.16644000  0.98960000  0.34835000  1.0 0.0801729239
H  H1761  1  0.21601000  0.98319000  0.37651000  1.0 0.0801729239
H  H1762  1  0.19635000  0.93598000  0.37127000  1.0 0.0982258527
H  H1763  1  0.20598000  0.10825000  0.33192000  1.0 0.0905139511
H  H1764  1  0.13183000  0.11475000  0.30408000  1.0 0.0905139511
H  H1765  1  0.18779000  0.18527000  0.31752000  1.0 0.0905139511
H  H1766  1  0.12475000  0.21269000  0.33508000  1.0 0.0905139511
H  H1767  1  0.11621000  0.09922000  0.34441000  1.0 0.0905139511
H  H1768  1  0.14328000  0.10136000  0.37943000  1.0 0.0905139511
H  H1769  1  0.16240000  0.06027000  0.36685000  1.0 0.0982258527
H  H1770  1  0.06391000  0.22597000  0.32398000  1.0 0.0905139511
H  H1771  1  0.01844000  0.15750000  0.30163000  1.0 0.0905139511
H  H1772  1  0.00325000  0.24968000  0.30066000  1.0 0.0801729239
H  H1773  1  0.93779000  0.23786000  0.31811000  1.0 0.0905139511
H  H1774  1  0.00779000  0.15919000  0.34103000  1.0 0.0905139511
H  H1775  1  0.01507000  0.19617000  0.37364000  1.0 0.0905139511
H  H1776  1  0.06108000  0.17719000  0.36590000  1.0 0.0982258527
H  H1777  1  0.88299000  0.20297000  0.32282000  1.0 0.0982258527
H  H1778  1  0.88732000  0.12427000  0.29800000  1.0 0.0905139511
H  H1779  1  0.81252000  0.17854000  0.30454000  1.0 0.0905139511
H  H1780  1  0.78422000  0.12089000  0.32554000  1.0 0.0982258527
H  H1781  1  0.89478000  0.11434000  0.33733000  1.0 0.0905139511
H  H1782  1  0.88923000  0.14205000  0.37196000  1.0 0.0982258527
H  H1783  1  0.93180000  0.16030000  0.36038000  1.0 0.0905139511
H  H1784  1  0.77260000  0.05751000  0.31685000  1.0 0.0905139511
H  H1785  1  0.84612000  0.00601000  0.30270000  1.0 0.0905139511
H  H1786  1  0.75561000  0.98784000  0.29551000  1.0 0.0982258527
H  H1787  1  0.75806000  0.93200000  0.32006000  1.0 0.0801729239
H  H1788  1  0.83286000  0.00533000  0.34106000  1.0 0.0801729239
H  H1789  1  0.79345000  0.02357000  0.37161000  1.0 0.0905139511
H  H1790  1  0.81405000  0.06683000  0.36157000  1.0 0.0982258527
H  H1791  1  0.71939000  0.23082000  0.50100000  1.0 0.0982258527
H  H1792  1  0.73677000  0.12779000  0.43672000  1.0 0.2617576897
H  H1793  1  0.55415000  0.80693000  0.53668000  1.0 0.2291639824
H  H1794  1  0.52463000  0.78508000  0.47971000  1.0 0.289532886
H  H1795  1  0.67765000  0.69042000  0.51994000  1.0 0.2291639824
H  H1796  1  0.70898000  0.06374000  0.41156000  1.0 0.1307152767
H  H1797  1  0.71588000  0.10981000  0.39991000  1.0 0.1112036729
H  H1798  1  0.71128000  0.18766000  0.46793000  1.0 0.0905139511
H  H1799  1  0.69289000  0.23619000  0.46689000  1.0 0.1307152767
H  H1800  1  0.62381000  0.77001000  0.53104000  1.0 0.0982258527
H  H1801  1  0.58715000  0.84099000  0.50784000  1.0 0.0801729239
H  H1802  1  0.57750000  0.75223000  0.49404000  1.0 0.0801729239
H  H1803  1  0.68630000  0.82555000  0.50994000  1.0 0.1112036729
H  H1804  1  0.68070000  0.75656000  0.53414000  1.0 0.0714405285
H  H1805  1  0.72158000  0.76616000  0.52028000  1.0 0.1307152767
H  H1806  1  0.61400000  0.74800000  0.46900000  1.0 0.0905139511
H  H1807  1  0.57478000  0.20168000  0.04825000  1.0 0.3297348221
H  H1808  1  0.59034000  0.12377000  0.09757000  1.0 0.3126519721
H  H1809  1  0.73543000  0.23537000  0.03815000  1.0 0.3126519721
H  H1810  1  0.55122000  0.05834000  0.08866000  1.0 0.3490727518
H  H1811  1  0.55163000  0.98569000  0.09120000  1.0 0.3409018652
H  H1812  1  0.75286000  0.07463000  0.12535000  1.0 0.1998830532
H  H1813  1  0.56868000  0.91190000  0.09219000  1.0 0.3297348221
H  H1814  1  0.57251000  0.81733000  0.05820000  1.0 0.2091729768
H  H1815  1  0.73533000  0.91646000  0.10921000  1.0 0.2185350708
H  H1816  1  0.56930000  0.82003000  0.04171000  1.0 0.2291639824
H  H1817  1  0.53521000  0.76993000  0.98285000  1.0 0.2185350708
H  H1818  1  0.73398000  0.74157000  0.03476000  1.0 0.2091729768
H  H1819  1  0.53610000  0.83602000  0.94213000  1.0 0.3297348221
H  H1820  1  0.57008000  0.87796000  0.90287000  1.0 0.1998830532
H  H1821  1  0.73793000  0.76635000  0.95680000  1.0 0.1998830532
H  H1822  1  0.55938000  0.90945000  0.90195000  1.0 0.2291639824
H  H1823  1  0.54950000  0.05028000  0.89851000  1.0 0.2185350708
H  H1824  1  0.74180000  0.92916000  0.87455000  1.0 0.3025613501
H  H1825  1  0.54950000  0.08444000  0.90435000  1.0 0.2091729768
H  H1826  1  0.56329000  0.18878000  0.94478000  1.0 0.2185350708
H  H1827  1  0.72463000  0.08470000  0.88729000  1.0 0.2091729768
H  H1828  1  0.56091000  0.19727000  0.96216000  1.0 0.2185350708
H  H1829  1  0.54668000  0.23649000  0.01347000  1.0 0.3297348221
H  H1830  1  0.74650000  0.20459000  0.95421000  1.0 0.3126519721
H  H1831  1  0.65891000  0.21419000  0.05365000  1.0 0.0905139511
H  H1832  1  0.60666000  0.13676000  0.05819000  1.0 0.0905139511
H  H1833  1  0.63664000  0.19511000  0.09028000  1.0 0.0982258527
H  H1834  1  0.67786000  0.13467000  0.10314000  1.0 0.0905139511
H  H1835  1  0.68934000  0.12589000  0.04778000  1.0 0.0905139511
H  H1836  1  0.76050000  0.15931000  0.04776000  1.0 0.0982258527
H  H1837  1  0.73184000  0.17355000  0.02785000  1.0 0.0905139511
H  H1838  1  0.65069000  0.07320000  0.11076000  1.0 0.0982258527
H  H1839  1  0.60936000  0.02689000  0.07656000  1.0 0.0801729239
H  H1840  1  0.60140000  0.01052000  0.12107000  1.0 0.0982258527
H  H1841  1  0.63779000  0.94515000  0.11595000  1.0 0.0801729239
H  H1842  1  0.69095000  0.01583000  0.08030000  1.0 0.0801729239
H  H1843  1  0.75568000  0.02356000  0.09999000  1.0 0.0905139511
H  H1844  1  0.74028000  0.07050000  0.09167000  1.0 0.0982258527
H  H1845  1  0.65671000  0.89248000  0.09974000  1.0 0.0905139511
H  H1846  1  0.60225000  0.89016000  0.06283000  1.0 0.0905139511
H  H1847  1  0.62740000  0.81996000  0.09015000  1.0 0.0982258527
H  H1848  1  0.66599000  0.79197000  0.06057000  1.0 0.0905139511
H  H1849  1  0.68405000  0.90574000  0.05672000  1.0 0.0905139511
H  H1850  1  0.75625000  0.90351000  0.07040000  1.0 0.0982258527
H  H1851  1  0.72988000  0.94399000  0.07993000  1.0 0.0801729239
H  H1852  1  0.63302000  0.77849000  0.03294000  1.0 0.0905139511
H  H1853  1  0.59869000  0.84959000  0.00767000  1.0 0.0982258527
H  H1854  1  0.58247000  0.75772000  0.00613000  1.0 0.0905139511
H  H1855  1  0.61595000  0.75786000  0.97267000  1.0 0.0714405285
H  H1856  1  0.67718000  0.83306000  0.00253000  1.0 0.0801729239
H  H1857  1  0.73911000  0.78917000  0.00679000  1.0 0.0905139511
H  H1858  1  0.72680000  0.81060000  0.02910000  1.0 0.0982258527
H  H1859  1  0.63779000  0.78761000  0.94542000  1.0 0.0905139511
H  H1860  1  0.59400000  0.87017000  0.94144000  1.0 0.0801729239
H  H1861  1  0.61594000  0.80628000  0.91010000  1.0 0.0982258527
H  H1862  1  0.65840000  0.86495000  0.89573000  1.0 0.0905139511
H  H1863  1  0.67318000  0.87402000  0.95105000  1.0 0.0905139511
H  H1864  1  0.74223000  0.84080000  0.95114000  1.0 0.0982258527
H  H1865  1  0.71339000  0.82326000  0.97036000  1.0 0.0905139511
H  H1866  1  0.62802000  0.92521000  0.88815000  1.0 0.0905139511
H  H1867  1  0.59094000  0.97411000  0.92305000  1.0 0.0982258527
H  H1868  1  0.57408000  0.98584000  0.87862000  1.0 0.0982258527
H  H1869  1  0.61379000  0.05171000  0.88056000  1.0 0.0801729239
H  H1870  1  0.66919000  0.98739000  0.91589000  1.0 0.0801729239
H  H1871  1  0.73426000  0.97831000  0.89864000  1.0 0.0905139511
H  H1872  1  0.71926000  0.93131000  0.90667000  1.0 0.0982258527
H  H1873  1  0.63599000  0.10656000  0.89660000  1.0 0.0905139511
H  H1874  1  0.58361000  0.10368000  0.93444000  1.0 0.0905139511
H  H1875  1  0.60246000  0.17778000  0.90840000  1.0 0.0905139511
H  H1876  1  0.64458000  0.20618000  0.93605000  1.0 0.0905139511
H  H1877  1  0.66545000  0.09245000  0.93963000  1.0 0.0905139511
H  H1878  1  0.73671000  0.09882000  0.92550000  1.0 0.0982258527
H  H1879  1  0.71204000  0.05726000  0.91600000  1.0 0.0905139511
H  H1880  1  0.64270000  0.22099000  0.96646000  1.0 0.0905139511
H  H1881  1  0.59023000  0.16617000  0.99285000  1.0 0.0905139511
H  H1882  1  0.60558000  0.25754000  0.99794000  1.0 0.0801729239
H  H1883  1  0.65273000  0.24381000  0.02552000  1.0 0.0801729239
H  H1884  1  0.66813000  0.15156000  0.99429000  1.0 0.0905139511
H  H1885  1  0.74092000  0.16522000  0.98480000  1.0 0.0982258527
H  H1886  1  0.71403000  0.14702000  0.96497000  1.0 0.0982258527
H  H1887  1  0.42786000  0.19504000  0.94858000  1.0 0.3025613501
H  H1888  1  0.41315000  0.16396000  0.88785000  1.0 0.2091729768
H  H1889  1  0.24748000  0.20484000  0.95762000  1.0 0.3409018652
H  H1890  1  0.30034000  0.27678000  0.02758000  1.0 0.1383375667
H  H1891  1  0.43425000  0.08768000  0.90032000  1.0 0.3297348221
H  H1892  1  0.46696000  0.96100000  0.87925000  1.0 0.3409018652
H  H1893  1  0.43993000  0.24144000  0.01532000  1.0 0.2091729768
H  H1894  1  0.43109000  0.25338000  0.97338000  1.0 0.1634170443
H  H1895  1  0.25952000  0.06283000  0.87214000  1.0 0.3126519721
H  H1896  1  0.45351000  0.90529000  0.90213000  1.0 0.3297348221
H  H1897  1  0.44571000  0.81406000  0.94125000  1.0 0.2291639824
H  H1898  1  0.27124000  0.91102000  0.88585000  1.0 0.1179892357
H  H1899  1  0.45099000  0.81460000  0.95708000  1.0 0.2461951135
H  H1900  1  0.45825000  0.80717000  0.02546000  1.0 0.2185350708
H  H1901  1  0.31940000  0.73636000  0.97234000  1.0 0.2461951135
H  H1902  1  0.45720000  0.81449000  0.04356000  1.0 0.2091729768
H  H1903  1  0.44455000  0.89006000  0.08966000  1.0 0.2091729768
H  H1904  1  0.26219000  0.78531000  0.05175000  1.0 0.3025613501
H  H1905  1  0.44713000  0.92331000  0.08910000  1.0 0.2291639824
H  H1906  1  0.45002000  0.06221000  0.09379000  1.0 0.2091729768
H  H1907  1  0.32018000  0.93646000  0.12333000  1.0 0.1897413932
H  H1908  1  0.44602000  0.09887000  0.09541000  1.0 0.2091729768
H  H1909  1  0.43732000  0.19619000  0.05143000  1.0 0.2433895647
H  H1910  1  0.26908000  0.09396000  0.10886000  1.0 0.1897413932
H  H1911  1  0.34915000  0.22517000  0.02843000  1.0 0.0714405285
H  H1912  1  0.33744000  0.19944000  0.94188000  1.0 0.0905139511
H  H1913  1  0.30814000  0.14962000  0.00960000  1.0 0.0714405285
H  H1914  1  0.39963000  0.13040000  0.93810000  1.0 0.0905139511
H  H1915  1  0.28280000  0.20002000  0.03902000  1.0 0.0905139511
H  H1916  1  0.25067000  0.20030000  0.01957000  1.0 0.0714405285
H  H1917  1  0.36321000  0.18605000  0.90658000  1.0 0.0905139511
H  H1918  1  0.33786000  0.23366000  0.96621000  1.0 0.0982258527
H  H1919  1  0.33150000  0.12125000  0.89345000  1.0 0.0905139511
H  H1920  1  0.38000000  0.25909000  0.99431000  1.0 0.0982258527
H  H1921  1  0.32426000  0.10755000  0.94826000  1.0 0.0905139511
H  H1922  1  0.40407000  0.17097000  0.00368000  1.0 0.0801729239
H  H1923  1  0.24808000  0.12306000  0.95109000  1.0 0.1112036729
H  H1924  1  0.27441000  0.14597000  0.96998000  1.0 0.0801729239
H  H1925  1  0.36394000  0.06528000  0.88400000  1.0 0.0982258527
H  H1926  1  0.41268000  0.02043000  0.91634000  1.0 0.0982258527
H  H1927  1  0.41725000  0.00524000  0.87177000  1.0 0.0905139511
H  H1928  1  0.38445000  0.93776000  0.87738000  1.0 0.0801729239
H  H1929  1  0.33046000  0.00324000  0.91404000  1.0 0.0801729239
H  H1930  1  0.26374000  0.00803000  0.89499000  1.0 0.0905139511
H  H1931  1  0.27584000  0.05413000  0.90534000  1.0 0.0982258527
H  H1932  1  0.36605000  0.88526000  0.89476000  1.0 0.0905139511
H  H1933  1  0.42027000  0.88693000  0.93168000  1.0 0.0905139511
H  H1934  1  0.39697000  0.81270000  0.90664000  1.0 0.0982258527
H  H1935  1  0.35594000  0.78827000  0.93616000  1.0 0.0801729239
H  H1936  1  0.33630000  0.90147000  0.93740000  1.0 0.0801729239
H  H1937  1  0.26514000  0.89491000  0.92273000  1.0 0.1112036729
H  H1938  1  0.29024000  0.93658000  0.91382000  1.0 0.1307152767
H  H1939  1  0.38678000  0.77714000  0.96484000  1.0 0.0801729239
H  H1940  1  0.41602000  0.85105000  0.98907000  1.0 0.0982258527
H  H1941  1  0.43537000  0.76000000  0.99450000  1.0 0.1112036729
H  H1942  1  0.39665000  0.76399000  0.02615000  1.0 0.0801729239
H  H1943  1  0.33744000  0.83275000  0.99279000  1.0 0.0801729239
H  H1944  1  0.27634000  0.79620000  0.98628000  1.0 0.1179892357
H  H1945  1  0.29616000  0.80535000  0.96354000  1.0 0.0905139511
H  H1946  1  0.37116000  0.79570000  0.05169000  1.0 0.0982258527
H  H1947  1  0.42074000  0.87491000  0.05308000  1.0 0.0905139511
H  H1948  1  0.39717000  0.81784000  0.08725000  1.0 0.0905139511
H  H1949  1  0.35376000  0.87545000  0.09980000  1.0 0.0905139511
H  H1950  1  0.33872000  0.88304000  0.04525000  1.0 0.0905139511
H  H1951  1  0.26818000  0.85034000  0.04648000  1.0 0.0905139511
H  H1952  1  0.29544000  0.83484000  0.02632000  1.0 0.0982258527
H  H1953  1  0.38103000  0.93544000  0.10738000  1.0 0.0801729239
H  H1954  1  0.41296000  0.99005000  0.07330000  1.0 0.0905139511
H  H1955  1  0.42666000  0.99802000  0.11827000  1.0 0.0982258527
H  H1956  1  0.38509000  0.06299000  0.11610000  1.0 0.0801729239
H  H1957  1  0.33455000  0.99502000  0.08009000  1.0 0.0905139511
H  H1958  1  0.27021000  0.98095000  0.09856000  1.0 0.0982258527
H  H1959  1  0.28729000  0.93659000  0.08813000  1.0 0.0982258527
H  H1960  1  0.36442000  0.11771000  0.10012000  1.0 0.0905139511
H  H1961  1  0.41702000  0.11605000  0.06237000  1.0 0.0801729239
H  H1962  1  0.39712000  0.19010000  0.08805000  1.0 0.0982258527
H  H1963  1  0.35527000  0.21721000  0.05980000  1.0 0.0714405285
H  H1964  1  0.33362000  0.10471000  0.05750000  1.0 0.0905139511
H  H1965  1  0.26266000  0.11113000  0.07246000  1.0 0.0982258527
H  H1966  1  0.28749000  0.06846000  0.08055000  1.0 0.0905139511
H  H1967  1  0.32584000  0.68153000  0.00145000  1.0 0.2617576897
H  H1968  1  0.32066000  0.63776000  0.00636000  1.0 0.2827722535
H  H1969  1  0.19641000  0.11429000  0.79034000  1.0 0.2091729768
H  H1970  1  0.12718000  0.20416000  0.79897000  1.0 0.1897413932
H  H1971  1  0.22459000  0.09918000  0.86521000  1.0 0.3297348221
H  H1972  1  0.08831000  0.21074000  0.79616000  1.0 0.2091729768
H  H1973  1  0.96237000  0.18010000  0.78919000  1.0 0.3216567599
H  H1974  1  0.07333000  0.27002000  0.87615000  1.0 0.1998830532
H  H1975  1  0.90382000  0.19487000  0.79331000  1.0 0.2827722535
H  H1976  1  0.80974000  0.12287000  0.79847000  1.0 0.2185350708
H  H1977  1  0.91643000  0.23128000  0.88080000  1.0 0.3216567599
H  H1978  1  0.83312000  0.09149000  0.79573000  1.0 0.2291639824
H  H1979  1  0.79532000  0.97139000  0.77542000  1.0 0.3297348221
H  H1980  1  0.73107000  0.06452000  0.87318000  1.0 0.2091729768
H  H1981  1  0.80432000  0.90849000  0.79074000  1.0 0.3126519721
H  H1982  1  0.88118000  0.81239000  0.79186000  1.0 0.2291639824
H  H1983  1  0.79192000  0.88267000  0.88400000  1.0 0.3297348221
H  H1984  1  0.91577000  0.80792000  0.78940000  1.0 0.2291639824
H  H1985  1  0.03047000  0.76423000  0.77397000  1.0 0.2291639824
H  H1986  1  0.92980000  0.75494000  0.87411000  1.0 0.2291639824
H  H1987  1  0.09095000  0.81268000  0.78223000  1.0 0.3297348221
H  H1988  1  0.18745000  0.89824000  0.78485000  1.0 0.2091729768
H  H1989  1  0.09803000  0.78431000  0.87361000  1.0 0.1897413932
H  H1990  1  0.19010000  0.93308000  0.78370000  1.0 0.2291639824
H  H1991  1  0.19524000  0.07744000  0.78990000  1.0 0.2185350708
H  H1992  1  0.25628000  0.92664000  0.86943000  1.0 0.2091729768
H  H1993  1  0.21209000  0.11718000  0.83640000  1.0 0.0801729239
H  H1994  1  0.13988000  0.13025000  0.80798000  1.0 0.0905139511
H  H1995  1  0.19389000  0.19761000  0.82590000  1.0 0.0905139511
H  H1996  1  0.13035000  0.21944000  0.84454000  1.0 0.0905139511
H  H1997  1  0.12118000  0.10634000  0.84633000  1.0 0.0905139511
H  H1998  1  0.14515000  0.10029000  0.88176000  1.0 0.1112036729
H  H1999  1  0.16140000  0.06059000  0.86743000  1.0 0.0982258527
H  H2000  1  0.07105000  0.23413000  0.82833000  1.0 0.0905139511
H  H2001  1  0.02765000  0.16023000  0.80938000  1.0 0.0905139511
H  H2002  1  0.00512000  0.24903000  0.80323000  1.0 0.0905139511
H  H2003  1  0.94243000  0.24178000  0.82242000  1.0 0.0801729239
H  H2004  1  0.01475000  0.17222000  0.84953000  1.0 0.0801729239
H  H2005  1  0.02248000  0.21766000  0.87939000  1.0 0.0905139511
H  H2006  1  0.06952000  0.20023000  0.87230000  1.0 0.0905139511
H  H2007  1  0.89207000  0.21195000  0.83620000  1.0 0.0905139511
H  H2008  1  0.88377000  0.13584000  0.80975000  1.0 0.0801729239
H  H2009  1  0.81474000  0.19087000  0.82472000  1.0 0.0982258527
H  H2010  1  0.79065000  0.12835000  0.84390000  1.0 0.0905139511
H  H2011  1  0.90511000  0.12390000  0.84998000  1.0 0.0905139511
H  H2012  1  0.90468000  0.15445000  0.88434000  1.0 0.0982258527
H  H2013  1  0.94386000  0.17384000  0.87057000  1.0 0.0905139511
H  H2014  1  0.77846000  0.07087000  0.82496000  1.0 0.0905139511
H  H2015  1  0.85676000  0.02568000  0.81097000  1.0 0.0905139511
H  H2016  1  0.76737000  0.00942000  0.79808000  1.0 0.0801729239
H  H2017  1  0.76729000  0.94397000  0.81644000  1.0 0.0714405285
H  H2018  1  0.83356000  0.01040000  0.84835000  1.0 0.0801729239
H  H2019  1  0.78399000  0.01681000  0.87651000  1.0 0.0801729239
H  H2020  1  0.80365000  0.06402000  0.87127000  1.0 0.0982258527
H  H2021  1  0.79402000  0.89175000  0.83192000  1.0 0.0905139511
H  H2022  1  0.86817000  0.88525000  0.80408000  1.0 0.0905139511
H  H2023  1  0.81221000  0.81473000  0.81752000  1.0 0.0905139511
H  H2024  1  0.87525000  0.78731000  0.83508000  1.0 0.0905139511
H  H2025  1  0.88379000  0.90078000  0.84441000  1.0 0.0905139511
H  H2026  1  0.85672000  0.89864000  0.87943000  1.0 0.0905139511
H  H2027  1  0.83760000  0.93973000  0.86685000  1.0 0.0982258527
H  H2028  1  0.93609000  0.77403000  0.82398000  1.0 0.0905139511
H  H2029  1  0.98156000  0.84250000  0.80163000  1.0 0.0905139511
H  H2030  1  0.99675000  0.75032000  0.80066000  1.0 0.0801729239
H  H2031  1  0.06221000  0.76214000  0.81811000  1.0 0.0801729239
H  H2032  1  0.99221000  0.84081000  0.84103000  1.0 0.0905139511
H  H2033  1  0.98493000  0.80383000  0.87364000  1.0 0.0905139511
H  H2034  1  0.93892000  0.82281000  0.86590000  1.0 0.0982258527
H  H2035  1  0.11701000  0.79703000  0.82282000  1.0 0.0982258527
H  H2036  1  0.11268000  0.87573000  0.79800000  1.0 0.0905139511
H  H2037  1  0.18748000  0.82146000  0.80454000  1.0 0.0905139511
H  H2038  1  0.21578000  0.87911000  0.82554000  1.0 0.0982258527
H  H2039  1  0.10522000  0.88566000  0.83733000  1.0 0.0905139511
H  H2040  1  0.11077000  0.85795000  0.87196000  1.0 0.0982258527
H  H2041  1  0.06820000  0.83970000  0.86038000  1.0 0.0905139511
H  H2042  1  0.22740000  0.94249000  0.81685000  1.0 0.0905139511
H  H2043  1  0.15388000  0.99399000  0.80270000  1.0 0.0905139511
H  H2044  1  0.24439000  0.01216000  0.79551000  1.0 0.0982258527
H  H2045  1  0.24194000  0.06800000  0.82006000  1.0 0.0801729239
H  H2046  1  0.16714000  0.99467000  0.84106000  1.0 0.0801729239
H  H2047  1  0.20655000  0.97643000  0.87161000  1.0 0.0905139511
H  H2048  1  0.18595000  0.93317000  0.86157000  1.0 0.0982258527
H  H2049  1  0.28061000  0.76918000  0.00100000  1.0 0.0982258527
H  H2050  1  0.26323000  0.87221000  0.93672000  1.0 0.2617576897
H  H2051  1  0.44585000  0.19307000  0.03668000  1.0 0.2291639824
H  H2052  1  0.47537000  0.21492000  0.97971000  1.0 0.289532886
H  H2053  1  0.32235000  0.30958000  0.01994000  1.0 0.2291639824
H  H2054  1  0.29102000  0.93626000  0.91156000  1.0 0.1307152767
H  H2055  1  0.28412000  0.89019000  0.89991000  1.0 0.1112036729
H  H2056  1  0.28872000  0.81234000  0.96793000  1.0 0.0905139511
H  H2057  1  0.30711000  0.76381000  0.96689000  1.0 0.1307152767
H  H2058  1  0.37619000  0.22999000  0.03104000  1.0 0.0982258527
H  H2059  1  0.41285000  0.15901000  0.00784000  1.0 0.0801729239
H  H2060  1  0.42250000  0.24777000  0.99404000  1.0 0.0801729239
H  H2061  1  0.31370000  0.17445000  0.00994000  1.0 0.1112036729
H  H2062  1  0.31930000  0.24344000  0.03414000  1.0 0.0714405285
H  H2063  1  0.27842000  0.23384000  0.02028000  1.0 0.1307152767
H  H2064  1  0.38600000  0.25200000  0.96900000  1.0 0.0905139511
C  C1  1  0.81685000  0.34721000  0.45010000  1.0 0.0296525533
C  C2  1  0.83323000  0.38544000  0.43702000  1.0 0.0801729239
C  C3  1  0.83504000  0.37167000  0.41413000  1.0 0.0296525533
C  C4  1  0.86406000  0.33119000  0.41199000  1.0 0.2185350708
C  C5  1  0.84422000  0.30605000  0.44637000  1.0 0.0714405285
C  C6  1  0.82401000  0.26556000  0.45664000  1.0 -0.0503993669
C  C7  1  0.94000000  0.34819000  0.40365000  1.0 0.0296525533
C  C8  1  0.96252000  0.39090000  0.40853000  1.0 0.0801729239
C  C9  1  0.00091000  0.39697000  0.39368000  1.0 -0.0019394209
C  C10  1  0.03184000  0.35866000  0.39508000  1.0 0.1897413932
C  C11  1  0.97287000  0.31094000  0.40494000  1.0 0.0801729239
C  C12  1  0.95392000  0.26727000  0.39881000  1.0 -0.0612299678
C  C13  1  0.09767000  0.34982000  0.41495000  1.0 0.0296525533
C  C14  1  0.12113000  0.38993000  0.42287000  1.0 0.0714405285
C  C15  1  0.16966000  0.38064000  0.42428000  1.0 0.0296525533
C  C16  1  0.17626000  0.34100000  0.43862000  1.0 0.2091729768
C  C17  1  0.10696000  0.31052000  0.42900000  1.0 0.0714405285
C  C18  1  0.08820000  0.26821000  0.42025000  1.0 -0.0503993669
C  C19  1  0.19274000  0.36293000  0.47419000  1.0 0.009971672
C  C20  1  0.17917000  0.40540000  0.48521000  1.0 0.0982258527
C  C21  1  0.21385000  0.41502000  0.50146000  1.0 0.0296525533
C  C22  1  0.21795000  0.37751000  0.51726000  1.0 0.1897413932
C  C23  1  0.19607000  0.32649000  0.49065000  1.0 0.0801729239
C  C24  1  0.21023000  0.28298000  0.48184000  1.0 -0.0694959392
C  C25  1  0.18118000  0.36590000  0.55043000  1.0 0.039548973
C  C26  1  0.16109000  0.40325000  0.56280000  1.0 0.0714405285
C  C27  1  0.16286000  0.39111000  0.58619000  1.0 0.0208100378
C  C28  1  0.13550000  0.35000000  0.58903000  1.0 0.2091729768
C  C29  1  0.15605000  0.32371000  0.55482000  1.0 0.0714405285
C  C30  1  0.17685000  0.28367000  0.54518000  1.0 -0.0503993669
C  C31  1  0.06058000  0.36892000  0.59774000  1.0 0.009971672
C  C32  1  0.03813000  0.41178000  0.59150000  1.0 0.0905139511
C  C33  1  0.00123000  0.42066000  0.60713000  1.0 0.039548973
C  C34  1  0.97096000  0.38084000  0.60842000  1.0 0.179061708
C  C35  1  0.02699000  0.33231000  0.59824000  1.0 0.0801729239
C  C36  1  0.04504000  0.28757000  0.60342000  1.0 -0.0612299678
C  C37  1  0.90409000  0.36933000  0.58872000  1.0 0.0208100378
C  C38  1  0.88320000  0.40981000  0.57964000  1.0 0.0801729239
C  C39  1  0.83457000  0.40261000  0.57722000  1.0 0.0208100378
C  C40  1  0.82582000  0.36153000  0.56400000  1.0 0.2091729768
C  C41  1  0.89427000  0.32990000  0.57460000  1.0 0.0714405285
C  C42  1  0.91049000  0.28764000  0.58369000  1.0 -0.0503993669
C  C43  1  0.80794000  0.36327000  0.52689000  1.0 0.0296525533
C  C44  1  0.80462000  0.40363000  0.51347000  1.0 0.0801729239
C  C45  1  0.77235000  0.39597000  0.49584000  1.0 0.0296525533
C  C46  1  0.78130000  0.35345000  0.48407000  1.0 0.1897413932
C  C47  1  0.82112000  0.32445000  0.51351000  1.0 0.0801729239
C  C48  1  0.82806000  0.28285000  0.52523000  1.0 -0.0503993669
C  C49  1  0.80440000  0.64470000  0.47749000  1.0 0.009971672
C  C50  1  0.82963000  0.65120000  0.55358000  1.0 -0.1015636367
C  C51  1  0.81840000  0.68610000  0.48904000  1.0 0.039548973
C  C52  1  0.84037000  0.61140000  0.56635000  1.0 0.0801729239
C  C53  1  0.78970000  0.72030000  0.47570000  1.0 -0.2200927621
C  C54  1  0.84274000  0.62471000  0.58893000  1.0 0.039548973
C  C55  1  0.78760000  0.65400000  0.52251000  1.0 0.1998830532
C  C56  1  0.87738000  0.65923000  0.59145000  1.0 0.2185350708
C  C57  1  0.77150000  0.61460000  0.51040000  1.0 -0.0086226624
C  C58  1  0.86377000  0.68700000  0.55687000  1.0 0.0905139511
C  C59  1  0.79940000  0.60440000  0.49119000  1.0 -0.0319076228
C  C60  1  0.85430000  0.73010000  0.54548000  1.0 -0.0787937116
C  C61  1  0.94941000  0.63468000  0.60194000  1.0 0.009971672
C  C62  1  0.96858000  0.58938000  0.59847000  1.0 0.0905139511
C  C63  1  0.00653000  0.58286000  0.61353000  1.0 0.0208100378
C  C64  1  0.03899000  0.61978000  0.61177000  1.0 0.1700464461
C  C65  1  0.98418000  0.66971000  0.60050000  1.0 0.0714405285
C  C66  1  0.96749000  0.71529000  0.60541000  1.0 -0.0694959392
C  C67  1  0.10389000  0.62795000  0.59066000  1.0 0.0208100378
C  C68  1  0.12624000  0.58768000  0.58222000  1.0 0.0714405285
C  C69  1  0.17435000  0.59658000  0.57923000  1.0 0.009971672
C  C70  1  0.17997000  0.63736000  0.56518000  1.0 0.179061708
C  C71  1  0.11232000  0.66816000  0.57673000  1.0 0.0296525533
C  C72  1  0.09566000  0.71034000  0.58632000  1.0 -0.0319076228
C  C73  1  0.19365000  0.61883000  0.52873000  1.0 -0.0166760739
C  C74  1  0.17852000  0.57859000  0.51700000  1.0 0.0905139511
C  C75  1  0.21060000  0.57013000  0.49926000  1.0 0.039548973
C  C76  1  0.21347000  0.60917000  0.48488000  1.0 0.1700464461
C  C77  1  0.19680000  0.65753000  0.51337000  1.0 -0.0694959392
C  C78  1  0.21190000  0.69971000  0.52341000  1.0 0.0296525533
C  C79  1  0.17358000  0.62401000  0.45299000  1.0 0.0296525533
C  C80  1  0.15492000  0.58567000  0.44139000  1.0 0.0714405285
C  C81  1  0.15200000  0.59678000  0.41794000  1.0 0.0208100378
C  C82  1  0.12542000  0.63831000  0.41549000  1.0 0.1998830532
C  C83  1  0.14683000  0.66528000  0.44875000  1.0 0.0801729239
C  C84  1  0.16679000  0.70619000  0.45811000  1.0 -0.040805949
C  C85  1  0.05019000  0.62326000  0.40662000  1.0 0.009971672
C  C86  1  0.02346000  0.58301000  0.41248000  1.0 0.0982258527
C  C87  1  0.98798000  0.57751000  0.39582000  1.0 0.039548973
C  C88  1  0.95953000  0.61846000  0.39517000  1.0 0.1700464461
C  C89  1  0.01956000  0.66290000  0.40586000  1.0 0.0605852707
C  C90  1  0.04116000  0.70634000  0.40099000  1.0 -0.0694959392
C  C91  1  0.89262000  0.63056000  0.41464000  1.0 0.0296525533
C  C92  1  0.87081000  0.58999000  0.42360000  1.0 0.0801729239
C  C93  1  0.82262000  0.59780000  0.42626000  1.0 0.009971672
C  C94  1  0.81479000  0.63886000  0.43947000  1.0 0.0605852707
C  C95  1  0.88234000  0.67053000  0.42817000  1.0 0.0714405285
C  C96  1  0.89931000  0.71263000  0.41888000  1.0 -0.0503993669
C  C97  1  0.88932000  0.81848000  0.66804000  1.0 0.0208100378
C  C98  1  0.85997000  0.83129000  0.68641000  1.0 0.0801729239
C  C99  1  0.81277000  0.83532000  0.67894000  1.0 0.0296525533
C  C100  1  0.81129000  0.86679000  0.66050000  1.0 0.2185350708
C  C101  1  0.88347000  0.84912000  0.64947000  1.0 0.0605852707
C  C102  1  0.90775000  0.83532000  0.63004000  1.0 -0.0503993669
C  C103  1  0.79572000  0.94175000  0.67047000  1.0 0.0208100378
C  C104  1  0.80816000  0.96454000  0.69096000  1.0 0.0801729239
C  C105  1  0.78162000  0.00466000  0.69431000  1.0 0.009971672
C  C106  1  0.78070000  0.03454000  0.67516000  1.0 0.179061708
C  C107  1  0.79729000  0.97445000  0.65234000  1.0 0.0801729239
C  C108  1  0.78104000  0.95527000  0.63189000  1.0 -0.0694959392
C  C109  1  0.81897000  0.10011000  0.66701000  1.0 0.0296525533
C  C110  1  0.83487000  0.12710000  0.68578000  1.0 0.0714405285
C  C111  1  0.83864000  0.17459000  0.67950000  1.0 -0.0019394209
C  C112  1  0.86894000  0.17813000  0.66040000  1.0 0.2291639824
C  C113  1  0.84669000  0.10803000  0.64767000  1.0 0.0801729239
C  C114  1  0.82692000  0.08823000  0.62794000  1.0 -0.0503993669
C  C115  1  0.94269000  0.19257000  0.67204000  1.0 0.009971672
C  C116  1  0.96409000  0.17370000  0.69164000  1.0 0.0905139511
C  C117  1  0.00249000  0.20359000  0.69770000  1.0 0.0296525533
C  C118  1  0.03409000  0.21019000  0.67945000  1.0 0.1998830532
C  C119  1  0.97727000  0.19601000  0.65450000  1.0 0.0801729239
C  C120  1  0.95978000  0.21493000  0.63421000  1.0 -0.0694959392
C  C121  1  0.10104000  0.17503000  0.67155000  1.0 0.0296525533
C  C122  1  0.12553000  0.16101000  0.69126000  1.0 0.0801729239
C  C123  1  0.17428000  0.15826000  0.68647000  1.0 0.0208100378
C  C124  1  0.18089000  0.12719000  0.66814000  1.0 0.2091729768
C  C125  1  0.11143000  0.14585000  0.65278000  1.0 0.0801729239
C  C126  1  0.09250000  0.16260000  0.63232000  1.0 -0.0503993669
C  C127  1  0.19585000  0.05154000  0.67651000  1.0 0.009971672
C  C128  1  0.18813000  0.02942000  0.69771000  1.0 0.0905139511
C  C129  1  0.21931000  0.99149000  0.69942000  1.0 0.0296525533
C  C130  1  0.21456000  0.96048000  0.68093000  1.0 0.179061708
C  C131  1  0.18978000  0.01896000  0.65864000  1.0 0.0801729239
C  C132  1  0.19875000  0.03800000  0.63727000  1.0 -0.0694959392
C  C133  1  0.17272000  0.89414000  0.67943000  1.0 0.0296525533
C  C134  1  0.15364000  0.87431000  0.69940000  1.0 0.0714405285
C  C135  1  0.14887000  0.82551000  0.69713000  1.0 0.0208100378
C  C136  1  0.12248000  0.81639000  0.67682000  1.0 0.2091729768
C  C137  1  0.14421000  0.88273000  0.66032000  1.0 0.0714405285
C  C138  1  0.16123000  0.89957000  0.63955000  1.0 -0.0503993669
C  C139  1  0.04549000  0.80248000  0.68080000  1.0 0.009971672
C  C140  1  0.01639000  0.81556000  0.69943000  1.0 0.0905139511
C  C141  1  0.97716000  0.78527000  0.70053000  1.0 0.0296525533
C  C142  1  0.95433000  0.78172000  0.67920000  1.0 0.1700464461
C  C143  1  0.01853000  0.80327000  0.66057000  1.0 0.0714405285
C  C144  1  0.04349000  0.79228000  0.64065000  1.0 -0.0694959392
C  C145  1  0.79910000  0.62750000  0.47580000  1.0 0.001098797
C  C146  1  0.80920000  0.58710000  0.48870000  1.0 0.0714405285
C  C147  1  0.78370000  0.58270000  0.50927000  1.0 0.0801729239
C  C148  1  0.78810000  0.62500000  0.52170000  1.0 0.0982258527
C  C149  1  0.79840000  0.66840000  0.48940000  1.0 0.0714405285
C  C150  1  0.75540000  0.69120000  0.48060000  1.0 -0.0694959392
C  C151  1  0.18315000  0.65279000  0.95010000  1.0 0.0296525533
C  C152  1  0.16677000  0.61456000  0.93702000  1.0 0.0801729239
C  C153  1  0.16496000  0.62833000  0.91413000  1.0 0.0296525533
C  C154  1  0.13594000  0.66881000  0.91199000  1.0 0.2185350708
C  C155  1  0.15578000  0.69395000  0.94637000  1.0 0.0714405285
C  C156  1  0.17599000  0.73444000  0.95664000  1.0 -0.0503993669
C  C157  1  0.06000000  0.65181000  0.90365000  1.0 0.0296525533
C  C158  1  0.03748000  0.60910000  0.90853000  1.0 0.0714405285
C  C159  1  0.99909000  0.60303000  0.89368000  1.0 -0.0019394209
C  C160  1  0.96816000  0.64134000  0.89508000  1.0 0.1897413932
C  C161  1  0.02713000  0.68906000  0.90494000  1.0 0.0801729239
C  C162  1  0.04608000  0.73273000  0.89881000  1.0 -0.0612299678
C  C163  1  0.90233000  0.65018000  0.91495000  1.0 0.0296525533
C  C164  1  0.87887000  0.61007000  0.92287000  1.0 0.0714405285
C  C165  1  0.83034000  0.61936000  0.92428000  1.0 0.0296525533
C  C166  1  0.82374000  0.65900000  0.93862000  1.0 0.2091729768
C  C167  1  0.89304000  0.68948000  0.92900000  1.0 0.0714405285
C  C168  1  0.91180000  0.73179000  0.92025000  1.0 -0.0503993669
C  C169  1  0.80726000  0.63707000  0.97419000  1.0 0.009971672
C  C170  1  0.82083000  0.59460000  0.98521000  1.0 0.0982258527
C  C171  1  0.78615000  0.58498000  0.00146000  1.0 0.0296525533
C  C172  1  0.78205000  0.62249000  0.01726000  1.0 0.1897413932
C  C173  1  0.80393000  0.67351000  0.99065000  1.0 0.0801729239
C  C174  1  0.78977000  0.71702000  0.98184000  1.0 -0.0694959392
C  C175  1  0.81882000  0.63410000  0.05043000  1.0 0.039548973
C  C176  1  0.83891000  0.59675000  0.06280000  1.0 0.0714405285
C  C177  1  0.83714000  0.60889000  0.08619000  1.0 0.0208100378
C  C178  1  0.86450000  0.65000000  0.08903000  1.0 0.2091729768
C  C179  1  0.84395000  0.67629000  0.05482000  1.0 0.0714405285
C  C180  1  0.82315000  0.71633000  0.04518000  1.0 -0.0503993669
C  C181  1  0.93942000  0.63108000  0.09774000  1.0 0.009971672
C  C182  1  0.96187000  0.58822000  0.09150000  1.0 0.0905139511
C  C183  1  0.99877000  0.57934000  0.10713000  1.0 0.039548973
C  C184  1  0.02904000  0.61916000  0.10842000  1.0 0.179061708
C  C185  1  0.97301000  0.66769000  0.09824000  1.0 0.0801729239
C  C186  1  0.95496000  0.71243000  0.10342000  1.0 -0.0612299678
C  C187  1  0.09591000  0.63067000  0.08872000  1.0 0.0208100378
C  C188  1  0.11680000  0.59019000  0.07964000  1.0 0.0801729239
C  C189  1  0.16543000  0.59739000  0.07722000  1.0 0.0208100378
C  C190  1  0.17418000  0.63847000  0.06400000  1.0 0.2091729768
C  C191  1  0.10573000  0.67010000  0.07460000  1.0 0.0714405285
C  C192  1  0.08951000  0.71236000  0.08369000  1.0 -0.0503993669
C  C193  1  0.19206000  0.63673000  0.02689000  1.0 0.0296525533
C  C194  1  0.19538000  0.59637000  0.01347000  1.0 0.0801729239
C  C195  1  0.22765000  0.60403000  0.99584000  1.0 0.0296525533
C  C196  1  0.21870000  0.64655000  0.98407000  1.0 0.1897413932
C  C197  1  0.17888000  0.67555000  0.01351000  1.0 0.0801729239
C  C198  1  0.17194000  0.71715000  0.02523000  1.0 -0.0503993669
C  C199  1  0.19560000  0.35530000  0.97749000  1.0 0.009971672
C  C200  1  0.17037000  0.34880000  0.05358000  1.0 -0.1015636367
C  C201  1  0.18160000  0.31390000  0.98904000  1.0 0.039548973
C  C202  1  0.15963000  0.38860000  0.06635000  1.0 0.0801729239
C  C203  1  0.21030000  0.27970000  0.97570000  1.0 -0.2200927621
C  C204  1  0.15726000  0.37529000  0.08893000  1.0 0.039548973
C  C205  1  0.21240000  0.34600000  0.02251000  1.0 0.1998830532
C  C206  1  0.12262000  0.34077000  0.09145000  1.0 0.2185350708
C  C207  1  0.22850000  0.38540000  0.01040000  1.0 -0.0086226624
C  C208  1  0.13623000  0.31300000  0.05687000  1.0 0.0905139511
C  C209  1  0.20060000  0.39560000  0.99119000  1.0 -0.0319076228
C  C210  1  0.14570000  0.26990000  0.04548000  1.0 -0.0787937116
C  C211  1  0.05059000  0.36532000  0.10194000  1.0 0.009971672
C  C212  1  0.03142000  0.41062000  0.09847000  1.0 0.0905139511
C  C213  1  0.99347000  0.41714000  0.11353000  1.0 0.0208100378
C  C214  1  0.96101000  0.38022000  0.11177000  1.0 0.1700464461
C  C215  1  0.01582000  0.33029000  0.10050000  1.0 0.0714405285
C  C216  1  0.03251000  0.28471000  0.10541000  1.0 -0.0694959392
C  C217  1  0.89611000  0.37205000  0.09066000  1.0 0.0208100378
C  C218  1  0.87376000  0.41232000  0.08222000  1.0 0.0714405285
C  C219  1  0.82565000  0.40342000  0.07923000  1.0 0.009971672
C  C220  1  0.82003000  0.36264000  0.06518000  1.0 0.179061708
C  C221  1  0.88768000  0.33184000  0.07673000  1.0 0.0296525533
C  C222  1  0.90434000  0.28966000  0.08632000  1.0 -0.0319076228
C  C223  1  0.80635000  0.38117000  0.02873000  1.0 -0.0166760739
C  C224  1  0.82148000  0.42141000  0.01700000  1.0 0.0905139511
C  C225  1  0.78940000  0.42987000  0.99926000  1.0 0.039548973
C  C226  1  0.78653000  0.39083000  0.98488000  1.0 0.1700464461
C  C227  1  0.80320000  0.34247000  0.01337000  1.0 -0.0694959392
C  C228  1  0.78810000  0.30029000  0.02341000  1.0 0.0296525533
C  C229  1  0.82642000  0.37599000  0.95299000  1.0 0.0296525533
C  C230  1  0.84508000  0.41433000  0.94139000  1.0 0.0714405285
C  C231  1  0.84800000  0.40322000  0.91794000  1.0 0.0208100378
C  C232  1  0.87458000  0.36169000  0.91549000  1.0 0.1998830532
C  C233  1  0.85317000  0.33472000  0.94875000  1.0 0.0801729239
C  C234  1  0.83321000  0.29381000  0.95811000  1.0 -0.040805949
C  C235  1  0.94981000  0.37674000  0.90662000  1.0 0.009971672
C  C236  1  0.97654000  0.41699000  0.91248000  1.0 0.0982258527
C  C237  1  0.01202000  0.42249000  0.89582000  1.0 0.039548973
C  C238  1  0.04047000  0.38154000  0.89517000  1.0 0.1700464461
C  C239  1  0.98044000  0.33710000  0.90586000  1.0 0.0605852707
C  C240  1  0.95884000  0.29366000  0.90099000  1.0 -0.0694959392
C  C241  1  0.10738000  0.36944000  0.91464000  1.0 0.0296525533
C  C242  1  0.12919000  0.41001000  0.92360000  1.0 0.0801729239
C  C243  1  0.17738000  0.40220000  0.92626000  1.0 0.009971672
C  C244  1  0.18521000  0.36114000  0.93947000  1.0 0.0605852707
C  C245  1  0.11766000  0.32947000  0.92817000  1.0 0.0714405285
C  C246  1  0.10069000  0.28737000  0.91888000  1.0 -0.0503993669
C  C247  1  0.11068000  0.18152000  0.16804000  1.0 0.0208100378
C  C248  1  0.14003000  0.16871000  0.18641000  1.0 0.0801729239
C  C249  1  0.18723000  0.16468000  0.17894000  1.0 0.0296525533
C  C250  1  0.18871000  0.13321000  0.16050000  1.0 0.2185350708
C  C251  1  0.11653000  0.15088000  0.14947000  1.0 0.0605852707
C  C252  1  0.09225000  0.16468000  0.13004000  1.0 -0.0503993669
C  C253  1  0.20428000  0.05825000  0.17047000  1.0 0.0208100378
C  C254  1  0.19184000  0.03546000  0.19096000  1.0 0.0801729239
C  C255  1  0.21838000  0.99534000  0.19431000  1.0 0.009971672
C  C256  1  0.21930000  0.96546000  0.17516000  1.0 0.179061708
C  C257  1  0.20271000  0.02555000  0.15234000  1.0 0.0801729239
C  C258  1  0.21896000  0.04473000  0.13189000  1.0 -0.0694959392
C  C259  1  0.18103000  0.89989000  0.16701000  1.0 0.0296525533
C  C260  1  0.16513000  0.87290000  0.18578000  1.0 0.0714405285
C  C261  1  0.16136000  0.82541000  0.17950000  1.0 -0.0019394209
C  C262  1  0.13106000  0.82187000  0.16040000  1.0 0.2291639824
C  C263  1  0.15331000  0.89197000  0.14767000  1.0 0.0801729239
C  C264  1  0.17308000  0.91177000  0.12794000  1.0 -0.0503993669
C  C265  1  0.05731000  0.80743000  0.17204000  1.0 0.009971672
C  C266  1  0.03591000  0.82630000  0.19164000  1.0 0.0905139511
C  C267  1  0.99751000  0.79641000  0.19770000  1.0 0.0296525533
C  C268  1  0.96591000  0.78981000  0.17945000  1.0 0.1998830532
C  C269  1  0.02273000  0.80399000  0.15450000  1.0 0.0801729239
C  C270  1  0.04022000  0.78507000  0.13421000  1.0 -0.0694959392
C  C271  1  0.89896000  0.82497000  0.17155000  1.0 0.0296525533
C  C272  1  0.87447000  0.83899000  0.19126000  1.0 0.0801729239
C  C273  1  0.82572000  0.84174000  0.18647000  1.0 0.0208100378
C  C274  1  0.81911000  0.87281000  0.16814000  1.0 0.2091729768
C  C275  1  0.88857000  0.85415000  0.15278000  1.0 0.0801729239
C  C276  1  0.90750000  0.83740000  0.13232000  1.0 -0.0503993669
C  C277  1  0.80415000  0.94846000  0.17651000  1.0 0.009971672
C  C278  1  0.81187000  0.97058000  0.19771000  1.0 0.0905139511
C  C279  1  0.78069000  0.00851000  0.19942000  1.0 0.0296525533
C  C280  1  0.78544000  0.03952000  0.18093000  1.0 0.179061708
C  C281  1  0.81022000  0.98104000  0.15864000  1.0 0.0801729239
C  C282  1  0.80125000  0.96200000  0.13727000  1.0 -0.0694959392
C  C283  1  0.82728000  0.10586000  0.17943000  1.0 0.0296525533
C  C284  1  0.84636000  0.12569000  0.19940000  1.0 0.0714405285
C  C285  1  0.85113000  0.17449000  0.19713000  1.0 0.0208100378
C  C286  1  0.87752000  0.18361000  0.17682000  1.0 0.2091729768
C  C287  1  0.85579000  0.11727000  0.16032000  1.0 0.0714405285
C  C288  1  0.83877000  0.10043000  0.13955000  1.0 -0.0503993669
C  C289  1  0.95451000  0.19752000  0.18080000  1.0 0.0208100378
C  C290  1  0.98361000  0.18444000  0.19943000  1.0 0.0905139511
C  C291  1  0.02284000  0.21473000  0.20053000  1.0 0.0296525533
C  C292  1  0.04567000  0.21828000  0.17920000  1.0 0.1700464461
C  C293  1  0.98147000  0.19673000  0.16057000  1.0 0.0801729239
C  C294  1  0.95651000  0.20772000  0.14065000  1.0 -0.0694959392
C  C295  1  0.20090000  0.37250000  0.97580000  1.0 0.001098797
C  C296  1  0.19080000  0.41290000  0.98870000  1.0 0.0714405285
C  C297  1  0.21630000  0.41730000  0.00927000  1.0 0.0801729239
C  C298  1  0.21190000  0.37500000  0.02170000  1.0 0.0982258527
C  C299  1  0.20160000  0.33160000  0.98940000  1.0 0.0714405285
C  C300  1  0.24460000  0.30880000  0.98060000  1.0 -0.0612299678
C  C301  1  0.15279000  0.31685000  0.70010000  1.0 0.0296525533
C  C302  1  0.11456000  0.33323000  0.68702000  1.0 0.0801729239
C  C303  1  0.12833000  0.33504000  0.66413000  1.0 0.0296525533
C  C304  1  0.16881000  0.36406000  0.66199000  1.0 0.2185350708
C  C305  1  0.19395000  0.34422000  0.69637000  1.0 0.0714405285
C  C306  1  0.23444000  0.32401000  0.70664000  1.0 -0.0503993669
C  C307  1  0.15181000  0.44000000  0.65365000  1.0 0.0296525533
C  C308  1  0.10910000  0.46252000  0.65853000  1.0 0.0714405285
C  C309  1  0.10303000  0.50091000  0.64368000  1.0 -0.0019394209
C  C310  1  0.14134000  0.53184000  0.64508000  1.0 0.1897413932
C  C311  1  0.18906000  0.47287000  0.65494000  1.0 0.0801729239
C  C312  1  0.23273000  0.45392000  0.64881000  1.0 -0.0612299678
C  C313  1  0.15018000  0.59767000  0.66495000  1.0 0.0296525533
C  C314  1  0.11007000  0.62113000  0.67287000  1.0 0.0714405285
C  C315  1  0.11936000  0.66966000  0.67428000  1.0 0.0296525533
C  C316  1  0.15900000  0.67626000  0.68862000  1.0 0.2091729768
C  C317  1  0.18948000  0.60696000  0.67900000  1.0 0.0714405285
C  C318  1  0.23179000  0.58820000  0.67025000  1.0 -0.0503993669
C  C319  1  0.13707000  0.69274000  0.72419000  1.0 0.009971672
C  C320  1  0.09460000  0.67917000  0.73521000  1.0 0.0982258527
C  C321  1  0.08498000  0.71385000  0.75146000  1.0 0.0296525533
C  C322  1  0.12249000  0.71795000  0.76726000  1.0 0.1897413932
C  C323  1  0.17351000  0.69607000  0.74065000  1.0 0.0801729239
C  C324  1  0.21702000  0.71023000  0.73184000  1.0 -0.0694959392
C  C325  1  0.13410000  0.68118000  0.80043000  1.0 0.039548973
C  C326  1  0.09675000  0.66109000  0.81280000  1.0 0.0714405285
C  C327  1  0.10889000  0.66286000  0.83619000  1.0 0.0208100378
C  C328  1  0.15000000  0.63550000  0.83903000  1.0 0.2091729768
C  C329  1  0.17629000  0.65605000  0.80482000  1.0 0.0714405285
C  C330  1  0.21633000  0.67685000  0.79518000  1.0 -0.0503993669
C  C331  1  0.13108000  0.56058000  0.84774000  1.0 0.009971672
C  C332  1  0.08822000  0.53813000  0.84150000  1.0 0.0905139511
C  C333  1  0.07934000  0.50123000  0.85713000  1.0 0.039548973
C  C334  1  0.11916000  0.47096000  0.85842000  1.0 0.179061708
C  C335  1  0.16769000  0.52699000  0.84824000  1.0 0.0801729239
C  C336  1  0.21243000  0.54504000  0.85342000  1.0 -0.0612299678
C  C337  1  0.13067000  0.40409000  0.83872000  1.0 0.0208100378
C  C338  1  0.09019000  0.38320000  0.82964000  1.0 0.0801729239
C  C339  1  0.09739000  0.33457000  0.82722000  1.0 0.0208100378
C  C340  1  0.13847000  0.32582000  0.81400000  1.0 0.2091729768
C  C341  1  0.17010000  0.39427000  0.82460000  1.0 0.0714405285
C  C342  1  0.21236000  0.41049000  0.83369000  1.0 -0.0503993669
C  C343  1  0.13673000  0.30794000  0.77689000  1.0 0.0208100378
C  C344  1  0.09637000  0.30462000  0.76347000  1.0 0.0801729239
C  C345  1  0.10403000  0.27235000  0.74584000  1.0 0.0296525533
C  C346  1  0.14655000  0.28130000  0.73407000  1.0 0.1897413932
C  C347  1  0.17555000  0.32112000  0.76351000  1.0 0.0801729239
C  C348  1  0.21715000  0.32806000  0.77523000  1.0 -0.0503993669
C  C349  1  0.85530000  0.30440000  0.72749000  1.0 0.009971672
C  C350  1  0.84880000  0.32963000  0.80358000  1.0 -0.1015636367
C  C351  1  0.81390000  0.31840000  0.73904000  1.0 0.039548973
C  C352  1  0.88860000  0.34037000  0.81635000  1.0 0.0801729239
C  C353  1  0.77970000  0.28970000  0.72570000  1.0 -0.2200927621
C  C354  1  0.87529000  0.34274000  0.83893000  1.0 0.039548973
C  C355  1  0.84600000  0.28760000  0.77251000  1.0 0.1998830532
C  C356  1  0.84077000  0.37738000  0.84145000  1.0 0.2185350708
C  C357  1  0.88540000  0.27150000  0.76040000  1.0 -0.0086226624
C  C358  1  0.81300000  0.36377000  0.80687000  1.0 0.0905139511
C  C359  1  0.89560000  0.29940000  0.74119000  1.0 -0.0319076228
C  C360  1  0.76990000  0.35430000  0.79548000  1.0 -0.0787937116
C  C361  1  0.86532000  0.44941000  0.85194000  1.0 0.009971672
C  C362  1  0.91062000  0.46858000  0.84847000  1.0 0.0905139511
C  C363  1  0.91714000  0.50653000  0.86353000  1.0 0.0208100378
C  C364  1  0.88022000  0.53899000  0.86177000  1.0 0.1700464461
C  C365  1  0.83029000  0.48418000  0.85050000  1.0 0.0714405285
C  C366  1  0.78471000  0.46749000  0.85541000  1.0 -0.0787937116
C  C367  1  0.87205000  0.60389000  0.84066000  1.0 0.0208100378
C  C368  1  0.91232000  0.62624000  0.83222000  1.0 0.0714405285
C  C369  1  0.90342000  0.67435000  0.82923000  1.0 0.009971672
C  C370  1  0.86264000  0.67997000  0.81518000  1.0 0.1897413932
C  C371  1  0.83184000  0.61232000  0.82673000  1.0 0.0296525533
C  C372  1  0.78966000  0.59566000  0.83632000  1.0 -0.0319076228
C  C373  1  0.88117000  0.69365000  0.77873000  1.0 -0.0166760739
C  C374  1  0.92141000  0.67852000  0.76700000  1.0 0.0905139511
C  C375  1  0.92987000  0.71060000  0.74926000  1.0 0.039548973
C  C376  1  0.89083000  0.71347000  0.73488000  1.0 0.1700464461
C  C377  1  0.84247000  0.69680000  0.76337000  1.0 -0.0694959392
C  C378  1  0.80029000  0.71190000  0.77341000  1.0 0.0296525533
C  C379  1  0.87599000  0.67358000  0.70299000  1.0 0.0296525533
C  C380  1  0.91433000  0.65492000  0.69139000  1.0 0.0714405285
C  C381  1  0.90322000  0.65200000  0.66794000  1.0 0.0208100378
C  C382  1  0.86169000  0.62542000  0.66549000  1.0 0.1998830532
C  C383  1  0.83472000  0.64683000  0.69875000  1.0 0.0801729239
C  C384  1  0.79381000  0.66679000  0.70811000  1.0 -0.040805949
C  C385  1  0.87674000  0.55019000  0.65662000  1.0 0.009971672
C  C386  1  0.91699000  0.52346000  0.66248000  1.0 0.0982258527
C  C387  1  0.92249000  0.48798000  0.64582000  1.0 0.039548973
C  C388  1  0.88154000  0.45953000  0.64517000  1.0 0.1700464461
C  C389  1  0.83710000  0.51956000  0.65586000  1.0 0.0605852707
C  C390  1  0.79366000  0.54116000  0.65099000  1.0 -0.0694959392
C  C391  1  0.86944000  0.39262000  0.66464000  1.0 0.0296525533
C  C392  1  0.91001000  0.37081000  0.67360000  1.0 0.0801729239
C  C393  1  0.90220000  0.32262000  0.67626000  1.0 0.009971672
C  C394  1  0.86114000  0.31479000  0.68947000  1.0 0.0605852707
C  C395  1  0.82947000  0.38234000  0.67817000  1.0 0.0714405285
C  C396  1  0.78737000  0.39931000  0.66888000  1.0 -0.0503993669
C  C397  1  0.68152000  0.38932000  0.91804000  1.0 0.0208100378
C  C398  1  0.66871000  0.35997000  0.93641000  1.0 0.0801729239
C  C399  1  0.66468000  0.31277000  0.92894000  1.0 0.0296525533
C  C400  1  0.63321000  0.31129000  0.91050000  1.0 0.2185350708
C  C401  1  0.65088000  0.38347000  0.89947000  1.0 0.0605852707
C  C402  1  0.66468000  0.40775000  0.88004000  1.0 -0.0503993669
C  C403  1  0.55825000  0.29572000  0.92047000  1.0 0.0208100378
C  C404  1  0.53546000  0.30816000  0.94096000  1.0 0.0801729239
C  C405  1  0.49534000  0.28162000  0.94431000  1.0 0.009971672
C  C406  1  0.46546000  0.28070000  0.92516000  1.0 0.179061708
C  C407  1  0.52555000  0.29729000  0.90234000  1.0 0.0801729239
C  C408  1  0.54473000  0.28104000  0.88189000  1.0 -0.0694959392
C  C409  1  0.39989000  0.31897000  0.91701000  1.0 0.0296525533
C  C410  1  0.37290000  0.33487000  0.93578000  1.0 0.0714405285
C  C411  1  0.32541000  0.33864000  0.92950000  1.0 -0.0019394209
C  C412  1  0.32187000  0.36894000  0.91040000  1.0 0.2291639824
C  C413  1  0.39197000  0.34669000  0.89767000  1.0 0.0801729239
C  C414  1  0.41177000  0.32692000  0.87794000  1.0 -0.0503993669
C  C415  1  0.30743000  0.44269000  0.92204000  1.0 0.009971672
C  C416  1  0.32630000  0.46409000  0.94164000  1.0 0.0905139511
C  C417  1  0.29641000  0.50249000  0.94770000  1.0 0.0296525533
C  C418  1  0.28981000  0.53409000  0.92945000  1.0 0.1998830532
C  C419  1  0.30399000  0.47727000  0.90450000  1.0 0.0801729239
C  C420  1  0.28507000  0.45978000  0.88421000  1.0 -0.0694959392
C  C421  1  0.32497000  0.60104000  0.92155000  1.0 0.0296525533
C  C422  1  0.33899000  0.62553000  0.94126000  1.0 0.0801729239
C  C423  1  0.34174000  0.67428000  0.93647000  1.0 0.0208100378
C  C424  1  0.37281000  0.68089000  0.91814000  1.0 0.2091729768
C  C425  1  0.35415000  0.61143000  0.90278000  1.0 0.0801729239
C  C426  1  0.33740000  0.59250000  0.88232000  1.0 -0.0503993669
C  C427  1  0.44846000  0.69585000  0.92651000  1.0 0.009971672
C  C428  1  0.47058000  0.68813000  0.94771000  1.0 0.0905139511
C  C429  1  0.50851000  0.71931000  0.94942000  1.0 0.0296525533
C  C430  1  0.53952000  0.71456000  0.93093000  1.0 0.179061708
C  C431  1  0.48104000  0.68978000  0.90864000  1.0 0.0801729239
C  C432  1  0.46200000  0.69875000  0.88727000  1.0 -0.0612299678
C  C433  1  0.60586000  0.67272000  0.92943000  1.0 0.0296525533
C  C434  1  0.62569000  0.65364000  0.94940000  1.0 0.0714405285
C  C435  1  0.67449000  0.64887000  0.94713000  1.0 0.0208100378
C  C436  1  0.68361000  0.62248000  0.92682000  1.0 0.2091729768
C  C437  1  0.61727000  0.64421000  0.91032000  1.0 0.0714405285
C  C438  1  0.60043000  0.66123000  0.88955000  1.0 -0.0503993669
C  C439  1  0.69752000  0.54549000  0.93080000  1.0 0.0208100378
C  C440  1  0.68444000  0.51639000  0.94943000  1.0 0.0905139511
C  C441  1  0.71473000  0.47716000  0.95053000  1.0 0.0296525533
C  C442  1  0.71828000  0.45433000  0.92920000  1.0 0.1700464461
C  C443  1  0.69673000  0.51853000  0.91057000  1.0 0.0714405285
C  C444  1  0.70772000  0.54349000  0.89065000  1.0 -0.0694959392
C  C445  1  0.87250000  0.29910000  0.72580000  1.0 0.001098797
C  C446  1  0.91290000  0.30920000  0.73870000  1.0 0.0714405285
C  C447  1  0.91730000  0.28370000  0.75927000  1.0 0.0801729239
C  C448  1  0.87500000  0.28810000  0.77170000  1.0 0.0982258527
C  C449  1  0.83160000  0.29840000  0.73940000  1.0 0.0714405285
C  C450  1  0.80880000  0.25540000  0.73060000  1.0 -0.0612299678
C  C451  1  0.84721000  0.68315000  0.20010000  1.0 0.0296525533
C  C452  1  0.88544000  0.66677000  0.18702000  1.0 0.0801729239
C  C453  1  0.87167000  0.66496000  0.16413000  1.0 0.0296525533
C  C454  1  0.83119000  0.63594000  0.16199000  1.0 0.2185350708
C  C455  1  0.80605000  0.65578000  0.19637000  1.0 0.0714405285
C  C456  1  0.76556000  0.67599000  0.20664000  1.0 -0.0503993669
C  C457  1  0.84819000  0.56000000  0.15365000  1.0 0.0296525533
C  C458  1  0.89090000  0.53748000  0.15853000  1.0 0.0714405285
C  C459  1  0.89697000  0.49909000  0.14368000  1.0 -0.0019394209
C  C460  1  0.85866000  0.46816000  0.14508000  1.0 0.1897413932
C  C461  1  0.81094000  0.52713000  0.15494000  1.0 0.0801729239
C  C462  1  0.76727000  0.54608000  0.14881000  1.0 -0.0612299678
C  C463  1  0.84982000  0.40233000  0.16495000  1.0 0.0296525533
C  C464  1  0.88993000  0.37887000  0.17287000  1.0 0.0714405285
C  C465  1  0.88064000  0.33034000  0.17428000  1.0 0.0296525533
C  C466  1  0.84100000  0.32374000  0.18862000  1.0 0.2091729768
C  C467  1  0.81052000  0.39304000  0.17900000  1.0 0.0714405285
C  C468  1  0.76821000  0.41180000  0.17025000  1.0 -0.0503993669
C  C469  1  0.86293000  0.30726000  0.22419000  1.0 0.009971672
C  C470  1  0.90540000  0.32083000  0.23521000  1.0 0.0982258527
C  C471  1  0.91502000  0.28615000  0.25146000  1.0 0.0296525533
C  C472  1  0.87751000  0.28205000  0.26726000  1.0 0.1897413932
C  C473  1  0.82649000  0.30393000  0.24065000  1.0 0.0801729239
C  C474  1  0.78298000  0.28977000  0.23184000  1.0 -0.0694959392
C  C475  1  0.86590000  0.31882000  0.30043000  1.0 0.039548973
C  C476  1  0.90325000  0.33891000  0.31280000  1.0 0.0714405285
C  C477  1  0.89111000  0.33714000  0.33619000  1.0 0.0208100378
C  C478  1  0.85000000  0.36450000  0.33903000  1.0 0.2185350708
C  C479  1  0.82371000  0.34395000  0.30482000  1.0 0.0714405285
C  C480  1  0.78367000  0.32315000  0.29518000  1.0 -0.0503993669
C  C481  1  0.86892000  0.43942000  0.34774000  1.0 0.009971672
C  C482  1  0.91178000  0.46187000  0.34150000  1.0 0.0905139511
C  C483  1  0.92066000  0.49877000  0.35713000  1.0 0.039548973
C  C484  1  0.88084000  0.52904000  0.35842000  1.0 0.179061708
C  C485  1  0.83231000  0.47301000  0.34824000  1.0 0.0801729239
C  C486  1  0.78757000  0.45496000  0.35342000  1.0 -0.0612299678
C  C487  1  0.86933000  0.59591000  0.33872000  1.0 0.0208100378
C  C488  1  0.90981000  0.61680000  0.32964000  1.0 0.0801729239
C  C489  1  0.90261000  0.66543000  0.32722000  1.0 0.0208100378
C  C490  1  0.86153000  0.67418000  0.31400000  1.0 0.2091729768
C  C491  1  0.82990000  0.60573000  0.32460000  1.0 0.0714405285
C  C492  1  0.78764000  0.58951000  0.33369000  1.0 -0.0503993669
C  C493  1  0.86327000  0.69206000  0.27689000  1.0 0.0296525533
C  C494  1  0.90363000  0.69538000  0.26347000  1.0 0.0801729239
C  C495  1  0.89597000  0.72765000  0.24584000  1.0 0.0296525533
C  C496  1  0.85345000  0.71870000  0.23407000  1.0 0.1897413932
C  C497  1  0.82445000  0.67888000  0.26351000  1.0 0.0801729239
C  C498  1  0.78285000  0.67194000  0.27523000  1.0 -0.0503993669
C  C499  1  0.14470000  0.69560000  0.22749000  1.0 0.009971672
C  C500  1  0.15120000  0.67037000  0.30358000  1.0 -0.1015636367
C  C501  1  0.18610000  0.68160000  0.23904000  1.0 0.039548973
C  C502  1  0.11140000  0.65963000  0.31635000  1.0 0.0801729239
C  C503  1  0.22030000  0.71030000  0.22570000  1.0 -0.2200927621
C  C504  1  0.12471000  0.65726000  0.33893000  1.0 0.039548973
C  C505  1  0.15400000  0.71240000  0.27251000  1.0 0.1998830532
C  C506  1  0.15923000  0.62262000  0.34145000  1.0 0.2185350708
C  C507  1  0.11460000  0.72850000  0.26040000  1.0 -0.0086226624
C  C508  1  0.18700000  0.63623000  0.30687000  1.0 0.0905139511
C  C509  1  0.10440000  0.70060000  0.24119000  1.0 -0.0319076228
C  C510  1  0.23010000  0.64570000  0.29548000  1.0 -0.0787937116
C  C511  1  0.13468000  0.55059000  0.35194000  1.0 0.009971672
C  C512  1  0.08938000  0.53142000  0.34847000  1.0 0.0905139511
C  C513  1  0.08286000  0.49347000  0.36353000  1.0 0.0208100378
C  C514  1  0.11978000  0.46101000  0.36177000  1.0 0.1700464461
C  C515  1  0.16971000  0.51582000  0.35050000  1.0 0.0714405285
C  C516  1  0.21529000  0.53251000  0.35541000  1.0 -0.0787937116
C  C517  1  0.12795000  0.39611000  0.34066000  1.0 0.0208100378
C  C518  1  0.08768000  0.37376000  0.33222000  1.0 0.0714405285
C  C519  1  0.09658000  0.32565000  0.32923000  1.0 0.009971672
C  C520  1  0.13736000  0.32003000  0.31518000  1.0 0.179061708
C  C521  1  0.16816000  0.38768000  0.32673000  1.0 0.0296525533
C  C522  1  0.21034000  0.40434000  0.33632000  1.0 -0.0319076228
C  C523  1  0.11883000  0.30635000  0.27873000  1.0 -0.0166760739
C  C524  1  0.07859000  0.32148000  0.26700000  1.0 0.0905139511
C  C525  1  0.07013000  0.28940000  0.24926000  1.0 0.039548973
C  C526  1  0.10917000  0.28653000  0.23488000  1.0 0.1700464461
C  C527  1  0.15753000  0.30320000  0.26337000  1.0 -0.0694959392
C  C528  1  0.19971000  0.28810000  0.27341000  1.0 0.0296525533
C  C529  1  0.12401000  0.32642000  0.20299000  1.0 0.0296525533
C  C530  1  0.08567000  0.34508000  0.19139000  1.0 0.0714405285
C  C531  1  0.09678000  0.34800000  0.16794000  1.0 0.0208100378
C  C532  1  0.13831000  0.37458000  0.16549000  1.0 0.1998830532
C  C533  1  0.16528000  0.35317000  0.19875000  1.0 0.0801729239
C  C534  1  0.20619000  0.33321000  0.20811000  1.0 -0.040805949
C  C535  1  0.12326000  0.44981000  0.15662000  1.0 0.009971672
C  C536  1  0.08301000  0.47654000  0.16248000  1.0 0.0982258527
C  C537  1  0.07751000  0.51202000  0.14582000  1.0 0.039548973
C  C538  1  0.11846000  0.54047000  0.14517000  1.0 0.1700464461
C  C539  1  0.16290000  0.48044000  0.15586000  1.0 0.0605852707
C  C540  1  0.20634000  0.45884000  0.15099000  1.0 -0.0694959392
C  C541  1  0.13056000  0.60738000  0.16464000  1.0 0.0296525533
C  C542  1  0.08999000  0.62919000  0.17360000  1.0 0.0801729239
C  C543  1  0.09780000  0.67738000  0.17626000  1.0 0.009971672
C  C544  1  0.13886000  0.68521000  0.18947000  1.0 0.0605852707
C  C545  1  0.17053000  0.61766000  0.17817000  1.0 0.0714405285
C  C546  1  0.21263000  0.60069000  0.16888000  1.0 -0.0503993669
C  C547  1  0.31848000  0.61068000  0.41804000  1.0 0.0208100378
C  C548  1  0.33129000  0.64003000  0.43641000  1.0 0.0801729239
C  C549  1  0.33532000  0.68723000  0.42894000  1.0 0.0296525533
C  C550  1  0.36679000  0.68871000  0.41050000  1.0 0.2185350708
C  C551  1  0.34912000  0.61653000  0.39947000  1.0 0.0605852707
C  C552  1  0.33532000  0.59225000  0.38004000  1.0 -0.0503993669
C  C553  1  0.44175000  0.70428000  0.42047000  1.0 0.0208100378
C  C554  1  0.46454000  0.69184000  0.44096000  1.0 0.0801729239
C  C555  1  0.50466000  0.71838000  0.44431000  1.0 0.009971672
C  C556  1  0.53454000  0.71930000  0.42516000  1.0 0.179061708
C  C557  1  0.47445000  0.70271000  0.40234000  1.0 0.0801729239
C  C558  1  0.45527000  0.71896000  0.38189000  1.0 -0.0694959392
C  C559  1  0.60011000  0.68103000  0.41701000  1.0 0.0296525533
C  C560  1  0.62710000  0.66513000  0.43578000  1.0 0.0714405285
C  C561  1  0.67459000  0.66136000  0.42950000  1.0 -0.0019394209
C  C562  1  0.67813000  0.63106000  0.41040000  1.0 0.2291639824
C  C563  1  0.60803000  0.65331000  0.39767000  1.0 0.0801729239
C  C564  1  0.58823000  0.67308000  0.37794000  1.0 -0.0503993669
C  C565  1  0.69257000  0.55731000  0.42204000  1.0 0.009971672
C  C566  1  0.67370000  0.53591000  0.44164000  1.0 0.0905139511
C  C567  1  0.70359000  0.49751000  0.44770000  1.0 0.0296525533
C  C568  1  0.71019000  0.46591000  0.42945000  1.0 0.1998830532
C  C569  1  0.69601000  0.52273000  0.40450000  1.0 0.0801729239
C  C570  1  0.71493000  0.54022000  0.38421000  1.0 -0.0694959392
C  C571  1  0.67503000  0.39896000  0.42155000  1.0 0.0296525533
C  C572  1  0.66101000  0.37447000  0.44126000  1.0 0.0801729239
C  C573  1  0.65826000  0.32572000  0.43647000  1.0 0.0208100378
C  C574  1  0.62719000  0.31911000  0.41814000  1.0 0.2091729768
C  C575  1  0.64585000  0.38857000  0.40278000  1.0 0.0801729239
C  C576  1  0.66260000  0.40750000  0.38232000  1.0 -0.0503993669
C  C577  1  0.55154000  0.30415000  0.42651000  1.0 0.009971672
C  C578  1  0.52942000  0.31187000  0.44771000  1.0 0.0905139511
C  C579  1  0.49149000  0.28069000  0.44942000  1.0 0.0296525533
C  C580  1  0.46048000  0.28544000  0.43093000  1.0 0.179061708
C  C581  1  0.51896000  0.31022000  0.40864000  1.0 0.0801729239
C  C582  1  0.53800000  0.30125000  0.38727000  1.0 -0.0694959392
C  C583  1  0.39414000  0.32728000  0.42943000  1.0 0.0296525533
C  C584  1  0.37431000  0.34636000  0.44940000  1.0 0.0714405285
C  C585  1  0.32551000  0.35113000  0.44713000  1.0 0.0208100378
C  C586  1  0.31639000  0.37752000  0.42682000  1.0 0.2091729768
C  C587  1  0.38273000  0.35579000  0.41032000  1.0 0.0714405285
C  C588  1  0.39957000  0.33877000  0.38955000  1.0 -0.0503993669
C  C589  1  0.30248000  0.45451000  0.43080000  1.0 0.0208100378
C  C590  1  0.31556000  0.48361000  0.44943000  1.0 0.0905139511
C  C591  1  0.28527000  0.52284000  0.45053000  1.0 0.0296525533
C  C592  1  0.28172000  0.54567000  0.42920000  1.0 0.1700464461
C  C593  1  0.30327000  0.48147000  0.41057000  1.0 0.0801729239
C  C594  1  0.29228000  0.45651000  0.39065000  1.0 -0.0694959392
C  C595  1  0.12750000  0.70090000  0.22580000  1.0 0.001098797
C  C596  1  0.08710000  0.69080000  0.23870000  1.0 0.0714405285
C  C597  1  0.08270000  0.71630000  0.25927000  1.0 0.0801729239
C  C598  1  0.12500000  0.71190000  0.27170000  1.0 0.0982258527
C  C599  1  0.16840000  0.70160000  0.23940000  1.0 0.0714405285
C  C600  1  0.19120000  0.74460000  0.23060000  1.0 -0.0694959392
C  C601  1  0.68315000  0.84721000  0.79990000  1.0 0.0296525533
C  C602  1  0.66677000  0.88544000  0.81298000  1.0 0.0801729239
C  C603  1  0.66496000  0.87167000  0.83587000  1.0 0.0296525533
C  C604  1  0.63594000  0.83119000  0.83801000  1.0 0.2185350708
C  C605  1  0.65578000  0.80605000  0.80363000  1.0 0.0714405285
C  C606  1  0.67599000  0.76556000  0.79336000  1.0 -0.0503993669
C  C607  1  0.56000000  0.84819000  0.84635000  1.0 0.0296525533
C  C608  1  0.53748000  0.89090000  0.84147000  1.0 0.0714405285
C  C609  1  0.49909000  0.89697000  0.85632000  1.0 -0.0019394209
C  C610  1  0.46816000  0.85866000  0.85492000  1.0 0.1897413932
C  C611  1  0.52713000  0.81094000  0.84506000  1.0 0.0801729239
C  C612  1  0.54608000  0.76727000  0.85119000  1.0 -0.0612299678
C  C613  1  0.40233000  0.84982000  0.83505000  1.0 0.0296525533
C  C614  1  0.37887000  0.88993000  0.82713000  1.0 0.0714405285
C  C615  1  0.33034000  0.88064000  0.82572000  1.0 0.0296525533
C  C616  1  0.32374000  0.84100000  0.81138000  1.0 0.2091729768
C  C617  1  0.39304000  0.81052000  0.82100000  1.0 0.0714405285
C  C618  1  0.41180000  0.76821000  0.82975000  1.0 -0.0503993669
C  C619  1  0.30726000  0.86293000  0.77581000  1.0 0.009971672
C  C620  1  0.32083000  0.90540000  0.76479000  1.0 0.0982258527
C  C621  1  0.28615000  0.91502000  0.74854000  1.0 0.0208100378
C  C622  1  0.28205000  0.87751000  0.73274000  1.0 0.1897413932
C  C623  1  0.30393000  0.82649000  0.75935000  1.0 0.0801729239
C  C624  1  0.28977000  0.78298000  0.76816000  1.0 -0.0694959392
C  C625  1  0.31882000  0.86590000  0.69957000  1.0 0.039548973
C  C626  1  0.33891000  0.90325000  0.68720000  1.0 0.0714405285
C  C627  1  0.33714000  0.89111000  0.66381000  1.0 0.0208100378
C  C628  1  0.36450000  0.85000000  0.66097000  1.0 0.2091729768
C  C629  1  0.34395000  0.82371000  0.69518000  1.0 0.0714405285
C  C630  1  0.32315000  0.78367000  0.70482000  1.0 -0.0503993669
C  C631  1  0.43942000  0.86892000  0.65226000  1.0 0.009971672
C  C632  1  0.46187000  0.91178000  0.65850000  1.0 0.0905139511
C  C633  1  0.49877000  0.92066000  0.64287000  1.0 0.039548973
C  C634  1  0.52904000  0.88084000  0.64158000  1.0 0.179061708
C  C635  1  0.47301000  0.83231000  0.65176000  1.0 0.0801729239
C  C636  1  0.45496000  0.78757000  0.64658000  1.0 -0.0612299678
C  C637  1  0.59591000  0.86933000  0.66128000  1.0 0.0208100378
C  C638  1  0.61680000  0.90981000  0.67036000  1.0 0.0801729239
C  C639  1  0.66543000  0.90261000  0.67278000  1.0 0.0208100378
C  C640  1  0.67418000  0.86153000  0.68600000  1.0 0.2091729768
C  C641  1  0.60573000  0.82990000  0.67540000  1.0 0.0714405285
C  C642  1  0.58951000  0.78764000  0.66631000  1.0 -0.0503993669
C  C643  1  0.69206000  0.86327000  0.72311000  1.0 0.0296525533
C  C644  1  0.69538000  0.90363000  0.73653000  1.0 0.0801729239
C  C645  1  0.72765000  0.89597000  0.75416000  1.0 0.0296525533
C  C646  1  0.71870000  0.85345000  0.76593000  1.0 0.1897413932
C  C647  1  0.67888000  0.82445000  0.73649000  1.0 0.0801729239
C  C648  1  0.67194000  0.78285000  0.72477000  1.0 -0.0503993669
C  C649  1  0.69560000  0.14470000  0.77251000  1.0 0.009971672
C  C650  1  0.67037000  0.15120000  0.69642000  1.0 -0.1015636367
C  C651  1  0.68160000  0.18610000  0.76096000  1.0 0.039548973
C  C652  1  0.65963000  0.11140000  0.68365000  1.0 0.0801729239
C  C653  1  0.71030000  0.22030000  0.77430000  1.0 -0.2200927621
C  C654  1  0.65726000  0.12471000  0.66107000  1.0 0.039548973
C  C655  1  0.71240000  0.15400000  0.72749000  1.0 0.1998830532
C  C656  1  0.62262000  0.15923000  0.65855000  1.0 0.2185350708
C  C657  1  0.72850000  0.11460000  0.73960000  1.0 -0.0086226624
C  C658  1  0.63623000  0.18700000  0.69313000  1.0 0.0905139511
C  C659  1  0.70060000  0.10440000  0.75881000  1.0 -0.0319076228
C  C660  1  0.64570000  0.23010000  0.70452000  1.0 -0.0787937116
C  C661  1  0.55059000  0.13468000  0.64806000  1.0 0.009971672
C  C662  1  0.53142000  0.08938000  0.65153000  1.0 0.0905139511
C  C663  1  0.49347000  0.08286000  0.63647000  1.0 0.0208100378
C  C664  1  0.46101000  0.11978000  0.63823000  1.0 0.1700464461
C  C665  1  0.51582000  0.16971000  0.64950000  1.0 0.0714405285
C  C666  1  0.53251000  0.21529000  0.64459000  1.0 -0.0787937116
C  C667  1  0.39611000  0.12795000  0.65934000  1.0 0.0208100378
C  C668  1  0.37376000  0.08768000  0.66778000  1.0 0.0714405285
C  C669  1  0.32565000  0.09658000  0.67077000  1.0 0.009971672
C  C670  1  0.32003000  0.13736000  0.68482000  1.0 0.1897413932
C  C671  1  0.38768000  0.16816000  0.67327000  1.0 0.0296525533
C  C672  1  0.40434000  0.21034000  0.66368000  1.0 -0.0319076228
C  C673  1  0.30635000  0.11883000  0.72127000  1.0 -0.0166760739
C  C674  1  0.32148000  0.07859000  0.73300000  1.0 0.0905139511
C  C675  1  0.28940000  0.07013000  0.75074000  1.0 0.039548973
C  C676  1  0.28653000  0.10917000  0.76512000  1.0 0.1700464461
C  C677  1  0.30320000  0.15753000  0.73663000  1.0 -0.0694959392
C  C678  1  0.28810000  0.19971000  0.72659000  1.0 0.0296525533
C  C679  1  0.32642000  0.12401000  0.79701000  1.0 0.0296525533
C  C680  1  0.34508000  0.08567000  0.80861000  1.0 0.0714405285
C  C681  1  0.34800000  0.09678000  0.83206000  1.0 0.0208100378
C  C682  1  0.37458000  0.13831000  0.83451000  1.0 0.1998830532
C  C683  1  0.35317000  0.16528000  0.80125000  1.0 0.0801729239
C  C684  1  0.33321000  0.20619000  0.79189000  1.0 -0.040805949
C  C685  1  0.44981000  0.12326000  0.84338000  1.0 0.009971672
C  C686  1  0.47654000  0.08301000  0.83752000  1.0 0.0982258527
C  C687  1  0.51202000  0.07751000  0.85418000  1.0 0.039548973
C  C688  1  0.54047000  0.11846000  0.85483000  1.0 0.1700464461
C  C689  1  0.48044000  0.16290000  0.84414000  1.0 0.0605852707
C  C690  1  0.45884000  0.20634000  0.84901000  1.0 -0.0694959392
C  C691  1  0.60738000  0.13056000  0.83536000  1.0 0.0296525533
C  C692  1  0.62919000  0.08999000  0.82640000  1.0 0.0801729239
C  C693  1  0.67738000  0.09780000  0.82374000  1.0 0.009971672
C  C694  1  0.68521000  0.13886000  0.81053000  1.0 0.0605852707
C  C695  1  0.61766000  0.17053000  0.82183000  1.0 0.0801729239
C  C696  1  0.60069000  0.21263000  0.83112000  1.0 -0.0503993669
C  C697  1  0.61068000  0.31848000  0.58196000  1.0 0.0208100378
C  C698  1  0.64003000  0.33129000  0.56359000  1.0 0.0801729239
C  C699  1  0.68723000  0.33532000  0.57106000  1.0 0.0296525533
C  C700  1  0.68871000  0.36679000  0.58950000  1.0 0.2185350708
C  C701  1  0.61653000  0.34912000  0.60053000  1.0 0.0605852707
C  C702  1  0.59225000  0.33532000  0.61996000  1.0 -0.0503993669
C  C703  1  0.70428000  0.44175000  0.57953000  1.0 0.0208100378
C  C704  1  0.69184000  0.46454000  0.55904000  1.0 0.0801729239
C  C705  1  0.71838000  0.50466000  0.55569000  1.0 0.009971672
C  C706  1  0.71930000  0.53454000  0.57484000  1.0 0.179061708
C  C707  1  0.70271000  0.47445000  0.59766000  1.0 0.0801729239
C  C708  1  0.71896000  0.45527000  0.61811000  1.0 -0.0694959392
C  C709  1  0.68103000  0.60011000  0.58299000  1.0 0.0296525533
C  C710  1  0.66513000  0.62710000  0.56422000  1.0 0.0714405285
C  C711  1  0.66136000  0.67459000  0.57050000  1.0 -0.0019394209
C  C712  1  0.63106000  0.67813000  0.58960000  1.0 0.2291639824
C  C713  1  0.65331000  0.60803000  0.60233000  1.0 0.0801729239
C  C714  1  0.67308000  0.58823000  0.62206000  1.0 -0.0503993669
C  C715  1  0.55731000  0.69257000  0.57796000  1.0 0.009971672
C  C716  1  0.53591000  0.67370000  0.55836000  1.0 0.0905139511
C  C717  1  0.49751000  0.70359000  0.55230000  1.0 0.0296525533
C  C718  1  0.46591000  0.71019000  0.57055000  1.0 0.1998830532
C  C719  1  0.52273000  0.69601000  0.59550000  1.0 0.0801729239
C  C720  1  0.54022000  0.71493000  0.61579000  1.0 -0.0694959392
C  C721  1  0.39896000  0.67503000  0.57845000  1.0 0.0296525533
C  C722  1  0.37447000  0.66101000  0.55874000  1.0 0.0801729239
C  C723  1  0.32572000  0.65826000  0.56353000  1.0 0.0208100378
C  C724  1  0.31911000  0.62719000  0.58186000  1.0 0.2091729768
C  C725  1  0.38857000  0.64585000  0.59722000  1.0 0.0801729239
C  C726  1  0.40750000  0.66260000  0.61768000  1.0 -0.0503993669
C  C727  1  0.30415000  0.55154000  0.57349000  1.0 0.009971672
C  C728  1  0.31187000  0.52942000  0.55229000  1.0 0.0905139511
C  C729  1  0.28069000  0.49149000  0.55058000  1.0 0.0296525533
C  C730  1  0.28544000  0.46048000  0.56907000  1.0 0.179061708
C  C731  1  0.31022000  0.51896000  0.59136000  1.0 0.0801729239
C  C732  1  0.30125000  0.53800000  0.61273000  1.0 -0.0612299678
C  C733  1  0.32728000  0.39414000  0.57057000  1.0 0.0296525533
C  C734  1  0.34636000  0.37431000  0.55060000  1.0 0.0801729239
C  C735  1  0.35113000  0.32551000  0.55287000  1.0 0.0208100378
C  C736  1  0.37752000  0.31639000  0.57318000  1.0 0.2091729768
C  C737  1  0.35579000  0.38273000  0.58968000  1.0 0.0714405285
C  C738  1  0.33877000  0.39957000  0.61045000  1.0 -0.0503993669
C  C739  1  0.45451000  0.30248000  0.56920000  1.0 0.0208100378
C  C740  1  0.48361000  0.31556000  0.55057000  1.0 0.0905139511
C  C741  1  0.52284000  0.28527000  0.54947000  1.0 0.0296525533
C  C742  1  0.54567000  0.28172000  0.57080000  1.0 0.1700464461
C  C743  1  0.48147000  0.30327000  0.58943000  1.0 0.0714405285
C  C744  1  0.45651000  0.29228000  0.60935000  1.0 -0.0694959392
C  C745  1  0.70090000  0.12750000  0.77420000  1.0 0.001098797
C  C746  1  0.69080000  0.08710000  0.76130000  1.0 0.0714405285
C  C747  1  0.71630000  0.08270000  0.74073000  1.0 0.0801729239
C  C748  1  0.71190000  0.12500000  0.72830000  1.0 0.0982258527
C  C749  1  0.70160000  0.16840000  0.76060000  1.0 0.0714405285
C  C750  1  0.74460000  0.19120000  0.76940000  1.0 -0.0612299678
C  C751  1  0.31685000  0.15279000  0.29990000  1.0 0.0296525533
C  C752  1  0.33323000  0.11456000  0.31298000  1.0 0.0801729239
C  C753  1  0.33504000  0.12833000  0.33587000  1.0 0.0296525533
C  C754  1  0.36406000  0.16881000  0.33801000  1.0 0.2185350708
C  C755  1  0.34422000  0.19395000  0.30363000  1.0 0.0714405285
C  C756  1  0.32401000  0.23444000  0.29336000  1.0 -0.0503993669
C  C757  1  0.44000000  0.15181000  0.34635000  1.0 0.0296525533
C  C758  1  0.46252000  0.10910000  0.34147000  1.0 0.0801729239
C  C759  1  0.50091000  0.10303000  0.35632000  1.0 -0.0019394209
C  C760  1  0.53184000  0.14134000  0.35492000  1.0 0.1897413932
C  C761  1  0.47287000  0.18906000  0.34506000  1.0 0.0801729239
C  C762  1  0.45392000  0.23273000  0.35119000  1.0 -0.0612299678
C  C763  1  0.59767000  0.15018000  0.33505000  1.0 0.0296525533
C  C764  1  0.62113000  0.11007000  0.32713000  1.0 0.0714405285
C  C765  1  0.66966000  0.11936000  0.32572000  1.0 0.0296525533
C  C766  1  0.67626000  0.15900000  0.31138000  1.0 0.2091729768
C  C767  1  0.60696000  0.18948000  0.32100000  1.0 0.0714405285
C  C768  1  0.58820000  0.23179000  0.32975000  1.0 -0.0503993669
C  C769  1  0.69274000  0.13707000  0.27581000  1.0 0.009971672
C  C770  1  0.67917000  0.09460000  0.26479000  1.0 0.0982258527
C  C771  1  0.71385000  0.08498000  0.24854000  1.0 0.0296525533
C  C772  1  0.71795000  0.12249000  0.23274000  1.0 0.1897413932
C  C773  1  0.69607000  0.17351000  0.25935000  1.0 0.0801729239
C  C774  1  0.71023000  0.21702000  0.26816000  1.0 -0.0694959392
C  C775  1  0.68118000  0.13410000  0.19957000  1.0 0.039548973
C  C776  1  0.66109000  0.09675000  0.18720000  1.0 0.0714405285
C  C777  1  0.66286000  0.10889000  0.16381000  1.0 0.0208100378
C  C778  1  0.63550000  0.15000000  0.16097000  1.0 0.2091729768
C  C779  1  0.65605000  0.17629000  0.19518000  1.0 0.0714405285
C  C780  1  0.67685000  0.21633000  0.20482000  1.0 -0.0503993669
C  C781  1  0.56058000  0.13108000  0.15226000  1.0 0.009971672
C  C782  1  0.53813000  0.08822000  0.15850000  1.0 0.0905139511
C  C783  1  0.50123000  0.07934000  0.14287000  1.0 0.039548973
C  C784  1  0.47096000  0.11916000  0.14158000  1.0 0.179061708
C  C785  1  0.52699000  0.16769000  0.15176000  1.0 0.0801729239
C  C786  1  0.54504000  0.21243000  0.14658000  1.0 -0.0612299678
C  C787  1  0.40409000  0.13067000  0.16128000  1.0 0.0208100378
C  C788  1  0.38320000  0.09019000  0.17036000  1.0 0.0801729239
C  C789  1  0.33457000  0.09739000  0.17278000  1.0 0.0208100378
C  C790  1  0.32582000  0.13847000  0.18600000  1.0 0.2091729768
C  C791  1  0.39427000  0.17010000  0.17540000  1.0 0.0714405285
C  C792  1  0.41049000  0.21236000  0.16631000  1.0 -0.0503993669
C  C793  1  0.30794000  0.13673000  0.22311000  1.0 0.0296525533
C  C794  1  0.30462000  0.09637000  0.23653000  1.0 0.0801729239
C  C795  1  0.27235000  0.10403000  0.25416000  1.0 0.0296525533
C  C796  1  0.28130000  0.14655000  0.26593000  1.0 0.1897413932
C  C797  1  0.32112000  0.17555000  0.23649000  1.0 0.0801729239
C  C798  1  0.32806000  0.21715000  0.22477000  1.0 -0.0503993669
C  C799  1  0.30440000  0.85530000  0.27251000  1.0 0.009971672
C  C800  1  0.32963000  0.84880000  0.19642000  1.0 -0.1051625449
C  C801  1  0.31840000  0.81390000  0.26096000  1.0 0.039548973
C  C802  1  0.34037000  0.88860000  0.18365000  1.0 0.0801729239
C  C803  1  0.28970000  0.77970000  0.27430000  1.0 -0.2200927621
C  C804  1  0.34274000  0.87529000  0.16107000  1.0 0.039548973
C  C805  1  0.28760000  0.84600000  0.22749000  1.0 0.1998830532
C  C806  1  0.37738000  0.84077000  0.15855000  1.0 0.2185350708
C  C807  1  0.27150000  0.88540000  0.23960000  1.0 -0.0086226624
C  C808  1  0.36377000  0.81300000  0.19313000  1.0 0.0905139511
C  C809  1  0.29940000  0.89560000  0.25881000  1.0 -0.0319076228
C  C810  1  0.35430000  0.76990000  0.20452000  1.0 -0.0787937116
C  C811  1  0.44941000  0.86532000  0.14806000  1.0 0.009971672
C  C812  1  0.46858000  0.91062000  0.15153000  1.0 0.0905139511
C  C813  1  0.50653000  0.91714000  0.13647000  1.0 0.0208100378
C  C814  1  0.53899000  0.88022000  0.13823000  1.0 0.1700464461
C  C815  1  0.48418000  0.83029000  0.14950000  1.0 0.0714405285
C  C816  1  0.46749000  0.78471000  0.14459000  1.0 -0.0694959392
C  C817  1  0.60389000  0.87205000  0.15934000  1.0 0.0208100378
C  C818  1  0.62624000  0.91232000  0.16778000  1.0 0.0714405285
C  C819  1  0.67435000  0.90342000  0.17077000  1.0 0.009971672
C  C820  1  0.67997000  0.86264000  0.18482000  1.0 0.179061708
C  C821  1  0.61232000  0.83184000  0.17327000  1.0 0.0296525533
C  C822  1  0.59566000  0.78966000  0.16368000  1.0 -0.0319076228
C  C823  1  0.69365000  0.88117000  0.22127000  1.0 -0.0166760739
C  C824  1  0.67852000  0.92141000  0.23300000  1.0 0.0905139511
C  C825  1  0.71060000  0.92987000  0.25074000  1.0 0.039548973
C  C826  1  0.71347000  0.89083000  0.26512000  1.0 0.1700464461
C  C827  1  0.69680000  0.84247000  0.23663000  1.0 -0.0694959392
C  C828  1  0.71190000  0.80029000  0.22659000  1.0 0.0296525533
C  C829  1  0.67358000  0.87599000  0.29701000  1.0 0.0296525533
C  C830  1  0.65492000  0.91433000  0.30861000  1.0 0.0714405285
C  C831  1  0.65200000  0.90322000  0.33206000  1.0 0.0208100378
C  C832  1  0.62542000  0.86169000  0.33451000  1.0 0.1998830532
C  C833  1  0.64683000  0.83472000  0.30125000  1.0 0.0801729239
C  C834  1  0.66679000  0.79381000  0.29189000  1.0 -0.040805949
C  C835  1  0.55019000  0.87674000  0.34338000  1.0 0.009971672
C  C836  1  0.52346000  0.91699000  0.33752000  1.0 0.0982258527
C  C837  1  0.48798000  0.92249000  0.35418000  1.0 0.039548973
C  C838  1  0.45953000  0.88154000  0.35483000  1.0 0.1700464461
C  C839  1  0.51956000  0.83710000  0.34414000  1.0 0.0605852707
C  C840  1  0.54116000  0.79366000  0.34901000  1.0 -0.0694959392
C  C841  1  0.39262000  0.86944000  0.33536000  1.0 0.0296525533
C  C842  1  0.37081000  0.91001000  0.32640000  1.0 0.0801729239
C  C843  1  0.32262000  0.90220000  0.32374000  1.0 0.009971672
C  C844  1  0.31479000  0.86114000  0.31053000  1.0 0.0605852707
C  C845  1  0.38234000  0.82947000  0.32183000  1.0 0.0714405285
C  C846  1  0.39931000  0.78737000  0.33112000  1.0 -0.0503993669
C  C847  1  0.38932000  0.68152000  0.08196000  1.0 0.0208100378
C  C848  1  0.35997000  0.66871000  0.06359000  1.0 0.0801729239
C  C849  1  0.31277000  0.66468000  0.07106000  1.0 0.0296525533
C  C850  1  0.31129000  0.63321000  0.08950000  1.0 0.2185350708
C  C851  1  0.38347000  0.65088000  0.10053000  1.0 0.0605852707
C  C852  1  0.40775000  0.66468000  0.11996000  1.0 -0.0503993669
C  C853  1  0.29572000  0.55825000  0.07953000  1.0 0.0208100378
C  C854  1  0.30816000  0.53546000  0.05904000  1.0 0.0801729239
C  C855  1  0.28162000  0.49534000  0.05569000  1.0 0.009971672
C  C856  1  0.28070000  0.46546000  0.07484000  1.0 0.179061708
C  C857  1  0.29729000  0.52555000  0.09766000  1.0 0.0801729239
C  C858  1  0.28104000  0.54473000  0.11811000  1.0 -0.0694959392
C  C859  1  0.31897000  0.39989000  0.08299000  1.0 0.0296525533
C  C860  1  0.33487000  0.37290000  0.06422000  1.0 0.0714405285
C  C861  1  0.33864000  0.32541000  0.07050000  1.0 -0.0019394209
C  C862  1  0.36894000  0.32187000  0.08960000  1.0 0.2291639824
C  C863  1  0.34669000  0.39197000  0.10233000  1.0 0.0801729239
C  C864  1  0.32692000  0.41177000  0.12206000  1.0 -0.0503993669
C  C865  1  0.44269000  0.30743000  0.07796000  1.0 0.009971672
C  C866  1  0.46409000  0.32630000  0.05836000  1.0 0.0905139511
C  C867  1  0.50249000  0.29641000  0.05230000  1.0 0.0296525533
C  C868  1  0.53409000  0.28981000  0.07055000  1.0 0.1998830532
C  C869  1  0.47727000  0.30399000  0.09550000  1.0 0.0801729239
C  C870  1  0.45978000  0.28507000  0.11579000  1.0 -0.0694959392
C  C871  1  0.60104000  0.32497000  0.07845000  1.0 0.0296525533
C  C872  1  0.62553000  0.33899000  0.05874000  1.0 0.0801729239
C  C873  1  0.67428000  0.34174000  0.06353000  1.0 0.0208100378
C  C874  1  0.68089000  0.37281000  0.08186000  1.0 0.2091729768
C  C875  1  0.61143000  0.35415000  0.09722000  1.0 0.0801729239
C  C876  1  0.59250000  0.33740000  0.11768000  1.0 -0.0503993669
C  C877  1  0.69585000  0.44846000  0.07349000  1.0 0.009971672
C  C878  1  0.68813000  0.47058000  0.05229000  1.0 0.0905139511
C  C879  1  0.71931000  0.50851000  0.05058000  1.0 0.0296525533
C  C880  1  0.71456000  0.53952000  0.06907000  1.0 0.179061708
C  C881  1  0.68978000  0.48104000  0.09136000  1.0 0.0801729239
C  C882  1  0.69875000  0.46200000  0.11273000  1.0 -0.0694959392
C  C883  1  0.67272000  0.60586000  0.07057000  1.0 0.0296525533
C  C884  1  0.65364000  0.62569000  0.05060000  1.0 0.0801729239
C  C885  1  0.64887000  0.67449000  0.05287000  1.0 0.0208100378
C  C886  1  0.62248000  0.68361000  0.07318000  1.0 0.2091729768
C  C887  1  0.64421000  0.61727000  0.08968000  1.0 0.0714405285
C  C888  1  0.66123000  0.60043000  0.11045000  1.0 -0.0503993669
C  C889  1  0.54549000  0.69752000  0.06920000  1.0 0.0208100378
C  C890  1  0.51639000  0.68444000  0.05057000  1.0 0.0905139511
C  C891  1  0.47716000  0.71473000  0.04947000  1.0 0.0296525533
C  C892  1  0.45433000  0.71828000  0.07080000  1.0 0.1700464461
C  C893  1  0.51853000  0.69673000  0.08943000  1.0 0.0801729239
C  C894  1  0.54349000  0.70772000  0.10935000  1.0 -0.0694959392
C  C895  1  0.29910000  0.87250000  0.27420000  1.0 0.001098797
C  C896  1  0.30920000  0.91290000  0.26130000  1.0 0.0714405285
C  C897  1  0.28370000  0.91730000  0.24073000  1.0 0.0801729239
C  C898  1  0.28810000  0.87500000  0.22830000  1.0 0.0982258527
C  C899  1  0.29840000  0.83160000  0.26060000  1.0 0.0714405285
C  C900  1  0.25540000  0.80880000  0.26940000  1.0 -0.0694959392
C  C901  1  0.34721000  0.81685000  0.54990000  1.0 0.0296525533
C  C902  1  0.38544000  0.83323000  0.56298000  1.0 0.0801729239
C  C903  1  0.37167000  0.83504000  0.58587000  1.0 0.0296525533
C  C904  1  0.33119000  0.86406000  0.58801000  1.0 0.2185350708
C  C905  1  0.30605000  0.84422000  0.55363000  1.0 0.0714405285
C  C906  1  0.26556000  0.82401000  0.54336000  1.0 -0.0503993669
C  C907  1  0.34819000  0.94000000  0.59635000  1.0 0.0296525533
C  C908  1  0.39090000  0.96252000  0.59147000  1.0 0.0714405285
C  C909  1  0.39697000  0.00091000  0.60632000  1.0 -0.0019394209
C  C910  1  0.35866000  0.03184000  0.60492000  1.0 0.1897413932
C  C911  1  0.31094000  0.97287000  0.59506000  1.0 0.0801729239
C  C912  1  0.26727000  0.95392000  0.60119000  1.0 -0.0612299678
C  C913  1  0.34982000  0.09767000  0.58505000  1.0 0.0296525533
C  C914  1  0.38993000  0.12113000  0.57713000  1.0 0.0714405285
C  C915  1  0.38064000  0.16966000  0.57572000  1.0 0.0296525533
C  C916  1  0.34100000  0.17626000  0.56138000  1.0 0.2091729768
C  C917  1  0.31052000  0.10696000  0.57100000  1.0 0.0714405285
C  C918  1  0.26821000  0.08820000  0.57975000  1.0 -0.0503993669
C  C919  1  0.36293000  0.19274000  0.52581000  1.0 0.009971672
C  C920  1  0.40540000  0.17917000  0.51479000  1.0 0.0982258527
C  C921  1  0.41502000  0.21385000  0.49854000  1.0 0.0296525533
C  C922  1  0.37751000  0.21795000  0.48274000  1.0 0.1897413932
C  C923  1  0.32649000  0.19607000  0.50935000  1.0 0.0801729239
C  C924  1  0.28298000  0.21023000  0.51816000  1.0 -0.0694959392
C  C925  1  0.36590000  0.18118000  0.44957000  1.0 0.039548973
C  C926  1  0.40325000  0.16109000  0.43720000  1.0 0.0714405285
C  C927  1  0.39111000  0.16286000  0.41381000  1.0 0.0208100378
C  C928  1  0.35000000  0.13550000  0.41097000  1.0 0.2091729768
C  C929  1  0.32371000  0.15605000  0.44518000  1.0 0.0714405285
C  C930  1  0.28367000  0.17685000  0.45482000  1.0 -0.0503993669
C  C931  1  0.36892000  0.06058000  0.40226000  1.0 0.009971672
C  C932  1  0.41178000  0.03813000  0.40850000  1.0 0.0905139511
C  C933  1  0.42066000  0.00123000  0.39287000  1.0 0.039548973
C  C934  1  0.38084000  0.97096000  0.39158000  1.0 0.179061708
C  C935  1  0.33231000  0.02699000  0.40176000  1.0 0.0801729239
C  C936  1  0.28757000  0.04504000  0.39658000  1.0 -0.0612299678
C  C937  1  0.36933000  0.90409000  0.41128000  1.0 0.0208100378
C  C938  1  0.40981000  0.88320000  0.42036000  1.0 0.0801729239
C  C939  1  0.40261000  0.83457000  0.42278000  1.0 0.0208100378
C  C940  1  0.36153000  0.82582000  0.43600000  1.0 0.2091729768
C  C941  1  0.32990000  0.89427000  0.42540000  1.0 0.0714405285
C  C942  1  0.28764000  0.91049000  0.41631000  1.0 -0.0503993669
C  C943  1  0.36327000  0.80794000  0.47311000  1.0 0.0296525533
C  C944  1  0.40363000  0.80462000  0.48653000  1.0 0.0801729239
C  C945  1  0.39597000  0.77235000  0.50416000  1.0 0.0296525533
C  C946  1  0.35345000  0.78130000  0.51593000  1.0 0.1897413932
C  C947  1  0.32445000  0.82112000  0.48649000  1.0 0.0801729239
C  C948  1  0.28285000  0.82806000  0.47477000  1.0 -0.0503993669
C  C949  1  0.64470000  0.80440000  0.52251000  1.0 0.009971672
C  C950  1  0.65120000  0.82963000  0.44642000  1.0 -0.1015636367
C  C951  1  0.68610000  0.81840000  0.51096000  1.0 0.039548973
C  C952  1  0.61140000  0.84037000  0.43365000  1.0 0.0801729239
C  C953  1  0.72030000  0.78970000  0.52430000  1.0 -0.2200927621
C  C954  1  0.62471000  0.84274000  0.41107000  1.0 0.039548973
C  C955  1  0.65400000  0.78760000  0.47749000  1.0 0.1998830532
C  C956  1  0.65923000  0.87738000  0.40855000  1.0 0.2185350708
C  C957  1  0.61460000  0.77150000  0.48960000  1.0 -0.0086226624
C  C958  1  0.68700000  0.86377000  0.44313000  1.0 0.0905139511
C  C959  1  0.60440000  0.79940000  0.50881000  1.0 -0.0319076228
C  C960  1  0.73010000  0.85430000  0.45452000  1.0 -0.0787937116
C  C961  1  0.63468000  0.94941000  0.39806000  1.0 0.009971672
C  C962  1  0.58938000  0.96858000  0.40153000  1.0 0.0905139511
C  C963  1  0.58286000  0.00653000  0.38647000  1.0 0.0296525533
C  C964  1  0.61978000  0.03899000  0.38823000  1.0 0.1700464461
C  C965  1  0.66971000  0.98418000  0.39950000  1.0 0.0714405285
C  C966  1  0.71529000  0.96749000  0.39459000  1.0 -0.0787937116
C  C967  1  0.62795000  0.10389000  0.40934000  1.0 0.0208100378
C  C968  1  0.58768000  0.12624000  0.41778000  1.0 0.0714405285
C  C969  1  0.59658000  0.17435000  0.42077000  1.0 0.009971672
C  C970  1  0.63736000  0.17997000  0.43482000  1.0 0.179061708
C  C971  1  0.66816000  0.11232000  0.42327000  1.0 0.0296525533
C  C972  1  0.71034000  0.09566000  0.41368000  1.0 -0.0319076228
C  C973  1  0.61883000  0.19365000  0.47127000  1.0 -0.0166760739
C  C974  1  0.57859000  0.17852000  0.48300000  1.0 0.0905139511
C  C975  1  0.57013000  0.21060000  0.50074000  1.0 0.039548973
C  C976  1  0.60917000  0.21347000  0.51512000  1.0 0.1700464461
C  C977  1  0.65753000  0.19680000  0.48663000  1.0 -0.0694959392
C  C978  1  0.69971000  0.21190000  0.47659000  1.0 0.0296525533
C  C979  1  0.62401000  0.17358000  0.54701000  1.0 0.0296525533
C  C980  1  0.58567000  0.15492000  0.55861000  1.0 0.0714405285
C  C981  1  0.59678000  0.15200000  0.58206000  1.0 0.0208100378
C  C982  1  0.63831000  0.12542000  0.58451000  1.0 0.1998830532
C  C983  1  0.66528000  0.14683000  0.55125000  1.0 0.0801729239
C  C984  1  0.70619000  0.16679000  0.54189000  1.0 -0.040805949
C  C985  1  0.62326000  0.05019000  0.59338000  1.0 0.009971672
C  C986  1  0.58301000  0.02346000  0.58752000  1.0 0.0982258527
C  C987  1  0.57751000  0.98798000  0.60418000  1.0 0.039548973
C  C988  1  0.61846000  0.95953000  0.60483000  1.0 0.1700464461
C  C989  1  0.66290000  0.01956000  0.59414000  1.0 0.0605852707
C  C990  1  0.70634000  0.04116000  0.59901000  1.0 -0.0694959392
C  C991  1  0.63056000  0.89262000  0.58536000  1.0 0.0296525533
C  C992  1  0.58999000  0.87081000  0.57640000  1.0 0.0801729239
C  C993  1  0.59780000  0.82262000  0.57374000  1.0 0.009971672
C  C994  1  0.63886000  0.81479000  0.56053000  1.0 0.0605852707
C  C995  1  0.67053000  0.88234000  0.57183000  1.0 0.0714405285
C  C996  1  0.71263000  0.89931000  0.58112000  1.0 -0.0503993669
C  C997  1  0.81848000  0.88932000  0.33196000  1.0 0.0208100378
C  C998  1  0.83129000  0.85997000  0.31359000  1.0 0.0801729239
C  C999  1  0.83532000  0.81277000  0.32106000  1.0 0.0296525533
C  C1000  1  0.86679000  0.81129000  0.33950000  1.0 0.2185350708
C  C1001  1  0.84912000  0.88347000  0.35053000  1.0 0.0605852707
C  C1002  1  0.83532000  0.90775000  0.36996000  1.0 -0.0503993669
C  C1003  1  0.94175000  0.79572000  0.32953000  1.0 0.0208100378
C  C1004  1  0.96454000  0.80816000  0.30904000  1.0 0.0801729239
C  C1005  1  0.00466000  0.78162000  0.30569000  1.0 0.009971672
C  C1006  1  0.03454000  0.78070000  0.32484000  1.0 0.179061708
C  C1007  1  0.97445000  0.79729000  0.34766000  1.0 0.0801729239
C  C1008  1  0.95527000  0.78104000  0.36811000  1.0 -0.0694959392
C  C1009  1  0.10011000  0.81897000  0.33299000  1.0 0.0296525533
C  C1010  1  0.12710000  0.83487000  0.31422000  1.0 0.0714405285
C  C1011  1  0.17459000  0.83864000  0.32050000  1.0 -0.0019394209
C  C1012  1  0.17813000  0.86894000  0.33960000  1.0 0.2291639824
C  C1013  1  0.10803000  0.84669000  0.35233000  1.0 0.0801729239
C  C1014  1  0.08823000  0.82692000  0.37206000  1.0 -0.0503993669
C  C1015  1  0.19257000  0.94269000  0.32796000  1.0 0.009971672
C  C1016  1  0.17370000  0.96409000  0.30836000  1.0 0.0905139511
C  C1017  1  0.20359000  0.00249000  0.30230000  1.0 0.0296525533
C  C1018  1  0.21019000  0.03409000  0.32055000  1.0 0.1998830532
C  C1019  1  0.19601000  0.97727000  0.34550000  1.0 0.0801729239
C  C1020  1  0.21493000  0.95978000  0.36579000  1.0 -0.0694959392
C  C1021  1  0.17503000  0.10104000  0.32845000  1.0 0.0296525533
C  C1022  1  0.16101000  0.12553000  0.30874000  1.0 0.0801729239
C  C1023  1  0.15826000  0.17428000  0.31353000  1.0 0.0208100378
C  C1024  1  0.12719000  0.18089000  0.33186000  1.0 0.2091729768
C  C1025  1  0.14585000  0.11143000  0.34722000  1.0 0.0801729239
C  C1026  1  0.16260000  0.09250000  0.36768000  1.0 -0.0503993669
C  C1027  1  0.05154000  0.19585000  0.32349000  1.0 0.009971672
C  C1028  1  0.02942000  0.18813000  0.30229000  1.0 0.0905139511
C  C1029  1  0.99149000  0.21931000  0.30058000  1.0 0.0296525533
C  C1030  1  0.96048000  0.21456000  0.31907000  1.0 0.179061708
C  C1031  1  0.01896000  0.18978000  0.34136000  1.0 0.0801729239
C  C1032  1  0.03800000  0.19875000  0.36273000  1.0 -0.0694959392
C  C1033  1  0.89414000  0.17272000  0.32057000  1.0 0.0296525533
C  C1034  1  0.87431000  0.15364000  0.30060000  1.0 0.0714405285
C  C1035  1  0.82551000  0.14887000  0.30287000  1.0 0.0208100378
C  C1036  1  0.81639000  0.12248000  0.32318000  1.0 0.2091729768
C  C1037  1  0.88273000  0.14421000  0.33968000  1.0 0.0714405285
C  C1038  1  0.89957000  0.16123000  0.36045000  1.0 -0.0503993669
C  C1039  1  0.80248000  0.04549000  0.31920000  1.0 0.0208100378
C  C1040  1  0.81556000  0.01639000  0.30057000  1.0 0.0905139511
C  C1041  1  0.78527000  0.97716000  0.29947000  1.0 0.0296525533
C  C1042  1  0.78172000  0.95433000  0.32080000  1.0 0.1700464461
C  C1043  1  0.80327000  0.01853000  0.33943000  1.0 0.0714405285
C  C1044  1  0.79228000  0.04349000  0.35935000  1.0 -0.0694959392
C  C1045  1  0.62750000  0.79910000  0.52420000  1.0 0.001098797
C  C1046  1  0.58710000  0.80920000  0.51130000  1.0 0.0714405285
C  C1047  1  0.58270000  0.78370000  0.49073000  1.0 0.0801729239
C  C1048  1  0.62500000  0.78810000  0.47830000  1.0 0.0982258527
C  C1049  1  0.66840000  0.79840000  0.51060000  1.0 0.0714405285
C  C1050  1  0.69120000  0.75540000  0.51940000  1.0 -0.0694959392
C  C1051  1  0.65279000  0.18315000  0.04990000  1.0 0.0296525533
C  C1052  1  0.61456000  0.16677000  0.06298000  1.0 0.0801729239
C  C1053  1  0.62833000  0.16496000  0.08587000  1.0 0.0296525533
C  C1054  1  0.66881000  0.13594000  0.08801000  1.0 0.2185350708
C  C1055  1  0.69395000  0.15578000  0.05363000  1.0 0.0714405285
C  C1056  1  0.73444000  0.17599000  0.04336000  1.0 -0.0503993669
C  C1057  1  0.65181000  0.06000000  0.09635000  1.0 0.0296525533
C  C1058  1  0.60910000  0.03748000  0.09147000  1.0 0.0714405285
C  C1059  1  0.60303000  0.99909000  0.10632000  1.0 -0.0019394209
C  C1060  1  0.64134000  0.96816000  0.10492000  1.0 0.1897413932
C  C1061  1  0.68906000  0.02713000  0.09506000  1.0 0.0801729239
C  C1062  1  0.73273000  0.04608000  0.10119000  1.0 -0.0612299678
C  C1063  1  0.65018000  0.90233000  0.08505000  1.0 0.0296525533
C  C1064  1  0.61007000  0.87887000  0.07713000  1.0 0.0714405285
C  C1065  1  0.61936000  0.83034000  0.07572000  1.0 0.0296525533
C  C1066  1  0.65900000  0.82374000  0.06138000  1.0 0.2091729768
C  C1067  1  0.68948000  0.89304000  0.07100000  1.0 0.0714405285
C  C1068  1  0.73179000  0.91180000  0.07975000  1.0 -0.0503993669
C  C1069  1  0.63707000  0.80726000  0.02581000  1.0 0.009971672
C  C1070  1  0.59460000  0.82083000  0.01479000  1.0 0.0982258527
C  C1071  1  0.58498000  0.78615000  0.99854000  1.0 0.0296525533
C  C1072  1  0.62249000  0.78205000  0.98274000  1.0 0.1897413932
C  C1073  1  0.67351000  0.80393000  0.00935000  1.0 0.0801729239
C  C1074  1  0.71702000  0.78977000  0.01816000  1.0 -0.0694959392
C  C1075  1  0.63410000  0.81882000  0.94957000  1.0 0.039548973
C  C1076  1  0.59675000  0.83891000  0.93720000  1.0 0.0714405285
C  C1077  1  0.60889000  0.83714000  0.91381000  1.0 0.009971672
C  C1078  1  0.65000000  0.86450000  0.91097000  1.0 0.2091729768
C  C1079  1  0.67629000  0.84395000  0.94518000  1.0 0.0714405285
C  C1080  1  0.71633000  0.82315000  0.95482000  1.0 -0.0503993669
C  C1081  1  0.63108000  0.93942000  0.90226000  1.0 0.009971672
C  C1082  1  0.58822000  0.96187000  0.90850000  1.0 0.0905139511
C  C1083  1  0.57934000  0.99877000  0.89287000  1.0 0.039548973
C  C1084  1  0.61916000  0.02904000  0.89158000  1.0 0.179061708
C  C1085  1  0.66769000  0.97301000  0.90176000  1.0 0.0801729239
C  C1086  1  0.71243000  0.95496000  0.89658000  1.0 -0.0612299678
C  C1087  1  0.63067000  0.09591000  0.91128000  1.0 0.0208100378
C  C1088  1  0.59019000  0.11680000  0.92036000  1.0 0.0801729239
C  C1089  1  0.59739000  0.16543000  0.92278000  1.0 0.0208100378
C  C1090  1  0.63847000  0.17418000  0.93600000  1.0 0.2091729768
C  C1091  1  0.67010000  0.10573000  0.92540000  1.0 0.0714405285
C  C1092  1  0.71236000  0.08951000  0.91631000  1.0 -0.0503993669
C  C1093  1  0.63673000  0.19206000  0.97311000  1.0 0.0296525533
C  C1094  1  0.59637000  0.19538000  0.98653000  1.0 0.0801729239
C  C1095  1  0.60403000  0.22765000  0.00416000  1.0 0.0296525533
C  C1096  1  0.64655000  0.21870000  0.01593000  1.0 0.1897413932
C  C1097  1  0.67555000  0.17888000  0.98649000  1.0 0.0801729239
C  C1098  1  0.71715000  0.17194000  0.97477000  1.0 -0.0503993669
C  C1099  1  0.35530000  0.19560000  0.02251000  1.0 0.009971672
C  C1100  1  0.34880000  0.17037000  0.94642000  1.0 -0.1015636367
C  C1101  1  0.31390000  0.18160000  0.01096000  1.0 0.039548973
C  C1102  1  0.38860000  0.15963000  0.93365000  1.0 0.0801729239
C  C1103  1  0.27970000  0.21030000  0.02430000  1.0 -0.2200927621
C  C1104  1  0.37529000  0.15726000  0.91107000  1.0 0.039548973
C  C1105  1  0.34600000  0.21240000  0.97749000  1.0 0.1998830532
C  C1106  1  0.34077000  0.12262000  0.90855000  1.0 0.2185350708
C  C1107  1  0.38540000  0.22850000  0.98960000  1.0 -0.0086226624
C  C1108  1  0.31300000  0.13623000  0.94313000  1.0 0.0905139511
C  C1109  1  0.39560000  0.20060000  0.00881000  1.0 -0.0319076228
C  C1110  1  0.26990000  0.14570000  0.95452000  1.0 -0.0787937116
C  C1111  1  0.36532000  0.05059000  0.89806000  1.0 0.009971672
C  C1112  1  0.41062000  0.03142000  0.90153000  1.0 0.0905139511
C  C1113  1  0.41714000  0.99347000  0.88647000  1.0 0.0208100378
C  C1114  1  0.38022000  0.96101000  0.88823000  1.0 0.1700464461
C  C1115  1  0.33029000  0.01582000  0.89950000  1.0 0.0714405285
C  C1116  1  0.28471000  0.03251000  0.89459000  1.0 -0.0694959392
C  C1117  1  0.37205000  0.89611000  0.90934000  1.0 0.0208100378
C  C1118  1  0.41232000  0.87376000  0.91778000  1.0 0.0714405285
C  C1119  1  0.40342000  0.82565000  0.92077000  1.0 0.009971672
C  C1120  1  0.36264000  0.82003000  0.93482000  1.0 0.179061708
C  C1121  1  0.33184000  0.88768000  0.92327000  1.0 0.0296525533
C  C1122  1  0.28966000  0.90434000  0.91368000  1.0 -0.040805949
C  C1123  1  0.38117000  0.80635000  0.97127000  1.0 -0.0166760739
C  C1124  1  0.42141000  0.82148000  0.98300000  1.0 0.0905139511
C  C1125  1  0.42987000  0.78940000  0.00074000  1.0 0.039548973
C  C1126  1  0.39083000  0.78653000  0.01512000  1.0 0.1700464461
C  C1127  1  0.34247000  0.80320000  0.98663000  1.0 -0.0694959392
C  C1128  1  0.30029000  0.78810000  0.97659000  1.0 0.0296525533
C  C1129  1  0.37599000  0.82642000  0.04701000  1.0 0.0296525533
C  C1130  1  0.41433000  0.84508000  0.05861000  1.0 0.0714405285
C  C1131  1  0.40322000  0.84800000  0.08206000  1.0 0.0208100378
C  C1132  1  0.36169000  0.87458000  0.08451000  1.0 0.1998830532
C  C1133  1  0.33472000  0.85317000  0.05125000  1.0 0.0801729239
C  C1134  1  0.29381000  0.83321000  0.04189000  1.0 -0.040805949
C  C1135  1  0.37674000  0.94981000  0.09338000  1.0 0.009971672
C  C1136  1  0.41699000  0.97654000  0.08752000  1.0 0.0982258527
C  C1137  1  0.42249000  0.01202000  0.10418000  1.0 0.039548973
C  C1138  1  0.38154000  0.04047000  0.10483000  1.0 0.1700464461
C  C1139  1  0.33710000  0.98044000  0.09414000  1.0 0.0605852707
C  C1140  1  0.29366000  0.95884000  0.09901000  1.0 -0.0694959392
C  C1141  1  0.36944000  0.10738000  0.08536000  1.0 0.0296525533
C  C1142  1  0.41001000  0.12919000  0.07640000  1.0 0.0801729239
C  C1143  1  0.40220000  0.17738000  0.07374000  1.0 0.009971672
C  C1144  1  0.36114000  0.18521000  0.06053000  1.0 0.0605852707
C  C1145  1  0.32947000  0.11766000  0.07183000  1.0 0.0714405285
C  C1146  1  0.28737000  0.10069000  0.08112000  1.0 -0.0503993669
C  C1147  1  0.18152000  0.11068000  0.83196000  1.0 0.0208100378
C  C1148  1  0.16871000  0.14003000  0.81359000  1.0 0.0801729239
C  C1149  1  0.16468000  0.18723000  0.82106000  1.0 0.0296525533
C  C1150  1  0.13321000  0.18871000  0.83950000  1.0 0.2091729768
C  C1151  1  0.15088000  0.11653000  0.85053000  1.0 0.0605852707
C  C1152  1  0.16468000  0.09225000  0.86996000  1.0 -0.0503993669
C  C1153  1  0.05825000  0.20428000  0.82953000  1.0 0.0208100378
C  C1154  1  0.03546000  0.19184000  0.80904000  1.0 0.0801729239
C  C1155  1  0.99534000  0.21838000  0.80569000  1.0 0.009971672
C  C1156  1  0.96546000  0.21930000  0.82484000  1.0 0.179061708
C  C1157  1  0.02555000  0.20271000  0.84766000  1.0 0.0801729239
C  C1158  1  0.04473000  0.21896000  0.86811000  1.0 -0.0694959392
C  C1159  1  0.89989000  0.18103000  0.83299000  1.0 0.0296525533
C  C1160  1  0.87290000  0.16513000  0.81422000  1.0 0.0714405285
C  C1161  1  0.82541000  0.16136000  0.82050000  1.0 -0.0019394209
C  C1162  1  0.82187000  0.13106000  0.83960000  1.0 0.2291639824
C  C1163  1  0.89197000  0.15331000  0.85233000  1.0 0.0801729239
C  C1164  1  0.91177000  0.17308000  0.87206000  1.0 -0.0503993669
C  C1165  1  0.80743000  0.05731000  0.82796000  1.0 0.009971672
C  C1166  1  0.82630000  0.03591000  0.80836000  1.0 0.0905139511
C  C1167  1  0.79641000  0.99751000  0.80230000  1.0 0.0296525533
C  C1168  1  0.78981000  0.96591000  0.82055000  1.0 0.1998830532
C  C1169  1  0.80399000  0.02273000  0.84550000  1.0 0.0801729239
C  C1170  1  0.78507000  0.04022000  0.86579000  1.0 -0.0694959392
C  C1171  1  0.82497000  0.89896000  0.82845000  1.0 0.0296525533
C  C1172  1  0.83899000  0.87447000  0.80874000  1.0 0.0801729239
C  C1173  1  0.84174000  0.82572000  0.81353000  1.0 0.0208100378
C  C1174  1  0.87281000  0.81911000  0.83186000  1.0 0.2091729768
C  C1175  1  0.85415000  0.88857000  0.84722000  1.0 0.0801729239
C  C1176  1  0.83740000  0.90750000  0.86768000  1.0 -0.0503993669
C  C1177  1  0.94846000  0.80415000  0.82349000  1.0 0.009971672
C  C1178  1  0.97058000  0.81187000  0.80229000  1.0 0.0905139511
C  C1179  1  0.00851000  0.78069000  0.80058000  1.0 0.0296525533
C  C1180  1  0.03952000  0.78544000  0.81907000  1.0 0.179061708
C  C1181  1  0.98104000  0.81022000  0.84136000  1.0 0.0801729239
C  C1182  1  0.96200000  0.80125000  0.86273000  1.0 -0.0694959392
C  C1183  1  0.10586000  0.82728000  0.82057000  1.0 0.0296525533
C  C1184  1  0.12569000  0.84636000  0.80060000  1.0 0.0714405285
C  C1185  1  0.17449000  0.85113000  0.80287000  1.0 0.0208100378
C  C1186  1  0.18361000  0.87752000  0.82318000  1.0 0.2091729768
C  C1187  1  0.11727000  0.85579000  0.83968000  1.0 0.0714405285
C  C1188  1  0.10043000  0.83877000  0.86045000  1.0 -0.0503993669
C  C1189  1  0.19752000  0.95451000  0.81920000  1.0 0.009971672
C  C1190  1  0.18444000  0.98361000  0.80057000  1.0 0.0905139511
C  C1191  1  0.21473000  0.02284000  0.79947000  1.0 0.0296525533
C  C1192  1  0.21828000  0.04567000  0.82080000  1.0 0.1700464461
C  C1193  1  0.19673000  0.98147000  0.83943000  1.0 0.0714405285
C  C1194  1  0.20772000  0.95651000  0.85935000  1.0 -0.0694959392
C  C1195  1  0.37250000  0.20090000  0.02420000  1.0 0.001098797
C  C1196  1  0.41290000  0.19080000  0.01130000  1.0 0.0714405285
C  C1197  1  0.41730000  0.21630000  0.99073000  1.0 0.0801729239
C  C1198  1  0.37500000  0.21190000  0.97830000  1.0 0.0982258527
C  C1199  1  0.33160000  0.20160000  0.01060000  1.0 0.0714405285
C  C1200  1  0.30880000  0.24460000  0.01940000  1.0 -0.0694959392
O  O1  1  0.81936000  0.35925000  0.47166000  1.0 -0.2587892061
O  O2  1  0.80577000  0.42237000  0.43909000  1.0 -0.5394803796
O  O3  1  0.84946000  0.40545000  0.40058000  1.0 -0.5394803796
O  O4  1  0.84744000  0.29656000  0.42423000  1.0 -0.2700246695
O  O5  1  0.78032000  0.25982000  0.45125000  1.0 -0.4692943727
O  O6  1  0.90669000  0.34159000  0.41913000  1.0 -0.2903764968
O  O7  1  0.93180000  0.42604000  0.40573000  1.0 -0.4880706337
O  O8  1  0.02463000  0.43637000  0.39799000  1.0 -0.4692943727
O  O9  1  0.00869000  0.31953000  0.39097000  1.0 -0.3479304728
O  O10  1  0.93891000  0.27002000  0.37777000  1.0 -0.4601387392
O  O11  1  0.05197000  0.35776000  0.41487000  1.0 -0.2700246695
O  O12  1  0.11483000  0.42591000  0.40885000  1.0 -0.5459480498
O  O13  1  0.19463000  0.41618000  0.43122000  1.0 -0.5088661963
O  O14  1  0.15335000  0.30404000  0.43110000  1.0 -0.2700246695
O  O15  1  0.10357000  0.25978000  0.39950000  1.0 -0.3899749752
O  O16  1  0.16065000  0.35120000  0.45911000  1.0 -0.2903764968
O  O17  1  0.17646000  0.44032000  0.47057000  1.0 -0.4513245351
O  O18  1  0.20642000  0.45548000  0.51225000  1.0 -0.4180719937
O  O19  1  0.22719000  0.33799000  0.50661000  1.0 -0.3195785524
O  O20  1  0.25287000  0.28771000  0.47285000  1.0 -0.4601387392
O  O21  1  0.17838000  0.37567000  0.52842000  1.0 -0.2543333139
O  O22  1  0.18253000  0.44382000  0.55840000  1.0 -0.5088661963
O  O23  1  0.14832000  0.42442000  0.59969000  1.0 -0.519239939
O  O24  1  0.15275000  0.31554000  0.57701000  1.0 -0.2700246695
O  O25  1  0.22012000  0.27710000  0.55212000  1.0 -0.3899749752
O  O26  1  0.09241000  0.35825000  0.58204000  1.0 -0.2963346733
O  O27  1  0.06702000  0.44822000  0.59238000  1.0 -0.4513245351
O  O28  1  0.97626000  0.45717000  0.60143000  1.0 -0.4014457776
O  O29  1  0.99440000  0.34318000  0.61369000  1.0 -0.3195785524
O  O30  1  0.06112000  0.28352000  0.62369000  1.0 -0.4692943727
O  O31  1  0.95043000  0.37630000  0.58867000  1.0 -0.2818565387
O  O32  1  0.88887000  0.44658000  0.59341000  1.0 -0.5306952071
O  O33  1  0.81273000  0.43953000  0.56838000  1.0 -0.5011709363
O  O34  1  0.84784000  0.32554000  0.57250000  1.0 -0.2700246695
O  O35  1  0.89436000  0.28054000  0.60456000  1.0 -0.4014457776
O  O36  1  0.83962000  0.37058000  0.54311000  1.0 -0.2903764968
O  O37  1  0.79145000  0.44066000  0.52580000  1.0 -0.5011709363
O  O38  1  0.77330000  0.43054000  0.48094000  1.0 -0.4817367859
O  O39  1  0.78614000  0.31789000  0.49829000  1.0 -0.3479304728
O  O40  1  0.78972000  0.27262000  0.53673000  1.0 -0.4817367859
O  O41  1  0.82739000  0.63943000  0.53156000  1.0 -0.2700246695
O  O42  1  0.80950000  0.57705000  0.56427000  1.0 -0.561357743
O  O43  1  0.85405000  0.58868000  0.60222000  1.0 -0.5088661963
O  O44  1  0.86748000  0.69553000  0.57877000  1.0 -0.2412746506
O  O45  1  0.81040000  0.74560000  0.55286000  1.0 -0.4513245351
O  O46  1  0.91804000  0.64156000  0.58543000  1.0 -0.2818565387
O  O47  1  0.73410000  0.72460000  0.47380000  1.0 -0.1182747193
O  O48  1  0.93745000  0.55591000  0.60184000  1.0 -0.4692943727
O  O49  1  0.79230000  0.68860000  0.50775000  1.0 -0.0787937116
O  O50  1  0.02645000  0.54158000  0.60973000  1.0 -0.4399254694
O  O51  1  0.78220000  0.56830000  0.47929000  1.0 -0.0787937116
O  O52  1  0.01829000  0.66036000  0.61541000  1.0 -0.3479304728
O  O53  1  0.77230000  0.57650000  0.52381000  1.0 -0.0694959392
O  O54  1  0.94802000  0.71580000  0.62558000  1.0 -0.4817367859
O  O55  1  0.05839000  0.61916000  0.59150000  1.0 -0.2587892061
O  O56  1  0.12130000  0.55220000  0.59641000  1.0 -0.5306952071
O  O57  1  0.19723000  0.56102000  0.57036000  1.0 -0.5088661963
O  O58  1  0.15878000  0.67336000  0.57417000  1.0 -0.2903764968
O  O59  1  0.10972000  0.71848000  0.60708000  1.0 -0.3678772773
O  O60  1  0.16283000  0.62904000  0.54502000  1.0 -0.2818565387
O  O61  1  0.17676000  0.54165000  0.53087000  1.0 -0.4399254694
O  O62  1  0.19854000  0.53357000  0.48687000  1.0 -0.4070028671
O  O63  1  0.22592000  0.64705000  0.49652000  1.0 -0.3899749752
O  O64  1  0.25081000  0.70475000  0.52811000  1.0 -0.1418345187
O  O65  1  0.17303000  0.61538000  0.47494000  1.0 -0.2700246695
O  O66  1  0.18154000  0.54801000  0.44358000  1.0 -0.519239939
O  O67  1  0.13451000  0.56247000  0.40561000  1.0 -0.5088661963
O  O68  1  0.14322000  0.67308000  0.42667000  1.0 -0.2412746506
O  O69  1  0.21071000  0.71187000  0.45200000  1.0 -0.4692943727
O  O70  1  0.08204000  0.63060000  0.42248000  1.0 -0.2818565387
O  O71  1  0.05060000  0.54533000  0.41251000  1.0 -0.4601387392
O  O72  1  0.96049000  0.54132000  0.40011000  1.0 -0.4513245351
O  O73  1  0.98621000  0.65537000  0.39020000  1.0 -0.3479304728
O  O74  1  0.06114000  0.70570000  0.38082000  1.0 -0.4513245351
O  O75  1  0.93854000  0.62403000  0.41464000  1.0 -0.2700246695
O  O76  1  0.87600000  0.55359000  0.40983000  1.0 -0.519239939
O  O77  1  0.80050000  0.56209000  0.43543000  1.0 -0.5011709363
O  O78  1  0.83604000  0.67535000  0.43019000  1.0 -0.2543333139
O  O79  1  0.88597000  0.71881000  0.39797000  1.0 -0.3899749752
O  O80  1  0.83082000  0.63179000  0.46007000  1.0 -0.232093117
O  O81  1  0.34430000  0.66677000  0.50186000  1.0 -0.6931763653
O  O82  1  0.93328000  0.82159000  0.67495000  1.0 -0.2818565387
O  O83  1  0.86256000  0.79989000  0.70283000  1.0 -0.519239939
O  O84  1  0.78529000  0.85007000  0.69573000  1.0 -0.5088661963
O  O85  1  0.83746000  0.85152000  0.64394000  1.0 -0.2818565387
O  O86  1  0.89894000  0.79157000  0.62414000  1.0 -0.4070028671
O  O87  1  0.82691000  0.90825000  0.66682000  1.0 -0.2903764968
O  O88  1  0.79989000  0.93503000  0.70845000  1.0 -0.4601387392
O  O89  1  0.79435000  0.02842000  0.71241000  1.0 -0.4817367859
O  O90  1  0.76885000  0.01055000  0.65718000  1.0 -0.3195785524
O  O91  1  0.73770000  0.94090000  0.63452000  1.0 -0.4601387392
O  O92  1  0.82135000  0.05490000  0.67256000  1.0 -0.2818565387
O  O93  1  0.80535000  0.12227000  0.70271000  1.0 -0.519239939
O  O94  1  0.85407000  0.20103000  0.69666000  1.0 -0.5306952071
O  O95  1  0.85183000  0.15400000  0.64374000  1.0 -0.2543333139
O  O96  1  0.78404000  0.10379000  0.62416000  1.0 -0.4180719937
O  O97  1  0.91042000  0.16129000  0.66502000  1.0 -0.2903764968
O  O98  1  0.93300000  0.17500000  0.70869000  1.0 -0.5088661963
O  O99  1  0.02538000  0.18550000  0.71527000  1.0 -0.4321192534
O  O100  1  0.01176000  0.22462000  0.66135000  1.0 -0.332059843
O  O101  1  0.94387000  0.25766000  0.63818000  1.0 -0.4513245351
O  O102  1  0.05564000  0.17095000  0.67561000  1.0 -0.2587892061
O  O103  1  0.11840000  0.19202000  0.70757000  1.0 -0.4817367859
O  O104  1  0.19790000  0.14286000  0.70425000  1.0 -0.4880706337
O  O105  1  0.15844000  0.14193000  0.65002000  1.0 -0.2700246695
O  O106  1  0.10770000  0.20638000  0.62837000  1.0 -0.4321192534
O  O107  1  0.16452000  0.08576000  0.67428000  1.0 -0.2903764968
O  O108  1  0.19564000  0.05848000  0.71473000  1.0 -0.4601387392
O  O109  1  0.21290000  0.96837000  0.71878000  1.0 -0.4321192534
O  O110  1  0.21923000  0.98302000  0.66164000  1.0 -0.332059843
O  O111  1  0.24146000  0.05580000  0.63701000  1.0 -0.4601387392
O  O112  1  0.17363000  0.93985000  0.68222000  1.0 -0.2587892061
O  O113  1  0.18084000  0.88248000  0.71734000  1.0 -0.5394803796
O  O114  1  0.12826000  0.80573000  0.71496000  1.0 -0.5088661963
O  O115  1  0.14143000  0.83601000  0.65932000  1.0 -0.2412746506
O  O116  1  0.20437000  0.88573000  0.63554000  1.0 -0.3828978416
O  O117  1  0.07980000  0.83296000  0.67976000  1.0 -0.2903764968
O  O118  1  0.04029000  0.81313000  0.71891000  1.0 -0.4399254694
O  O119  1  0.94628000  0.79867000  0.71601000  1.0 -0.4321192534
O  O120  1  0.98423000  0.77201000  0.66278000  1.0 -0.332059843
O  O121  1  0.06192000  0.75044000  0.64215000  1.0 -0.4601387392
O  O122  1  0.22460000  0.73020000  0.51078000  1.0 -0.206096268
O  O123  1  0.10710000  0.74520000  0.57090000  1.0 -0.3899749752
O  O124  1  0.79990000  0.54910000  0.47590000  1.0 -0.1872322585
O  O125  1  0.79980000  0.54720000  0.52260000  1.0 -0.2200927621
O  O126  1  0.77560000  0.66080000  0.50873000  1.0 -0.040805949
O  O127  1  0.70430000  0.70070000  0.48230000  1.0 -0.3195785524
O  O128  1  0.18064000  0.64075000  0.97166000  1.0 -0.2587892061
O  O129  1  0.19423000  0.57763000  0.93909000  1.0 -0.5394803796
O  O130  1  0.15054000  0.59455000  0.90058000  1.0 -0.5306952071
O  O131  1  0.15256000  0.70344000  0.92423000  1.0 -0.2700246695
O  O132  1  0.21968000  0.74018000  0.95125000  1.0 -0.4692943727
O  O133  1  0.09331000  0.65841000  0.91913000  1.0 -0.2903764968
O  O134  1  0.06820000  0.57396000  0.90573000  1.0 -0.4880706337
O  O135  1  0.97537000  0.56363000  0.89799000  1.0 -0.4692943727
O  O136  1  0.99131000  0.68047000  0.89097000  1.0 -0.3479304728
O  O137  1  0.06109000  0.72998000  0.87777000  1.0 -0.4601387392
O  O138  1  0.94803000  0.64224000  0.91487000  1.0 -0.2700246695
O  O139  1  0.88517000  0.57409000  0.90885000  1.0 -0.5394803796
O  O140  1  0.80537000  0.58382000  0.93122000  1.0 -0.5088661963
O  O141  1  0.84665000  0.69596000  0.93110000  1.0 -0.2700246695
O  O142  1  0.89643000  0.74022000  0.89950000  1.0 -0.3899749752
O  O143  1  0.83935000  0.64880000  0.95911000  1.0 -0.2903764968
O  O144  1  0.82354000  0.55968000  0.97057000  1.0 -0.4513245351
O  O145  1  0.79358000  0.54452000  0.01225000  1.0 -0.4180719937
O  O146  1  0.77281000  0.66201000  0.00661000  1.0 -0.3195785524
O  O147  1  0.74713000  0.71229000  0.97285000  1.0 -0.4601387392
O  O148  1  0.82162000  0.62433000  0.02842000  1.0 -0.2543333139
O  O149  1  0.81747000  0.55618000  0.05840000  1.0 -0.5088661963
O  O150  1  0.85168000  0.57558000  0.09969000  1.0 -0.5306952071
O  O151  1  0.84725000  0.68446000  0.07701000  1.0 -0.2700246695
O  O152  1  0.77988000  0.72290000  0.05212000  1.0 -0.3899749752
O  O153  1  0.90759000  0.64175000  0.08204000  1.0 -0.2963346733
O  O154  1  0.93298000  0.55178000  0.09238000  1.0 -0.4513245351
O  O155  1  0.02374000  0.54283000  0.10143000  1.0 -0.4070028671
O  O156  1  0.00560000  0.65682000  0.11369000  1.0 -0.3195785524
O  O157  1  0.93888000  0.71648000  0.12369000  1.0 -0.4692943727
O  O158  1  0.04957000  0.62370000  0.08867000  1.0 -0.2818565387
O  O159  1  0.11113000  0.55342000  0.09341000  1.0 -0.5306952071
O  O160  1  0.18727000  0.56047000  0.06838000  1.0 -0.5011709363
O  O161  1  0.15216000  0.67446000  0.07250000  1.0 -0.2700246695
O  O162  1  0.10564000  0.71946000  0.10456000  1.0 -0.4014457776
O  O163  1  0.16038000  0.62942000  0.04311000  1.0 -0.2903764968
O  O164  1  0.20855000  0.55934000  0.02580000  1.0 -0.5011709363
O  O165  1  0.22670000  0.56946000  0.98094000  1.0 -0.4817367859
O  O166  1  0.21386000  0.68211000  0.99829000  1.0 -0.3479304728
O  O167  1  0.21028000  0.72738000  0.03673000  1.0 -0.4817367859
O  O168  1  0.17261000  0.36057000  0.03156000  1.0 -0.2700246695
O  O169  1  0.19050000  0.42295000  0.06427000  1.0 -0.561357743
O  O170  1  0.14595000  0.41132000  0.10222000  1.0 -0.5088661963
O  O171  1  0.13252000  0.30447000  0.07877000  1.0 -0.2412746506
O  O172  1  0.18960000  0.25440000  0.05286000  1.0 -0.4513245351
O  O173  1  0.08196000  0.35844000  0.08543000  1.0 -0.2818565387
O  O174  1  0.26590000  0.27540000  0.97380000  1.0 -0.1182747193
O  O175  1  0.06255000  0.44409000  0.10184000  1.0 -0.4692943727
O  O176  1  0.20770000  0.31140000  0.00775000  1.0 -0.0787937116
O  O177  1  0.97355000  0.45842000  0.10973000  1.0 -0.4399254694
O  O178  1  0.21780000  0.43170000  0.97929000  1.0 -0.0787937116
O  O179  1  0.98171000  0.33964000  0.11541000  1.0 -0.3479304728
O  O180  1  0.22770000  0.42350000  0.02381000  1.0 -0.0694959392
O  O181  1  0.05198000  0.28420000  0.12558000  1.0 -0.4817367859
O  O182  1  0.94161000  0.38084000  0.09150000  1.0 -0.2587892061
O  O183  1  0.87870000  0.44780000  0.09641000  1.0 -0.5306952071
O  O184  1  0.80277000  0.43898000  0.07036000  1.0 -0.5088661963
O  O185  1  0.84122000  0.32664000  0.07417000  1.0 -0.2903764968
O  O186  1  0.89028000  0.28152000  0.10708000  1.0 -0.3678772773
O  O187  1  0.83717000  0.37096000  0.04502000  1.0 -0.2903764968
O  O188  1  0.82324000  0.45835000  0.03087000  1.0 -0.4399254694
O  O189  1  0.80146000  0.46643000  0.98687000  1.0 -0.4014457776
O  O190  1  0.77408000  0.35295000  0.99652000  1.0 -0.3899749752
O  O191  1  0.74919000  0.29525000  0.02811000  1.0 -0.1418345187
O  O192  1  0.82697000  0.38462000  0.97494000  1.0 -0.2700246695
O  O193  1  0.81846000  0.45199000  0.94358000  1.0 -0.519239939
O  O194  1  0.86549000  0.43753000  0.90561000  1.0 -0.5088661963
O  O195  1  0.85678000  0.32692000  0.92667000  1.0 -0.2412746506
O  O196  1  0.78929000  0.28813000  0.95200000  1.0 -0.4692943727
O  O197  1  0.91796000  0.36940000  0.92248000  1.0 -0.2903764968
O  O198  1  0.94940000  0.45467000  0.91251000  1.0 -0.4601387392
O  O199  1  0.03951000  0.45868000  0.90011000  1.0 -0.4513245351
O  O200  1  0.01379000  0.34463000  0.89020000  1.0 -0.3479304728
O  O201  1  0.93886000  0.29430000  0.88082000  1.0 -0.4513245351
O  O202  1  0.06146000  0.37597000  0.91464000  1.0 -0.2700246695
O  O203  1  0.12400000  0.44641000  0.90983000  1.0 -0.519239939
O  O204  1  0.19950000  0.43791000  0.93543000  1.0 -0.5011709363
O  O205  1  0.16396000  0.32465000  0.93019000  1.0 -0.2587892061
O  O206  1  0.11403000  0.28119000  0.89797000  1.0 -0.3899749752
O  O207  1  0.16918000  0.36821000  0.96007000  1.0 -0.232093117
O  O208  1  0.65570000  0.33323000  0.00186000  1.0 -0.6931763653
O  O209  1  0.06672000  0.17841000  0.17495000  1.0 -0.2818565387
O  O210  1  0.13744000  0.20011000  0.20283000  1.0 -0.519239939
O  O211  1  0.21471000  0.14993000  0.19573000  1.0 -0.5088661963
O  O212  1  0.16254000  0.14848000  0.14394000  1.0 -0.2818565387
O  O213  1  0.10106000  0.20843000  0.12414000  1.0 -0.4070028671
O  O214  1  0.17309000  0.09175000  0.16682000  1.0 -0.2903764968
O  O215  1  0.20011000  0.06497000  0.20845000  1.0 -0.4601387392
O  O216  1  0.20565000  0.97158000  0.21241000  1.0 -0.4817367859
O  O217  1  0.23115000  0.98945000  0.15718000  1.0 -0.3195785524
O  O218  1  0.26230000  0.05910000  0.13452000  1.0 -0.4601387392
O  O219  1  0.17865000  0.94510000  0.17256000  1.0 -0.2818565387
O  O220  1  0.19465000  0.87773000  0.20271000  1.0 -0.519239939
O  O221  1  0.14593000  0.79897000  0.19666000  1.0 -0.5306952071
O  O222  1  0.14817000  0.84600000  0.14374000  1.0 -0.2587892061
O  O223  1  0.21596000  0.89621000  0.12416000  1.0 -0.4180719937
O  O224  1  0.08958000  0.83871000  0.16502000  1.0 -0.2903764968
O  O225  1  0.06700000  0.82500000  0.20869000  1.0 -0.5088661963
O  O226  1  0.97462000  0.81450000  0.21527000  1.0 -0.4321192534
O  O227  1  0.98824000  0.77538000  0.16135000  1.0 -0.332059843
O  O228  1  0.05613000  0.74234000  0.13818000  1.0 -0.4601387392
O  O229  1  0.94436000  0.82905000  0.17561000  1.0 -0.2587892061
O  O230  1  0.88160000  0.80798000  0.20757000  1.0 -0.4817367859
O  O231  1  0.80210000  0.85714000  0.20425000  1.0 -0.4880706337
O  O232  1  0.84156000  0.85807000  0.15002000  1.0 -0.2700246695
O  O233  1  0.89230000  0.79362000  0.12837000  1.0 -0.4321192534
O  O234  1  0.83548000  0.91424000  0.17428000  1.0 -0.2963346733
O  O235  1  0.80436000  0.94152000  0.21473000  1.0 -0.4601387392
O  O236  1  0.78710000  0.03163000  0.21878000  1.0 -0.4321192534
O  O237  1  0.78077000  0.01698000  0.16164000  1.0 -0.332059843
O  O238  1  0.75854000  0.94420000  0.13701000  1.0 -0.4601387392
O  O239  1  0.82637000  0.06015000  0.18222000  1.0 -0.2587892061
O  O240  1  0.81916000  0.11752000  0.21734000  1.0 -0.5306952071
O  O241  1  0.87174000  0.19427000  0.21496000  1.0 -0.5088661963
O  O242  1  0.85857000  0.16399000  0.15932000  1.0 -0.2412746506
O  O243  1  0.79563000  0.11427000  0.13554000  1.0 -0.3828978416
O  O244  1  0.92020000  0.16704000  0.17976000  1.0 -0.2903764968
O  O245  1  0.95971000  0.18687000  0.21891000  1.0 -0.4399254694
O  O246  1  0.05372000  0.20133000  0.21601000  1.0 -0.4321192534
O  O247  1  0.01577000  0.22799000  0.16278000  1.0 -0.332059843
O  O248  1  0.93808000  0.24956000  0.14215000  1.0 -0.4601387392
O  O249  1  0.77540000  0.26980000  0.01078000  1.0 -0.204602829
O  O250  1  0.89290000  0.25480000  0.07090000  1.0 -0.3899749752
O  O251  1  0.20010000  0.45090000  0.97590000  1.0 -0.1872322585
O  O252  1  0.20020000  0.45280000  0.02260000  1.0 -0.2200927621
O  O253  1  0.22440000  0.33920000  0.00873000  1.0 -0.040805949
O  O254  1  0.29570000  0.29930000  0.98230000  1.0 -0.3195785524
O  O255  1  0.14075000  0.31936000  0.72166000  1.0 -0.2587892061
O  O256  1  0.07763000  0.30577000  0.68909000  1.0 -0.5394803796
O  O257  1  0.09455000  0.34946000  0.65058000  1.0 -0.5306952071
O  O258  1  0.20344000  0.34744000  0.67423000  1.0 -0.2700246695
O  O259  1  0.24018000  0.28032000  0.70125000  1.0 -0.4692943727
O  O260  1  0.15841000  0.40669000  0.66913000  1.0 -0.2903764968
O  O261  1  0.07396000  0.43180000  0.65573000  1.0 -0.4880706337
O  O262  1  0.06363000  0.52463000  0.64799000  1.0 -0.4692943727
O  O263  1  0.18047000  0.50869000  0.64097000  1.0 -0.3479304728
O  O264  1  0.22998000  0.43891000  0.62777000  1.0 -0.4601387392
O  O265  1  0.14224000  0.55197000  0.66487000  1.0 -0.2700246695
O  O266  1  0.07409000  0.61483000  0.65885000  1.0 -0.5394803796
O  O267  1  0.08382000  0.69463000  0.68122000  1.0 -0.5088661963
O  O268  1  0.19596000  0.65335000  0.68110000  1.0 -0.2700246695
O  O269  1  0.24022000  0.60357000  0.64950000  1.0 -0.3899749752
O  O270  1  0.14880000  0.66065000  0.70911000  1.0 -0.2903764968
O  O271  1  0.05968000  0.67646000  0.72057000  1.0 -0.4513245351
O  O272  1  0.04452000  0.70642000  0.76225000  1.0 -0.4180719937
O  O273  1  0.16201000  0.72719000  0.75661000  1.0 -0.3195785524
O  O274  1  0.21229000  0.75287000  0.72285000  1.0 -0.4692943727
O  O275  1  0.12433000  0.67838000  0.77842000  1.0 -0.2543333139
O  O276  1  0.05618000  0.68253000  0.80840000  1.0 -0.5088661963
O  O277  1  0.07558000  0.64832000  0.84969000  1.0 -0.5306952071
O  O278  1  0.18446000  0.65275000  0.82701000  1.0 -0.2700246695
O  O279  1  0.22290000  0.72012000  0.80212000  1.0 -0.3899749752
O  O280  1  0.14175000  0.59241000  0.83204000  1.0 -0.2963346733
O  O281  1  0.05178000  0.56702000  0.84238000  1.0 -0.4513245351
O  O282  1  0.04283000  0.47626000  0.85143000  1.0 -0.4070028671
O  O283  1  0.15682000  0.49440000  0.86369000  1.0 -0.3195785524
O  O284  1  0.21648000  0.56112000  0.87369000  1.0 -0.4692943727
O  O285  1  0.12370000  0.45043000  0.83867000  1.0 -0.2818565387
O  O286  1  0.05342000  0.38887000  0.84341000  1.0 -0.5306952071
O  O287  1  0.06047000  0.31273000  0.81838000  1.0 -0.5011709363
O  O288  1  0.17446000  0.34784000  0.82250000  1.0 -0.2700246695
O  O289  1  0.21946000  0.39436000  0.85456000  1.0 -0.4014457776
O  O290  1  0.12942000  0.33962000  0.79311000  1.0 -0.2903764968
O  O291  1  0.05934000  0.29145000  0.77580000  1.0 -0.5011709363
O  O292  1  0.06946000  0.27330000  0.73094000  1.0 -0.4817367859
O  O293  1  0.18211000  0.28614000  0.74829000  1.0 -0.3479304728
O  O294  1  0.22738000  0.28972000  0.78673000  1.0 -0.4817367859
O  O295  1  0.86057000  0.32739000  0.78156000  1.0 -0.2700246695
O  O296  1  0.92295000  0.30950000  0.81427000  1.0 -0.561357743
O  O297  1  0.91132000  0.35405000  0.85222000  1.0 -0.519239939
O  O298  1  0.80447000  0.36748000  0.82877000  1.0 -0.2412746506
O  O299  1  0.75440000  0.31040000  0.80286000  1.0 -0.4513245351
O  O300  1  0.85844000  0.41804000  0.83543000  1.0 -0.2818565387
O  O301  1  0.77540000  0.23410000  0.72380000  1.0 -0.1182747193
O  O302  1  0.94409000  0.43745000  0.85184000  1.0 -0.4692943727
O  O303  1  0.81140000  0.29230000  0.75775000  1.0 -0.0787937116
O  O304  1  0.95842000  0.52645000  0.85973000  1.0 -0.4399254694
O  O305  1  0.93170000  0.28220000  0.72929000  1.0 -0.0787937116
O  O306  1  0.83964000  0.51829000  0.86541000  1.0 -0.3429832075
O  O307  1  0.92350000  0.27230000  0.77381000  1.0 -0.0694959392
O  O308  1  0.78420000  0.44802000  0.87558000  1.0 -0.4817367859
O  O309  1  0.88084000  0.55839000  0.84150000  1.0 -0.2587892061
O  O310  1  0.94780000  0.62130000  0.84641000  1.0 -0.5306952071
O  O311  1  0.93898000  0.69723000  0.82036000  1.0 -0.5088661963
O  O312  1  0.82664000  0.65878000  0.82417000  1.0 -0.2903764968
O  O313  1  0.78152000  0.60972000  0.85708000  1.0 -0.3678772773
O  O314  1  0.87096000  0.66283000  0.79502000  1.0 -0.2903764968
O  O315  1  0.95835000  0.67676000  0.78087000  1.0 -0.4399254694
O  O316  1  0.96643000  0.69854000  0.73687000  1.0 -0.4014457776
O  O317  1  0.85295000  0.72592000  0.74652000  1.0 -0.3899749752
O  O318  1  0.79525000  0.75081000  0.77811000  1.0 -0.1418345187
O  O319  1  0.88462000  0.67303000  0.72494000  1.0 -0.2700246695
O  O320  1  0.95199000  0.68154000  0.69358000  1.0 -0.519239939
O  O321  1  0.93753000  0.63451000  0.65561000  1.0 -0.5088661963
O  O322  1  0.82692000  0.64322000  0.67667000  1.0 -0.2412746506
O  O323  1  0.78813000  0.71071000  0.70200000  1.0 -0.4692943727
O  O324  1  0.86940000  0.58204000  0.67248000  1.0 -0.2818565387
O  O325  1  0.95467000  0.55060000  0.66251000  1.0 -0.4601387392
O  O326  1  0.95868000  0.46049000  0.65011000  1.0 -0.4513245351
O  O327  1  0.84463000  0.48621000  0.64020000  1.0 -0.3479304728
O  O328  1  0.79430000  0.56114000  0.63082000  1.0 -0.4513245351
O  O329  1  0.87597000  0.43854000  0.66464000  1.0 -0.2700246695
O  O330  1  0.94641000  0.37600000  0.65983000  1.0 -0.519239939
O  O331  1  0.93791000  0.30050000  0.68543000  1.0 -0.5011709363
O  O332  1  0.82465000  0.33604000  0.68019000  1.0 -0.2543333139
O  O333  1  0.78119000  0.38597000  0.64797000  1.0 -0.3899749752
O  O334  1  0.86821000  0.33082000  0.71007000  1.0 -0.232093117
O  O335  1  0.83323000  0.84430000  0.75186000  1.0 -0.6931763653
O  O336  1  0.67841000  0.43328000  0.92495000  1.0 -0.2818565387
O  O337  1  0.70011000  0.36256000  0.95283000  1.0 -0.519239939
O  O338  1  0.64993000  0.28529000  0.94573000  1.0 -0.5088661963
O  O339  1  0.64848000  0.33746000  0.89394000  1.0 -0.2818565387
O  O340  1  0.70843000  0.39894000  0.87414000  1.0 -0.4070028671
O  O341  1  0.59175000  0.32691000  0.91682000  1.0 -0.2903764968
O  O342  1  0.56497000  0.29989000  0.95845000  1.0 -0.4601387392
O  O343  1  0.47158000  0.29435000  0.96241000  1.0 -0.4817367859
O  O344  1  0.48945000  0.26885000  0.90718000  1.0 -0.3195785524
O  O345  1  0.55910000  0.23770000  0.88452000  1.0 -0.4601387392
O  O346  1  0.44510000  0.32135000  0.92256000  1.0 -0.2818565387
O  O347  1  0.37773000  0.30535000  0.95271000  1.0 -0.519239939
O  O348  1  0.29897000  0.35407000  0.94666000  1.0 -0.5306952071
O  O349  1  0.34600000  0.35183000  0.89374000  1.0 -0.2587892061
O  O350  1  0.39621000  0.28404000  0.87416000  1.0 -0.4180719937
O  O351  1  0.33871000  0.41042000  0.91502000  1.0 -0.2903764968
O  O352  1  0.32500000  0.43300000  0.95869000  1.0 -0.5088661963
O  O353  1  0.31450000  0.52538000  0.96527000  1.0 -0.4399254694
O  O354  1  0.27538000  0.51176000  0.91135000  1.0 -0.332059843
O  O355  1  0.24234000  0.44387000  0.88818000  1.0 -0.4513245351
O  O356  1  0.32905000  0.55564000  0.92561000  1.0 -0.2587892061
O  O357  1  0.30798000  0.61840000  0.95757000  1.0 -0.4817367859
O  O358  1  0.35714000  0.69790000  0.95425000  1.0 -0.4880706337
O  O359  1  0.35807000  0.65844000  0.90002000  1.0 -0.2700246695
O  O360  1  0.29362000  0.60770000  0.87837000  1.0 -0.4321192534
O  O361  1  0.41424000  0.66452000  0.92428000  1.0 -0.2963346733
O  O362  1  0.44152000  0.69564000  0.96473000  1.0 -0.4601387392
O  O363  1  0.53163000  0.71290000  0.96878000  1.0 -0.4321192534
O  O364  1  0.51698000  0.71923000  0.91164000  1.0 -0.332059843
O  O365  1  0.44420000  0.74146000  0.88701000  1.0 -0.4601387392
O  O366  1  0.56015000  0.67363000  0.93222000  1.0 -0.2587892061
O  O367  1  0.61752000  0.68084000  0.96734000  1.0 -0.5306952071
O  O368  1  0.69427000  0.62826000  0.96496000  1.0 -0.5088661963
O  O369  1  0.66399000  0.64143000  0.90932000  1.0 -0.2412746506
O  O370  1  0.61427000  0.70437000  0.88554000  1.0 -0.3828978416
O  O371  1  0.66704000  0.57980000  0.92976000  1.0 -0.2903764968
O  O372  1  0.68687000  0.54029000  0.96891000  1.0 -0.4399254694
O  O373  1  0.70133000  0.44628000  0.96601000  1.0 -0.4321192534
O  O374  1  0.72799000  0.48423000  0.91278000  1.0 -0.332059843
O  O375  1  0.74956000  0.56192000  0.89215000  1.0 -0.4601387392
O  O376  1  0.76980000  0.72460000  0.76078000  1.0 -0.206096268
O  O377  1  0.75480000  0.60710000  0.82090000  1.0 -0.3899749752
O  O378  1  0.95090000  0.29990000  0.72590000  1.0 -0.1872322585
O  O379  1  0.95280000  0.29980000  0.77260000  1.0 -0.2200927621
O  O380  1  0.83920000  0.27560000  0.75873000  1.0 -0.040805949
O  O381  1  0.79930000  0.20430000  0.73230000  1.0 -0.3195785524
O  O382  1  0.85925000  0.68064000  0.22166000  1.0 -0.2587892061
O  O383  1  0.92237000  0.69423000  0.18909000  1.0 -0.5394803796
O  O384  1  0.90545000  0.65054000  0.15058000  1.0 -0.5306952071
O  O385  1  0.79656000  0.65256000  0.17423000  1.0 -0.2700246695
O  O386  1  0.75982000  0.71968000  0.20125000  1.0 -0.4692943727
O  O387  1  0.84159000  0.59331000  0.16913000  1.0 -0.2903764968
O  O388  1  0.92604000  0.56820000  0.15573000  1.0 -0.4880706337
O  O389  1  0.93637000  0.47537000  0.14799000  1.0 -0.4692943727
O  O390  1  0.81953000  0.49131000  0.14097000  1.0 -0.3479304728
O  O391  1  0.77002000  0.56109000  0.12777000  1.0 -0.4601387392
O  O392  1  0.85776000  0.44803000  0.16487000  1.0 -0.2700246695
O  O393  1  0.92591000  0.38517000  0.15885000  1.0 -0.5459480498
O  O394  1  0.91618000  0.30537000  0.18122000  1.0 -0.5088661963
O  O395  1  0.80404000  0.34665000  0.18110000  1.0 -0.2700246695
O  O396  1  0.75978000  0.39643000  0.14950000  1.0 -0.3899749752
O  O397  1  0.85120000  0.33935000  0.20911000  1.0 -0.2903764968
O  O398  1  0.94032000  0.32354000  0.22057000  1.0 -0.4513245351
O  O399  1  0.95548000  0.29358000  0.26225000  1.0 -0.4070028671
O  O400  1  0.83799000  0.27281000  0.25661000  1.0 -0.3195785524
O  O401  1  0.78771000  0.24713000  0.22285000  1.0 -0.4601387392
O  O402  1  0.87567000  0.32162000  0.27842000  1.0 -0.2543333139
O  O403  1  0.94382000  0.31747000  0.30840000  1.0 -0.5088661963
O  O404  1  0.92442000  0.35168000  0.34969000  1.0 -0.519239939
O  O405  1  0.81554000  0.34725000  0.32701000  1.0 -0.2700246695
O  O406  1  0.77710000  0.27988000  0.30212000  1.0 -0.3899749752
O  O407  1  0.85825000  0.40759000  0.33204000  1.0 -0.2963346733
O  O408  1  0.94822000  0.43298000  0.34238000  1.0 -0.4513245351
O  O409  1  0.95717000  0.52374000  0.35143000  1.0 -0.4070028671
O  O410  1  0.84318000  0.50560000  0.36369000  1.0 -0.3195785524
O  O411  1  0.78352000  0.43888000  0.37369000  1.0 -0.4692943727
O  O412  1  0.87630000  0.54957000  0.33867000  1.0 -0.2818565387
O  O413  1  0.94658000  0.61113000  0.34341000  1.0 -0.5306952071
O  O414  1  0.93953000  0.68727000  0.31838000  1.0 -0.5011709363
O  O415  1  0.82554000  0.65216000  0.32250000  1.0 -0.2700246695
O  O416  1  0.78054000  0.60564000  0.35456000  1.0 -0.4014457776
O  O417  1  0.87058000  0.66038000  0.29311000  1.0 -0.2903764968
O  O418  1  0.94066000  0.70855000  0.27580000  1.0 -0.5011709363
O  O419  1  0.93054000  0.72670000  0.23094000  1.0 -0.4817367859
O  O420  1  0.81789000  0.71386000  0.24829000  1.0 -0.3479304728
O  O421  1  0.77262000  0.71028000  0.28673000  1.0 -0.4817367859
O  O422  1  0.13943000  0.67261000  0.28156000  1.0 -0.2700246695
O  O423  1  0.07705000  0.69050000  0.31427000  1.0 -0.561357743
O  O424  1  0.08868000  0.64595000  0.35222000  1.0 -0.5088661963
O  O425  1  0.19553000  0.63252000  0.32877000  1.0 -0.2412746506
O  O426  1  0.24560000  0.68960000  0.30286000  1.0 -0.4513245351
O  O427  1  0.14156000  0.58196000  0.33543000  1.0 -0.2818565387
O  O428  1  0.22460000  0.76590000  0.22380000  1.0 -0.1182747193
O  O429  1  0.05591000  0.56255000  0.35184000  1.0 -0.4692943727
O  O430  1  0.18860000  0.70770000  0.25775000  1.0 -0.0787937116
O  O431  1  0.04158000  0.47355000  0.35973000  1.0 -0.4399254694
O  O432  1  0.06830000  0.71780000  0.22929000  1.0 -0.0787937116
O  O433  1  0.16036000  0.48171000  0.36541000  1.0 -0.3429832075
O  O434  1  0.07650000  0.72770000  0.27381000  1.0 -0.0694959392
O  O435  1  0.21580000  0.55198000  0.37558000  1.0 -0.4817367859
O  O436  1  0.11916000  0.44161000  0.34150000  1.0 -0.2587892061
O  O437  1  0.05220000  0.37870000  0.34641000  1.0 -0.5306952071
O  O438  1  0.06102000  0.30277000  0.32036000  1.0 -0.5088661963
O  O439  1  0.17336000  0.34122000  0.32417000  1.0 -0.2903764968
O  O440  1  0.21848000  0.39028000  0.35708000  1.0 -0.3678772773
O  O441  1  0.12904000  0.33717000  0.29502000  1.0 -0.2818565387
O  O442  1  0.04165000  0.32324000  0.28087000  1.0 -0.4399254694
O  O443  1  0.03357000  0.30146000  0.23687000  1.0 -0.4070028671
O  O444  1  0.14705000  0.27408000  0.24652000  1.0 -0.3899749752
O  O445  1  0.20475000  0.24919000  0.27811000  1.0 -0.1418345187
O  O446  1  0.11538000  0.32697000  0.22494000  1.0 -0.2700246695
O  O447  1  0.04801000  0.31846000  0.19358000  1.0 -0.519239939
O  O448  1  0.06247000  0.36549000  0.15561000  1.0 -0.5088661963
O  O449  1  0.17308000  0.35678000  0.17667000  1.0 -0.2412746506
O  O450  1  0.21187000  0.28929000  0.20200000  1.0 -0.4692943727
O  O451  1  0.13060000  0.41796000  0.17248000  1.0 -0.2818565387
O  O452  1  0.04533000  0.44940000  0.16251000  1.0 -0.4601387392
O  O453  1  0.04132000  0.53951000  0.15011000  1.0 -0.4513245351
O  O454  1  0.15537000  0.51379000  0.14020000  1.0 -0.3479304728
O  O455  1  0.20570000  0.43886000  0.13082000  1.0 -0.4513245351
O  O456  1  0.12403000  0.56146000  0.16464000  1.0 -0.2700246695
O  O457  1  0.05359000  0.62400000  0.15983000  1.0 -0.519239939
O  O458  1  0.06209000  0.69950000  0.18543000  1.0 -0.5088661963
O  O459  1  0.17535000  0.66396000  0.18019000  1.0 -0.2543333139
O  O460  1  0.21881000  0.61403000  0.14797000  1.0 -0.3899749752
O  O461  1  0.13179000  0.66918000  0.21007000  1.0 -0.232093117
O  O462  1  0.16677000  0.15570000  0.25186000  1.0 -0.6931763653
O  O463  1  0.32159000  0.56672000  0.42495000  1.0 -0.2818565387
O  O464  1  0.29989000  0.63744000  0.45283000  1.0 -0.519239939
O  O465  1  0.35007000  0.71471000  0.44573000  1.0 -0.5088661963
O  O466  1  0.35152000  0.66254000  0.39394000  1.0 -0.2818565387
O  O467  1  0.29157000  0.60106000  0.37414000  1.0 -0.4070028671
O  O468  1  0.40825000  0.67309000  0.41682000  1.0 -0.2903764968
O  O469  1  0.43503000  0.70011000  0.45845000  1.0 -0.4601387392
O  O470  1  0.52842000  0.70565000  0.46241000  1.0 -0.4817367859
O  O471  1  0.51055000  0.73115000  0.40718000  1.0 -0.3195785524
O  O472  1  0.44090000  0.76230000  0.38452000  1.0 -0.4601387392
O  O473  1  0.55490000  0.67865000  0.42256000  1.0 -0.2818565387
O  O474  1  0.62227000  0.69465000  0.45271000  1.0 -0.519239939
O  O475  1  0.70103000  0.64593000  0.44666000  1.0 -0.5306952071
O  O476  1  0.65400000  0.64817000  0.39374000  1.0 -0.2543333139
O  O477  1  0.60379000  0.71596000  0.37416000  1.0 -0.4180719937
O  O478  1  0.66129000  0.58958000  0.41502000  1.0 -0.2903764968
O  O479  1  0.67500000  0.56700000  0.45869000  1.0 -0.5088661963
O  O480  1  0.68550000  0.47462000  0.46527000  1.0 -0.4399254694
O  O481  1  0.72462000  0.48824000  0.41135000  1.0 -0.332059843
O  O482  1  0.75766000  0.55613000  0.38818000  1.0 -0.4513245351
O  O483  1  0.67095000  0.44436000  0.42561000  1.0 -0.2587892061
O  O484  1  0.69202000  0.38160000  0.45757000  1.0 -0.4817367859
O  O485  1  0.64286000  0.30210000  0.45425000  1.0 -0.4880706337
O  O486  1  0.64193000  0.34156000  0.40002000  1.0 -0.2700246695
O  O487  1  0.70638000  0.39230000  0.37837000  1.0 -0.4321192534
O  O488  1  0.58576000  0.33548000  0.42428000  1.0 -0.2963346733
O  O489  1  0.55848000  0.30436000  0.46473000  1.0 -0.4601387392
O  O490  1  0.46837000  0.28710000  0.46878000  1.0 -0.4321192534
O  O491  1  0.48302000  0.28077000  0.41164000  1.0 -0.332059843
O  O492  1  0.55580000  0.25854000  0.38701000  1.0 -0.4601387392
O  O493  1  0.43985000  0.32637000  0.43222000  1.0 -0.2587892061
O  O494  1  0.38248000  0.31916000  0.46734000  1.0 -0.5306952071
O  O495  1  0.30573000  0.37174000  0.46496000  1.0 -0.5088661963
O  O496  1  0.33601000  0.35857000  0.40932000  1.0 -0.2412746506
O  O497  1  0.38573000  0.29563000  0.38554000  1.0 -0.3828978416
O  O498  1  0.33296000  0.42020000  0.42976000  1.0 -0.2903764968
O  O499  1  0.31313000  0.45971000  0.46891000  1.0 -0.4399254694
O  O500  1  0.29867000  0.55372000  0.46601000  1.0 -0.4321192534
O  O501  1  0.27201000  0.51577000  0.41278000  1.0 -0.332059843
O  O502  1  0.25044000  0.43808000  0.39215000  1.0 -0.4601387392
O  O503  1  0.23020000  0.27540000  0.26078000  1.0 -0.206096268
O  O504  1  0.24520000  0.39290000  0.32090000  1.0 -0.3899749752
O  O505  1  0.04910000  0.70010000  0.22590000  1.0 -0.1872322585
O  O506  1  0.04720000  0.70020000  0.27260000  1.0 -0.2200927621
O  O507  1  0.16080000  0.72440000  0.25873000  1.0 -0.040805949
O  O508  1  0.20070000  0.79570000  0.23230000  1.0 -0.3195785524
O  O509  1  0.68064000  0.85925000  0.77834000  1.0 -0.2587892061
O  O510  1  0.69423000  0.92237000  0.81091000  1.0 -0.5394803796
O  O511  1  0.65054000  0.90545000  0.84942000  1.0 -0.5306952071
O  O512  1  0.65256000  0.79656000  0.82577000  1.0 -0.2700246695
O  O513  1  0.71968000  0.75982000  0.79875000  1.0 -0.4692943727
O  O514  1  0.59331000  0.84159000  0.83087000  1.0 -0.2903764968
O  O515  1  0.56820000  0.92604000  0.84427000  1.0 -0.4880706337
O  O516  1  0.47537000  0.93637000  0.85201000  1.0 -0.4692943727
O  O517  1  0.49131000  0.81953000  0.85903000  1.0 -0.3479304728
O  O518  1  0.56109000  0.77002000  0.87223000  1.0 -0.4601387392
O  O519  1  0.44803000  0.85776000  0.83513000  1.0 -0.2700246695
O  O520  1  0.38517000  0.92591000  0.84115000  1.0 -0.5394803796
O  O521  1  0.30537000  0.91618000  0.81878000  1.0 -0.5088661963
O  O522  1  0.34665000  0.80404000  0.81890000  1.0 -0.2700246695
O  O523  1  0.39643000  0.75978000  0.85050000  1.0 -0.3899749752
O  O524  1  0.33935000  0.85120000  0.79089000  1.0 -0.2903764968
O  O525  1  0.32354000  0.94032000  0.77943000  1.0 -0.4513245351
O  O526  1  0.29358000  0.95548000  0.73775000  1.0 -0.4180719937
O  O527  1  0.27281000  0.83799000  0.74339000  1.0 -0.3195785524
O  O528  1  0.24713000  0.78771000  0.77715000  1.0 -0.4692943727
O  O529  1  0.32162000  0.87567000  0.72158000  1.0 -0.2543333139
O  O530  1  0.31747000  0.94382000  0.69160000  1.0 -0.5088661963
O  O531  1  0.35168000  0.92442000  0.65031000  1.0 -0.519239939
O  O532  1  0.34725000  0.81554000  0.67299000  1.0 -0.2700246695
O  O533  1  0.27988000  0.77710000  0.69788000  1.0 -0.3899749752
O  O534  1  0.40759000  0.85825000  0.66796000  1.0 -0.2963346733
O  O535  1  0.43298000  0.94822000  0.65762000  1.0 -0.4513245351
O  O536  1  0.52374000  0.95717000  0.64857000  1.0 -0.4070028671
O  O537  1  0.50560000  0.84318000  0.63631000  1.0 -0.3195785524
O  O538  1  0.43888000  0.78352000  0.62631000  1.0 -0.4692943727
O  O539  1  0.54957000  0.87630000  0.66133000  1.0 -0.2818565387
O  O540  1  0.61113000  0.94658000  0.65659000  1.0 -0.5306952071
O  O541  1  0.68727000  0.93953000  0.68162000  1.0 -0.5011709363
O  O542  1  0.65216000  0.82554000  0.67750000  1.0 -0.2700246695
O  O543  1  0.60564000  0.78054000  0.64544000  1.0 -0.4014457776
O  O544  1  0.66038000  0.87058000  0.70689000  1.0 -0.2903764968
O  O545  1  0.70855000  0.94066000  0.72420000  1.0 -0.5011709363
O  O546  1  0.72670000  0.93054000  0.76906000  1.0 -0.4817367859
O  O547  1  0.71386000  0.81789000  0.75171000  1.0 -0.3479304728
O  O548  1  0.71028000  0.77262000  0.71327000  1.0 -0.4817367859
O  O549  1  0.67261000  0.13943000  0.71844000  1.0 -0.2700246695
O  O550  1  0.69050000  0.07705000  0.68573000  1.0 -0.561357743
O  O551  1  0.64595000  0.08868000  0.64778000  1.0 -0.5088661963
O  O552  1  0.63252000  0.19553000  0.67123000  1.0 -0.2412746506
O  O553  1  0.68960000  0.24560000  0.69714000  1.0 -0.4513245351
O  O554  1  0.58196000  0.14156000  0.66457000  1.0 -0.2818565387
O  O555  1  0.76590000  0.22460000  0.77620000  1.0 -0.1182747193
O  O556  1  0.56255000  0.05591000  0.64816000  1.0 -0.4692943727
O  O557  1  0.70770000  0.18860000  0.74225000  1.0 -0.0787937116
O  O558  1  0.47355000  0.04158000  0.64027000  1.0 -0.4399254694
O  O559  1  0.71780000  0.06830000  0.77071000  1.0 -0.0787937116
O  O560  1  0.48171000  0.16036000  0.63459000  1.0 -0.3429832075
O  O561  1  0.72770000  0.07650000  0.72619000  1.0 -0.0694959392
O  O562  1  0.55198000  0.21580000  0.62442000  1.0 -0.4817367859
O  O563  1  0.44161000  0.11916000  0.65850000  1.0 -0.2587892061
O  O564  1  0.37870000  0.05220000  0.65359000  1.0 -0.5306952071
O  O565  1  0.30277000  0.06102000  0.67964000  1.0 -0.5088661963
O  O566  1  0.34122000  0.17336000  0.67583000  1.0 -0.2903764968
O  O567  1  0.39028000  0.21848000  0.64292000  1.0 -0.3678772773
O  O568  1  0.33717000  0.12904000  0.70498000  1.0 -0.2903764968
O  O569  1  0.32324000  0.04165000  0.71913000  1.0 -0.4399254694
O  O570  1  0.30146000  0.03357000  0.76313000  1.0 -0.4014457776
O  O571  1  0.27408000  0.14705000  0.75348000  1.0 -0.3899749752
O  O572  1  0.24919000  0.20475000  0.72189000  1.0 -0.1418345187
O  O573  1  0.32697000  0.11538000  0.77506000  1.0 -0.2700246695
O  O574  1  0.31846000  0.04801000  0.80642000  1.0 -0.519239939
O  O575  1  0.36549000  0.06247000  0.84439000  1.0 -0.5088661963
O  O576  1  0.35678000  0.17308000  0.82333000  1.0 -0.2412746506
O  O577  1  0.28929000  0.21187000  0.79800000  1.0 -0.4692943727
O  O578  1  0.41796000  0.13060000  0.82752000  1.0 -0.2818565387
O  O579  1  0.44940000  0.04533000  0.83749000  1.0 -0.4601387392
O  O580  1  0.53951000  0.04132000  0.84989000  1.0 -0.4513245351
O  O581  1  0.51379000  0.15537000  0.85980000  1.0 -0.3479304728
O  O582  1  0.43886000  0.20570000  0.86918000  1.0 -0.4513245351
O  O583  1  0.56146000  0.12403000  0.83536000  1.0 -0.2700246695
O  O584  1  0.62400000  0.05359000  0.84017000  1.0 -0.519239939
O  O585  1  0.69950000  0.06209000  0.81457000  1.0 -0.5011709363
O  O586  1  0.66396000  0.17535000  0.81981000  1.0 -0.2587892061
O  O587  1  0.61403000  0.21881000  0.85203000  1.0 -0.3899749752
O  O588  1  0.66918000  0.13179000  0.78993000  1.0 -0.232093117
O  O589  1  0.15570000  0.16677000  0.74814000  1.0 -0.6931763653
O  O590  1  0.56672000  0.32159000  0.57505000  1.0 -0.2818565387
O  O591  1  0.63744000  0.29989000  0.54717000  1.0 -0.519239939
O  O592  1  0.71471000  0.35007000  0.55427000  1.0 -0.5088661963
O  O593  1  0.66254000  0.35152000  0.60606000  1.0 -0.2818565387
O  O594  1  0.60106000  0.29157000  0.62586000  1.0 -0.4070028671
O  O595  1  0.67309000  0.40825000  0.58318000  1.0 -0.2903764968
O  O596  1  0.70011000  0.43503000  0.54155000  1.0 -0.4601387392
O  O597  1  0.70565000  0.52842000  0.53759000  1.0 -0.4817367859
O  O598  1  0.73115000  0.51055000  0.59282000  1.0 -0.3195785524
O  O599  1  0.76230000  0.44090000  0.61548000  1.0 -0.4601387392
O  O600  1  0.67865000  0.55490000  0.57744000  1.0 -0.2818565387
O  O601  1  0.69465000  0.62227000  0.54729000  1.0 -0.519239939
O  O602  1  0.64593000  0.70103000  0.55334000  1.0 -0.5306952071
O  O603  1  0.64817000  0.65400000  0.60626000  1.0 -0.2587892061
O  O604  1  0.71596000  0.60379000  0.62584000  1.0 -0.4180719937
O  O605  1  0.58958000  0.66129000  0.58498000  1.0 -0.2903764968
O  O606  1  0.56700000  0.67500000  0.54131000  1.0 -0.5088661963
O  O607  1  0.47462000  0.68550000  0.53473000  1.0 -0.4399254694
O  O608  1  0.48824000  0.72462000  0.58865000  1.0 -0.332059843
O  O609  1  0.55613000  0.75766000  0.61182000  1.0 -0.4601387392
O  O610  1  0.44436000  0.67095000  0.57439000  1.0 -0.2587892061
O  O611  1  0.38160000  0.69202000  0.54243000  1.0 -0.4880706337
O  O612  1  0.30210000  0.64286000  0.54575000  1.0 -0.4880706337
O  O613  1  0.34156000  0.64193000  0.59998000  1.0 -0.2700246695
O  O614  1  0.39230000  0.70638000  0.62163000  1.0 -0.4321192534
O  O615  1  0.33548000  0.58576000  0.57572000  1.0 -0.2963346733
O  O616  1  0.30436000  0.55848000  0.53527000  1.0 -0.4601387392
O  O617  1  0.28710000  0.46837000  0.53122000  1.0 -0.4321192534
O  O618  1  0.28077000  0.48302000  0.58836000  1.0 -0.332059843
O  O619  1  0.25854000  0.55580000  0.61299000  1.0 -0.4601387392
O  O620  1  0.32637000  0.43985000  0.56778000  1.0 -0.2587892061
O  O621  1  0.31916000  0.38248000  0.53266000  1.0 -0.5306952071
O  O622  1  0.37174000  0.30573000  0.53504000  1.0 -0.5088661963
O  O623  1  0.35857000  0.33601000  0.59068000  1.0 -0.2412746506
O  O624  1  0.29563000  0.38573000  0.61446000  1.0 -0.3828978416
O  O625  1  0.42020000  0.33296000  0.57024000  1.0 -0.2903764968
O  O626  1  0.45971000  0.31313000  0.53109000  1.0 -0.4399254694
O  O627  1  0.55372000  0.29867000  0.53399000  1.0 -0.4321192534
O  O628  1  0.51577000  0.27201000  0.58722000  1.0 -0.332059843
O  O629  1  0.43808000  0.25044000  0.60785000  1.0 -0.4601387392
O  O630  1  0.27540000  0.23020000  0.73922000  1.0 -0.206096268
O  O631  1  0.39290000  0.24520000  0.67910000  1.0 -0.3899749752
O  O632  1  0.70010000  0.04910000  0.77410000  1.0 -0.1872322585
O  O633  1  0.70020000  0.04720000  0.72740000  1.0 -0.2200927621
O  O634  1  0.72440000  0.16080000  0.74127000  1.0 -0.040805949
O  O635  1  0.79570000  0.20070000  0.76770000  1.0 -0.3195785524
O  O636  1  0.31936000  0.14075000  0.27834000  1.0 -0.2587892061
O  O637  1  0.30577000  0.07763000  0.31091000  1.0 -0.5394803796
O  O638  1  0.34946000  0.09455000  0.34942000  1.0 -0.5394803796
O  O639  1  0.34744000  0.20344000  0.32577000  1.0 -0.2700246695
O  O640  1  0.28032000  0.24018000  0.29875000  1.0 -0.4692943727
O  O641  1  0.40669000  0.15841000  0.33087000  1.0 -0.2903764968
O  O642  1  0.43180000  0.07396000  0.34427000  1.0 -0.4880706337
O  O643  1  0.52463000  0.06363000  0.35201000  1.0 -0.4692943727
O  O644  1  0.50869000  0.18047000  0.35903000  1.0 -0.3479304728
O  O645  1  0.43891000  0.22998000  0.37223000  1.0 -0.4601387392
O  O646  1  0.55197000  0.14224000  0.33513000  1.0 -0.2700246695
O  O647  1  0.61483000  0.07409000  0.34115000  1.0 -0.5394803796
O  O648  1  0.69463000  0.08382000  0.31878000  1.0 -0.5088661963
O  O649  1  0.65335000  0.19596000  0.31890000  1.0 -0.2700246695
O  O650  1  0.60357000  0.24022000  0.35050000  1.0 -0.3899749752
O  O651  1  0.66065000  0.14880000  0.29089000  1.0 -0.2903764968
O  O652  1  0.67646000  0.05968000  0.27943000  1.0 -0.4513245351
O  O653  1  0.70642000  0.04452000  0.23775000  1.0 -0.4070028671
O  O654  1  0.72719000  0.16201000  0.24339000  1.0 -0.3195785524
O  O655  1  0.75287000  0.21229000  0.27715000  1.0 -0.4601387392
O  O656  1  0.67838000  0.12433000  0.22158000  1.0 -0.2543333139
O  O657  1  0.68253000  0.05618000  0.19160000  1.0 -0.5088661963
O  O658  1  0.64832000  0.07558000  0.15031000  1.0 -0.5306952071
O  O659  1  0.65275000  0.18446000  0.17299000  1.0 -0.2700246695
O  O660  1  0.72012000  0.22290000  0.19788000  1.0 -0.3899749752
O  O661  1  0.59241000  0.14175000  0.16796000  1.0 -0.2963346733
O  O662  1  0.56702000  0.05178000  0.15762000  1.0 -0.4513245351
O  O663  1  0.47626000  0.04283000  0.14857000  1.0 -0.4070028671
O  O664  1  0.49440000  0.15682000  0.13631000  1.0 -0.3195785524
O  O665  1  0.56112000  0.21648000  0.12631000  1.0 -0.4692943727
O  O666  1  0.45043000  0.12370000  0.16133000  1.0 -0.2818565387
O  O667  1  0.38887000  0.05342000  0.15659000  1.0 -0.5306952071
O  O668  1  0.31273000  0.06047000  0.18162000  1.0 -0.5011709363
O  O669  1  0.34784000  0.17446000  0.17750000  1.0 -0.2700246695
O  O670  1  0.39436000  0.21946000  0.14544000  1.0 -0.4014457776
O  O671  1  0.33962000  0.12942000  0.20689000  1.0 -0.2903764968
O  O672  1  0.29145000  0.05934000  0.22420000  1.0 -0.5011709363
O  O673  1  0.27330000  0.06946000  0.26906000  1.0 -0.4817367859
O  O674  1  0.28614000  0.18211000  0.25171000  1.0 -0.3479304728
O  O675  1  0.28972000  0.22738000  0.21327000  1.0 -0.4817367859
O  O676  1  0.32739000  0.86057000  0.21844000  1.0 -0.2700246695
O  O677  1  0.30950000  0.92295000  0.18573000  1.0 -0.561357743
O  O678  1  0.35405000  0.91132000  0.14778000  1.0 -0.5088661963
O  O679  1  0.36748000  0.80447000  0.17123000  1.0 -0.2412746506
O  O680  1  0.31040000  0.75440000  0.19714000  1.0 -0.4513245351
O  O681  1  0.41804000  0.85844000  0.16457000  1.0 -0.2818565387
O  O682  1  0.23410000  0.77540000  0.27620000  1.0 -0.1182747193
O  O683  1  0.43745000  0.94409000  0.14816000  1.0 -0.4692943727
O  O684  1  0.29230000  0.81140000  0.24225000  1.0 -0.0787937116
O  O685  1  0.52645000  0.95842000  0.14027000  1.0 -0.4399254694
O  O686  1  0.28220000  0.93170000  0.27071000  1.0 -0.0787937116
O  O687  1  0.51829000  0.83964000  0.13459000  1.0 -0.3429832075
O  O688  1  0.27230000  0.92350000  0.22619000  1.0 -0.0694959392
O  O689  1  0.44802000  0.78420000  0.12442000  1.0 -0.4817367859
O  O690  1  0.55839000  0.88084000  0.15850000  1.0 -0.2587892061
O  O691  1  0.62130000  0.94780000  0.15359000  1.0 -0.5306952071
O  O692  1  0.69723000  0.93898000  0.17964000  1.0 -0.5088661963
O  O693  1  0.65878000  0.82664000  0.17583000  1.0 -0.2903764968
O  O694  1  0.60972000  0.78152000  0.14292000  1.0 -0.3678772773
O  O695  1  0.66283000  0.87096000  0.20498000  1.0 -0.2818565387
O  O696  1  0.67676000  0.95835000  0.21913000  1.0 -0.4399254694
O  O697  1  0.69854000  0.96643000  0.26313000  1.0 -0.4014457776
O  O698  1  0.72592000  0.85295000  0.25348000  1.0 -0.3899749752
O  O699  1  0.75081000  0.79525000  0.22189000  1.0 -0.1418345187
O  O700  1  0.67303000  0.88462000  0.27506000  1.0 -0.2700246695
O  O701  1  0.68154000  0.95199000  0.30642000  1.0 -0.519239939
O  O702  1  0.63451000  0.93753000  0.34439000  1.0 -0.5088661963
O  O703  1  0.64322000  0.82692000  0.32333000  1.0 -0.2412746506
O  O704  1  0.71071000  0.78813000  0.29800000  1.0 -0.4692943727
O  O705  1  0.58204000  0.86940000  0.32752000  1.0 -0.2818565387
O  O706  1  0.55060000  0.95467000  0.33749000  1.0 -0.4601387392
O  O707  1  0.46049000  0.95868000  0.34989000  1.0 -0.4513245351
O  O708  1  0.48621000  0.84463000  0.35980000  1.0 -0.3479304728
O  O709  1  0.56114000  0.79430000  0.36918000  1.0 -0.4513245351
O  O710  1  0.43854000  0.87597000  0.33536000  1.0 -0.2700246695
O  O711  1  0.37600000  0.94641000  0.34017000  1.0 -0.519239939
O  O712  1  0.30050000  0.93791000  0.31457000  1.0 -0.5011709363
O  O713  1  0.33604000  0.82465000  0.31981000  1.0 -0.2543333139
O  O714  1  0.38597000  0.78119000  0.35203000  1.0 -0.3899749752
O  O715  1  0.33082000  0.86821000  0.28993000  1.0 -0.232093117
O  O716  1  0.84430000  0.83323000  0.24814000  1.0 -0.6931763653
O  O717  1  0.43328000  0.67841000  0.07505000  1.0 -0.2818565387
O  O718  1  0.36256000  0.70011000  0.04717000  1.0 -0.519239939
O  O719  1  0.28529000  0.64993000  0.05427000  1.0 -0.5088661963
O  O720  1  0.33746000  0.64848000  0.10606000  1.0 -0.2818565387
O  O721  1  0.39894000  0.70843000  0.12586000  1.0 -0.4070028671
O  O722  1  0.32691000  0.59175000  0.08318000  1.0 -0.2903764968
O  O723  1  0.29989000  0.56497000  0.04155000  1.0 -0.4601387392
O  O724  1  0.29435000  0.47158000  0.03759000  1.0 -0.4817367859
O  O725  1  0.26885000  0.48945000  0.09282000  1.0 -0.3195785524
O  O726  1  0.23770000  0.55910000  0.11548000  1.0 -0.4601387392
O  O727  1  0.32135000  0.44510000  0.07744000  1.0 -0.2818565387
O  O728  1  0.30535000  0.37773000  0.04729000  1.0 -0.519239939
O  O729  1  0.35407000  0.29897000  0.05334000  1.0 -0.5306952071
O  O730  1  0.35183000  0.34600000  0.10626000  1.0 -0.2543333139
O  O731  1  0.28404000  0.39621000  0.12584000  1.0 -0.4180719937
O  O732  1  0.41042000  0.33871000  0.08498000  1.0 -0.2903764968
O  O733  1  0.43300000  0.32500000  0.04131000  1.0 -0.5088661963
O  O734  1  0.52538000  0.31450000  0.03473000  1.0 -0.4321192534
O  O735  1  0.51176000  0.27538000  0.08865000  1.0 -0.332059843
O  O736  1  0.44387000  0.24234000  0.11182000  1.0 -0.4513245351
O  O737  1  0.55564000  0.32905000  0.07439000  1.0 -0.2700246695
O  O738  1  0.61840000  0.30798000  0.04243000  1.0 -0.4817367859
O  O739  1  0.69790000  0.35714000  0.04575000  1.0 -0.4880706337
O  O740  1  0.65844000  0.35807000  0.09998000  1.0 -0.2700246695
O  O741  1  0.60770000  0.29362000  0.12163000  1.0 -0.4321192534
O  O742  1  0.66452000  0.41424000  0.07572000  1.0 -0.2963346733
O  O743  1  0.69564000  0.44152000  0.03527000  1.0 -0.4601387392
O  O744  1  0.71290000  0.53163000  0.03122000  1.0 -0.4321192534
O  O745  1  0.71923000  0.51698000  0.08836000  1.0 -0.332059843
O  O746  1  0.74146000  0.44420000  0.11299000  1.0 -0.4601387392
O  O747  1  0.67363000  0.56015000  0.06778000  1.0 -0.2587892061
O  O748  1  0.68084000  0.61752000  0.03266000  1.0 -0.5306952071
O  O749  1  0.62826000  0.69427000  0.03504000  1.0 -0.5088661963
O  O750  1  0.64143000  0.66399000  0.09068000  1.0 -0.2412746506
O  O751  1  0.70437000  0.61427000  0.11446000  1.0 -0.3828978416
O  O752  1  0.57980000  0.66704000  0.07024000  1.0 -0.2903764968
O  O753  1  0.54029000  0.68687000  0.03109000  1.0 -0.4399254694
O  O754  1  0.44628000  0.70133000  0.03399000  1.0 -0.4321192534
O  O755  1  0.48423000  0.72799000  0.08722000  1.0 -0.332059843
O  O756  1  0.56192000  0.74956000  0.10785000  1.0 -0.4601387392
O  O757  1  0.72460000  0.76980000  0.23922000  1.0 -0.204602829
O  O758  1  0.60710000  0.75480000  0.17910000  1.0 -0.3899749752
O  O759  1  0.29990000  0.95090000  0.27410000  1.0 -0.1872322585
O  O760  1  0.29980000  0.95280000  0.22740000  1.0 -0.2200927621
O  O761  1  0.27560000  0.83920000  0.24127000  1.0 -0.040805949
O  O762  1  0.20430000  0.79930000  0.26770000  1.0 -0.3195785524
O  O763  1  0.35925000  0.81936000  0.52834000  1.0 -0.2587892061
O  O764  1  0.42237000  0.80577000  0.56091000  1.0 -0.5394803796
O  O765  1  0.40545000  0.84946000  0.59942000  1.0 -0.5306952071
O  O766  1  0.29656000  0.84744000  0.57577000  1.0 -0.2700246695
O  O767  1  0.25982000  0.78032000  0.54875000  1.0 -0.4692943727
O  O768  1  0.34159000  0.90669000  0.58087000  1.0 -0.2903764968
O  O769  1  0.42604000  0.93180000  0.59427000  1.0 -0.4880706337
O  O770  1  0.43637000  0.02463000  0.60201000  1.0 -0.4692943727
O  O771  1  0.31953000  0.00869000  0.60903000  1.0 -0.3479304728
O  O772  1  0.27002000  0.93891000  0.62223000  1.0 -0.4601387392
O  O773  1  0.35776000  0.05197000  0.58513000  1.0 -0.2700246695
O  O774  1  0.42591000  0.11483000  0.59115000  1.0 -0.5394803796
O  O775  1  0.41618000  0.19463000  0.56878000  1.0 -0.5088661963
O  O776  1  0.30404000  0.15335000  0.56890000  1.0 -0.2700246695
O  O777  1  0.25978000  0.10357000  0.60050000  1.0 -0.3899749752
O  O778  1  0.35120000  0.16065000  0.54089000  1.0 -0.2903764968
O  O779  1  0.44032000  0.17646000  0.52943000  1.0 -0.4513245351
O  O780  1  0.45548000  0.20642000  0.48775000  1.0 -0.4180719937
O  O781  1  0.33799000  0.22719000  0.49339000  1.0 -0.3195785524
O  O782  1  0.28771000  0.25287000  0.52715000  1.0 -0.4601387392
O  O783  1  0.37567000  0.17838000  0.47158000  1.0 -0.2543333139
O  O784  1  0.44382000  0.18253000  0.44160000  1.0 -0.5088661963
O  O785  1  0.42442000  0.14832000  0.40031000  1.0 -0.519239939
O  O786  1  0.31554000  0.15275000  0.42299000  1.0 -0.2700246695
O  O787  1  0.27710000  0.22012000  0.44788000  1.0 -0.3899749752
O  O788  1  0.35825000  0.09241000  0.41796000  1.0 -0.2963346733
O  O789  1  0.44822000  0.06702000  0.40762000  1.0 -0.4513245351
O  O790  1  0.45717000  0.97626000  0.39857000  1.0 -0.4070028671
O  O791  1  0.34318000  0.99440000  0.38631000  1.0 -0.3195785524
O  O792  1  0.28352000  0.06112000  0.37631000  1.0 -0.4692943727
O  O793  1  0.37630000  0.95043000  0.41133000  1.0 -0.2818565387
O  O794  1  0.44658000  0.88887000  0.40659000  1.0 -0.5306952071
O  O795  1  0.43953000  0.81273000  0.43162000  1.0 -0.5011709363
O  O796  1  0.32554000  0.84784000  0.42750000  1.0 -0.2700246695
O  O797  1  0.28054000  0.89436000  0.39544000  1.0 -0.4014457776
O  O798  1  0.37058000  0.83962000  0.45689000  1.0 -0.2903764968
O  O799  1  0.44066000  0.79145000  0.47420000  1.0 -0.5011709363
O  O800  1  0.43054000  0.77330000  0.51906000  1.0 -0.4817367859
O  O801  1  0.31789000  0.78614000  0.50171000  1.0 -0.3479304728
O  O802  1  0.27262000  0.78972000  0.46327000  1.0 -0.4817367859
O  O803  1  0.63943000  0.82739000  0.46844000  1.0 -0.2700246695
O  O804  1  0.57705000  0.80950000  0.43573000  1.0 -0.561357743
O  O805  1  0.58868000  0.85405000  0.39778000  1.0 -0.519239939
O  O806  1  0.69553000  0.86748000  0.42123000  1.0 -0.2412746506
O  O807  1  0.74560000  0.81040000  0.44714000  1.0 -0.4513245351
O  O808  1  0.64156000  0.91804000  0.41457000  1.0 -0.2818565387
O  O809  1  0.72460000  0.73410000  0.52620000  1.0 -0.1182747193
O  O810  1  0.55591000  0.93745000  0.39816000  1.0 -0.4692943727
O  O811  1  0.68860000  0.79230000  0.49225000  1.0 -0.0787937116
O  O812  1  0.54158000  0.02645000  0.39027000  1.0 -0.4399254694
O  O813  1  0.56830000  0.78220000  0.52071000  1.0 -0.0787937116
O  O814  1  0.66036000  0.01829000  0.38459000  1.0 -0.3479304728
O  O815  1  0.57650000  0.77230000  0.47619000  1.0 -0.0694959392
O  O816  1  0.71580000  0.94802000  0.37442000  1.0 -0.4817367859
O  O817  1  0.61916000  0.05839000  0.40850000  1.0 -0.2587892061
O  O818  1  0.55220000  0.12130000  0.40359000  1.0 -0.5306952071
O  O819  1  0.56102000  0.19723000  0.42964000  1.0 -0.5088661963
O  O820  1  0.67336000  0.15878000  0.42583000  1.0 -0.2903764968
O  O821  1  0.71848000  0.10972000  0.39292000  1.0 -0.3678772773
O  O822  1  0.62904000  0.16283000  0.45498000  1.0 -0.2818565387
O  O823  1  0.54165000  0.17676000  0.46913000  1.0 -0.4399254694
O  O824  1  0.53357000  0.19854000  0.51313000  1.0 -0.4070028671
O  O825  1  0.64705000  0.22592000  0.50348000  1.0 -0.3899749752
O  O826  1  0.70475000  0.25081000  0.47189000  1.0 -0.1418345187
O  O827  1  0.61538000  0.17303000  0.52506000  1.0 -0.2700246695
O  O828  1  0.54801000  0.18154000  0.55642000  1.0 -0.519239939
O  O829  1  0.56247000  0.13451000  0.59439000  1.0 -0.5088661963
O  O830  1  0.67308000  0.14322000  0.57333000  1.0 -0.2412746506
O  O831  1  0.71187000  0.21071000  0.54800000  1.0 -0.4692943727
O  O832  1  0.63060000  0.08204000  0.57752000  1.0 -0.2903764968
O  O833  1  0.54533000  0.05060000  0.58749000  1.0 -0.4601387392
O  O834  1  0.54132000  0.96049000  0.59989000  1.0 -0.4513245351
O  O835  1  0.65537000  0.98621000  0.60980000  1.0 -0.3479304728
O  O836  1  0.70570000  0.06114000  0.61918000  1.0 -0.4513245351
O  O837  1  0.62403000  0.93854000  0.58536000  1.0 -0.2700246695
O  O838  1  0.55359000  0.87600000  0.59017000  1.0 -0.5088661963
O  O839  1  0.56209000  0.80050000  0.56457000  1.0 -0.5011709363
O  O840  1  0.67535000  0.83604000  0.56981000  1.0 -0.2543333139
O  O841  1  0.71881000  0.88597000  0.60203000  1.0 -0.3899749752
O  O842  1  0.63179000  0.83082000  0.53993000  1.0 -0.232093117
O  O843  1  0.66677000  0.34430000  0.49814000  1.0 -0.6931763653
O  O844  1  0.82159000  0.93328000  0.32505000  1.0 -0.2818565387
O  O845  1  0.79989000  0.86256000  0.29717000  1.0 -0.519239939
O  O846  1  0.85007000  0.78529000  0.30427000  1.0 -0.5088661963
O  O847  1  0.85152000  0.83746000  0.35606000  1.0 -0.2818565387
O  O848  1  0.79157000  0.89894000  0.37586000  1.0 -0.4070028671
O  O849  1  0.90825000  0.82691000  0.33318000  1.0 -0.2903764968
O  O850  1  0.93503000  0.79989000  0.29155000  1.0 -0.4601387392
O  O851  1  0.02842000  0.79435000  0.28759000  1.0 -0.4817367859
O  O852  1  0.01055000  0.76885000  0.34282000  1.0 -0.3195785524
O  O853  1  0.94090000  0.73770000  0.36548000  1.0 -0.4601387392
O  O854  1  0.05490000  0.82135000  0.32744000  1.0 -0.2818565387
O  O855  1  0.12227000  0.80535000  0.29729000  1.0 -0.519239939
O  O856  1  0.20103000  0.85407000  0.30334000  1.0 -0.5306952071
O  O857  1  0.15400000  0.85183000  0.35626000  1.0 -0.2587892061
O  O858  1  0.10379000  0.78404000  0.37584000  1.0 -0.4180719937
O  O859  1  0.16129000  0.91042000  0.33498000  1.0 -0.2903764968
O  O860  1  0.17500000  0.93300000  0.29131000  1.0 -0.5088661963
O  O861  1  0.18550000  0.02538000  0.28473000  1.0 -0.4399254694
O  O862  1  0.22462000  0.01176000  0.33865000  1.0 -0.332059843
O  O863  1  0.25766000  0.94387000  0.36182000  1.0 -0.4601387392
O  O864  1  0.17095000  0.05564000  0.32439000  1.0 -0.2587892061
O  O865  1  0.19202000  0.11840000  0.29243000  1.0 -0.4817367859
O  O866  1  0.14286000  0.19790000  0.29575000  1.0 -0.4880706337
O  O867  1  0.14193000  0.15844000  0.34998000  1.0 -0.2700246695
O  O868  1  0.20638000  0.10770000  0.37163000  1.0 -0.4321192534
O  O869  1  0.08576000  0.16452000  0.32572000  1.0 -0.2963346733
O  O870  1  0.05848000  0.19564000  0.28527000  1.0 -0.4601387392
O  O871  1  0.96837000  0.21290000  0.28122000  1.0 -0.4321192534
O  O872  1  0.98302000  0.21923000  0.33836000  1.0 -0.332059843
O  O873  1  0.05580000  0.24146000  0.36299000  1.0 -0.4601387392
O  O874  1  0.93985000  0.17363000  0.31778000  1.0 -0.2587892061
O  O875  1  0.88248000  0.18084000  0.28266000  1.0 -0.5394803796
O  O876  1  0.80573000  0.12826000  0.28504000  1.0 -0.5088661963
O  O877  1  0.83601000  0.14143000  0.34068000  1.0 -0.2412746506
O  O878  1  0.88573000  0.20437000  0.36446000  1.0 -0.3828978416
O  O879  1  0.83296000  0.07980000  0.32024000  1.0 -0.2903764968
O  O880  1  0.81313000  0.04029000  0.28109000  1.0 -0.4399254694
O  O881  1  0.79867000  0.94628000  0.28399000  1.0 -0.4321192534
O  O882  1  0.77201000  0.98423000  0.33722000  1.0 -0.332059843
O  O883  1  0.75044000  0.06192000  0.35785000  1.0 -0.4601387392
O  O884  1  0.73020000  0.22460000  0.48922000  1.0 -0.206096268
O  O885  1  0.74520000  0.10710000  0.42910000  1.0 -0.3899749752
O  O886  1  0.54910000  0.79990000  0.52410000  1.0 -0.1872322585
O  O887  1  0.54720000  0.79980000  0.47740000  1.0 -0.2200927621
O  O888  1  0.66080000  0.77560000  0.49127000  1.0 -0.040805949
O  O889  1  0.70070000  0.70430000  0.51770000  1.0 -0.3195785524
O  O890  1  0.64075000  0.18064000  0.02834000  1.0 -0.2587892061
O  O891  1  0.57763000  0.19423000  0.06091000  1.0 -0.5394803796
O  O892  1  0.59455000  0.15054000  0.09942000  1.0 -0.5394803796
O  O893  1  0.70344000  0.15256000  0.07577000  1.0 -0.2700246695
O  O894  1  0.74018000  0.21968000  0.04875000  1.0 -0.4692943727
O  O895  1  0.65841000  0.09331000  0.08087000  1.0 -0.2903764968
O  O896  1  0.57396000  0.06820000  0.09427000  1.0 -0.4880706337
O  O897  1  0.56363000  0.97537000  0.10201000  1.0 -0.4692943727
O  O898  1  0.68047000  0.99131000  0.10903000  1.0 -0.3479304728
O  O899  1  0.72998000  0.06109000  0.12223000  1.0 -0.4601387392
O  O900  1  0.64224000  0.94803000  0.08513000  1.0 -0.2700246695
O  O901  1  0.57409000  0.88517000  0.09115000  1.0 -0.5394803796
O  O902  1  0.58382000  0.80537000  0.06878000  1.0 -0.5088661963
O  O903  1  0.69596000  0.84665000  0.06890000  1.0 -0.2700246695
O  O904  1  0.74022000  0.89643000  0.10050000  1.0 -0.3899749752
O  O905  1  0.64880000  0.83935000  0.04089000  1.0 -0.2903764968
O  O906  1  0.55968000  0.82354000  0.02943000  1.0 -0.4513245351
O  O907  1  0.54452000  0.79358000  0.98775000  1.0 -0.4180719937
O  O908  1  0.66201000  0.77281000  0.99339000  1.0 -0.3195785524
O  O909  1  0.71229000  0.74713000  0.02715000  1.0 -0.4601387392
O  O910  1  0.62433000  0.82162000  0.97158000  1.0 -0.2543333139
O  O911  1  0.55618000  0.81747000  0.94160000  1.0 -0.5088661963
O  O912  1  0.57558000  0.85168000  0.90031000  1.0 -0.5306952071
O  O913  1  0.68446000  0.84725000  0.92299000  1.0 -0.2700246695
O  O914  1  0.72290000  0.77988000  0.94788000  1.0 -0.3899749752
O  O915  1  0.64175000  0.90759000  0.91796000  1.0 -0.2963346733
O  O916  1  0.55178000  0.93298000  0.90762000  1.0 -0.4513245351
O  O917  1  0.54283000  0.02374000  0.89857000  1.0 -0.4014457776
O  O918  1  0.65682000  0.00560000  0.88631000  1.0 -0.3195785524
O  O919  1  0.71648000  0.93888000  0.87631000  1.0 -0.4692943727
O  O920  1  0.62370000  0.04957000  0.91133000  1.0 -0.2818565387
O  O921  1  0.55342000  0.11113000  0.90659000  1.0 -0.5306952071
O  O922  1  0.56047000  0.18727000  0.93162000  1.0 -0.5011709363
O  O923  1  0.67446000  0.15216000  0.92750000  1.0 -0.2700246695
O  O924  1  0.71946000  0.10564000  0.89544000  1.0 -0.4014457776
O  O925  1  0.62942000  0.16038000  0.95689000  1.0 -0.2903764968
O  O926  1  0.55934000  0.20855000  0.97420000  1.0 -0.5011709363
O  O927  1  0.56946000  0.22670000  0.01906000  1.0 -0.4817367859
O  O928  1  0.68211000  0.21386000  0.00171000  1.0 -0.3479304728
O  O929  1  0.72738000  0.21028000  0.96327000  1.0 -0.4817367859
O  O930  1  0.36057000  0.17261000  0.96844000  1.0 -0.2700246695
O  O931  1  0.42295000  0.19050000  0.93573000  1.0 -0.561357743
O  O932  1  0.41132000  0.14595000  0.89778000  1.0 -0.5088661963
O  O933  1  0.30447000  0.13252000  0.92123000  1.0 -0.2412746506
O  O934  1  0.25440000  0.18960000  0.94714000  1.0 -0.4513245351
O  O935  1  0.35844000  0.08196000  0.91457000  1.0 -0.2818565387
O  O936  1  0.27540000  0.26590000  0.02620000  1.0 -0.1182747193
O  O937  1  0.44409000  0.06255000  0.89816000  1.0 -0.4692943727
O  O938  1  0.31140000  0.20770000  0.99225000  1.0 -0.0787937116
O  O939  1  0.45842000  0.97355000  0.89027000  1.0 -0.4399254694
O  O940  1  0.43170000  0.21780000  0.02071000  1.0 -0.0787937116
O  O941  1  0.33964000  0.98171000  0.88459000  1.0 -0.3479304728
O  O942  1  0.42350000  0.22770000  0.97619000  1.0 -0.0694959392
O  O943  1  0.28420000  0.05198000  0.87442000  1.0 -0.4817367859
O  O944  1  0.38084000  0.94161000  0.90850000  1.0 -0.2587892061
O  O945  1  0.44780000  0.87870000  0.90359000  1.0 -0.5306952071
O  O946  1  0.43898000  0.80277000  0.92964000  1.0 -0.5088661963
O  O947  1  0.32664000  0.84122000  0.92583000  1.0 -0.2903764968
O  O948  1  0.28152000  0.89028000  0.89292000  1.0 -0.3678772773
O  O949  1  0.37096000  0.83717000  0.95498000  1.0 -0.2903764968
O  O950  1  0.45835000  0.82324000  0.96913000  1.0 -0.4399254694
O  O951  1  0.46643000  0.80146000  0.01313000  1.0 -0.4014457776
O  O952  1  0.35295000  0.77408000  0.00348000  1.0 -0.3899749752
O  O953  1  0.29525000  0.74919000  0.97189000  1.0 -0.1418345187
O  O954  1  0.38462000  0.82697000  0.02506000  1.0 -0.2700246695
O  O955  1  0.45199000  0.81846000  0.05642000  1.0 -0.519239939
O  O956  1  0.43753000  0.86549000  0.09439000  1.0 -0.5088661963
O  O957  1  0.32692000  0.85678000  0.07333000  1.0 -0.2412746506
O  O958  1  0.28813000  0.78929000  0.04800000  1.0 -0.4692943727
O  O959  1  0.36940000  0.91796000  0.07752000  1.0 -0.2903764968
O  O960  1  0.45467000  0.94940000  0.08749000  1.0 -0.4601387392
O  O961  1  0.45868000  0.03951000  0.09989000  1.0 -0.4513245351
O  O962  1  0.34463000  0.01379000  0.10980000  1.0 -0.3479304728
O  O963  1  0.29430000  0.93886000  0.11918000  1.0 -0.4513245351
O  O964  1  0.37597000  0.06146000  0.08536000  1.0 -0.2700246695
O  O965  1  0.44641000  0.12400000  0.09017000  1.0 -0.519239939
O  O966  1  0.43791000  0.19950000  0.06457000  1.0 -0.5011709363
O  O967  1  0.32465000  0.16396000  0.06981000  1.0 -0.2543333139
O  O968  1  0.28119000  0.11403000  0.10203000  1.0 -0.3899749752
O  O969  1  0.36821000  0.16918000  0.03993000  1.0 -0.232093117
O  O970  1  0.33323000  0.65570000  0.99814000  1.0 -0.6931763653
O  O971  1  0.17841000  0.06672000  0.82505000  1.0 -0.2818565387
O  O972  1  0.20011000  0.13744000  0.79717000  1.0 -0.519239939
O  O973  1  0.14993000  0.21471000  0.80427000  1.0 -0.5088661963
O  O974  1  0.14848000  0.16254000  0.85606000  1.0 -0.2818565387
O  O975  1  0.20843000  0.10106000  0.87586000  1.0 -0.4070028671
O  O976  1  0.09175000  0.17309000  0.83318000  1.0 -0.2903764968
O  O977  1  0.06497000  0.20011000  0.79155000  1.0 -0.4601387392
O  O978  1  0.97158000  0.20565000  0.78759000  1.0 -0.4817367859
O  O979  1  0.98945000  0.23115000  0.84282000  1.0 -0.3195785524
O  O980  1  0.05910000  0.26230000  0.86548000  1.0 -0.4601387392
O  O981  1  0.94510000  0.17865000  0.82744000  1.0 -0.2818565387
O  O982  1  0.87773000  0.19465000  0.79729000  1.0 -0.519239939
O  O983  1  0.79897000  0.14593000  0.80334000  1.0 -0.5306952071
O  O984  1  0.84600000  0.14817000  0.85626000  1.0 -0.2587892061
O  O985  1  0.89621000  0.21596000  0.87584000  1.0 -0.4180719937
O  O986  1  0.83871000  0.08958000  0.83498000  1.0 -0.2903764968
O  O987  1  0.82500000  0.06700000  0.79131000  1.0 -0.5088661963
O  O988  1  0.81450000  0.97462000  0.78473000  1.0 -0.4321192534
O  O989  1  0.77538000  0.98824000  0.83865000  1.0 -0.332059843
O  O990  1  0.74234000  0.05613000  0.86182000  1.0 -0.4513245351
O  O991  1  0.82905000  0.94436000  0.82439000  1.0 -0.2587892061
O  O992  1  0.80798000  0.88160000  0.79243000  1.0 -0.4817367859
O  O993  1  0.85714000  0.80210000  0.79575000  1.0 -0.4880706337
O  O994  1  0.85807000  0.84156000  0.84998000  1.0 -0.2700246695
O  O995  1  0.79362000  0.89230000  0.87163000  1.0 -0.4321192534
O  O996  1  0.91424000  0.83548000  0.82572000  1.0 -0.2963346733
O  O997  1  0.94152000  0.80436000  0.78527000  1.0 -0.4601387392
O  O998  1  0.03163000  0.78710000  0.78122000  1.0 -0.4321192534
O  O999  1  0.01698000  0.78077000  0.83836000  1.0 -0.332059843
O  O1000  1  0.94420000  0.75854000  0.86299000  1.0 -0.4601387392
O  O1001  1  0.06015000  0.82637000  0.81778000  1.0 -0.2587892061
O  O1002  1  0.11752000  0.81916000  0.78266000  1.0 -0.5394803796
O  O1003  1  0.19427000  0.87174000  0.78504000  1.0 -0.5088661963
O  O1004  1  0.16399000  0.85857000  0.84068000  1.0 -0.2412746506
O  O1005  1  0.11427000  0.79563000  0.86446000  1.0 -0.3828978416
O  O1006  1  0.16704000  0.92020000  0.82024000  1.0 -0.2903764968
O  O1007  1  0.18687000  0.95971000  0.78109000  1.0 -0.4399254694
O  O1008  1  0.20133000  0.05372000  0.78399000  1.0 -0.4321192534
O  O1009  1  0.22799000  0.01577000  0.83722000  1.0 -0.332059843
O  O1010  1  0.24956000  0.93808000  0.85785000  1.0 -0.4601387392
O  O1011  1  0.26980000  0.77540000  0.98922000  1.0 -0.206096268
O  O1012  1  0.25480000  0.89290000  0.92910000  1.0 -0.3899749752
O  O1013  1  0.45090000  0.20010000  0.02410000  1.0 -0.1872322585
O  O1014  1  0.45280000  0.20020000  0.97740000  1.0 -0.2200927621
O  O1015  1  0.33920000  0.22440000  0.99127000  1.0 -0.040805949
O  O1016  1  0.29930000  0.29570000  0.01770000  1.0 -0.3195785524
