# DDEC6 charges by PACMAN v1.1 (https://github.com/mtap-research/PACMAN-charge/)
data_IVEFAT_FSR_pacman
_symmetry_space_group_name_H-M   'P 1'
_cell_length_a   31.08330000
_cell_length_b   31.08330000
_cell_length_c   31.08330000
_cell_angle_alpha   87.62850000
_cell_angle_beta   87.62850000
_cell_angle_gamma   87.62850000
_symmetry_Int_Tables_number   1
_chemical_formula_structural   K11H350(C51O44)4
_chemical_formula_sum   'K33 H1050 C612 O528'
_cell_volume   29956.70320343
_cell_formula_units_Z   3
loop_
 _symmetry_equiv_pos_site_id
 _symmetry_equiv_pos_as_xyz
  1  'x, y, z'
loop_
 _atom_site_type_symbol
 _atom_site_label
 _atom_site_symmetry_multiplicity
 _atom_site_fract_x
 _atom_site_fract_y
 _atom_site_fract_z
 _atom_site_occupancy
 _atom_site_charge
K  K1  1  0.18345000  0.18436000  0.50314000  1.0 0.7546036715
K  K2  1  0.99007000  0.68760000  0.69408000  1.0 0.6836035723
K  K3  1  0.76187000  0.43499000  0.21057000  1.0 0.3878123934
K  K4  1  0.79044000  0.22405000  0.45429000  1.0 0.5107829645
K  K5  1  0.50314000  0.18345000  0.18436000  1.0 0.7546036715
K  K6  1  0.69408000  0.99007000  0.68760000  1.0 0.6836035723
K  K7  1  0.21057000  0.76187000  0.43499000  1.0 0.3878123934
K  K8  1  0.45429000  0.79044000  0.22405000  1.0 0.5107829645
K  K9  1  0.18436000  0.50314000  0.18345000  1.0 0.7546036715
K  K10  1  0.68760000  0.69408000  0.99007000  1.0 0.6836035723
K  K11  1  0.43499000  0.21057000  0.76187000  1.0 0.3878123934
K  K12  1  0.22405000  0.45429000  0.79044000  1.0 0.5107829645
K  K13  1  0.81564000  0.81655000  0.49686000  1.0 0.7555595512
K  K14  1  0.31240000  0.00993000  0.30592000  1.0 0.6836035723
K  K15  1  0.56501000  0.23813000  0.78943000  1.0 0.3878123934
K  K16  1  0.77595000  0.20956000  0.54571000  1.0 0.5107829645
K  K17  1  0.81655000  0.49686000  0.81564000  1.0 0.7555595512
K  K18  1  0.00993000  0.30592000  0.31240000  1.0 0.6836035723
K  K19  1  0.23813000  0.78943000  0.56501000  1.0 0.3878123934
K  K20  1  0.20956000  0.54571000  0.77595000  1.0 0.5107829645
K  K21  1  0.49686000  0.81564000  0.81655000  1.0 0.7555595512
K  K22  1  0.30592000  0.31240000  0.00993000  1.0 0.6836035723
K  K23  1  0.78943000  0.56501000  0.23813000  1.0 0.3878123934
K  K24  1  0.54571000  0.77595000  0.20956000  1.0 0.5107829645
K  K25  1  0.00000000  0.30518000  0.69482000  1.0 0.8268552496
K  K26  1  0.69482000  0.00000000  0.30518000  1.0 0.8268552496
K  K27  1  0.30518000  0.69482000  0.00000000  1.0 0.8268552496
K  K28  1  0.30129000  0.00000000  0.69871000  1.0 0.3958192939
K  K29  1  0.69871000  0.30129000  0.00000000  1.0 0.3958192939
K  K30  1  0.00000000  0.69871000  0.30129000  1.0 0.3958192939
K  K31  1  0.20315000  0.79685000  0.50000000  1.0 0.0382045358
K  K32  1  0.50000000  0.20315000  0.79685000  1.0 0.0295572667
K  K33  1  0.79685000  0.50000000  0.20315000  1.0 0.0382045358
H  H1  1  0.81953000  0.89801000  0.55909000  1.0 0.3306121747
H  H2  1  0.86472000  0.82046000  0.53982000  1.0 0.2913050452
H  H3  1  0.90087000  0.76568000  0.70069000  1.0 0.2014881975
H  H4  1  0.96003000  0.77350000  0.54914000  1.0 0.2179637443
H  H5  1  0.06373000  0.80615000  0.54480000  1.0 0.3306121747
H  H6  1  0.03130000  0.73030000  0.73348000  1.0 0.2913050452
H  H7  1  0.17791000  0.78002000  0.60026000  1.0 0.2721682141
H  H8  1  0.19893000  0.87237000  0.57945000  1.0 0.320185109
H  H9  1  0.08376000  0.90508000  0.76849000  1.0 0.3399660661
H  H10  1  0.21458000  0.95676000  0.55165000  1.0 0.3306121747
H  H11  1  0.17093000  0.04825000  0.55558000  1.0 0.3306121747
H  H12  1  0.25197000  0.02887000  0.72215000  1.0 0.2598998074
H  H13  1  0.21552000  0.12541000  0.57458000  1.0 0.3102759586
H  H14  1  0.10090000  0.20421000  0.57762000  1.0 0.320185109
H  H15  1  0.11395000  0.20759000  0.70992000  1.0 0.320185109
H  H16  1  0.01177000  0.19075000  0.54938000  1.0 0.3306121747
H  H17  1  0.91775000  0.21703000  0.58487000  1.0 0.2801788064
H  H18  1  0.92521000  0.25057000  0.75264000  1.0 0.3029028847
H  H19  1  0.85312000  0.19706000  0.58598000  1.0 0.2801788064
H  H20  1  0.81345000  0.12892000  0.57188000  1.0 0.3029028847
H  H21  1  0.78666000  0.07552000  0.74094000  1.0 0.3102759586
H  H22  1  0.79928000  0.04383000  0.54116000  1.0 0.2913050452
H  H23  1  0.80264000  0.97596000  0.53905000  1.0 0.3306121747
H  H24  1  0.74372000  0.93611000  0.73789000  1.0 0.2913050452
H  H25  1  0.78782000  0.87903000  0.64575000  1.0 0.0890090345
H  H26  1  0.81684000  0.82176000  0.60347000  1.0 0.0802501966
H  H27  1  0.88993000  0.87441000  0.58634000  1.0 0.0890090345
H  H28  1  0.88703000  0.79469000  0.63564000  1.0 0.0802501966
H  H29  1  0.89699000  0.87939000  0.66920000  1.0 0.0890090345
H  H30  1  0.88902000  0.84213000  0.73772000  1.0 0.1088627501
H  H31  1  0.93179000  0.82556000  0.71206000  1.0 0.0802501966
H  H32  1  0.94137000  0.76014000  0.62327000  1.0 0.0700561867
H  H33  1  0.00859000  0.75081000  0.59208000  1.0 0.0890090345
H  H34  1  0.02543000  0.83915000  0.59785000  1.0 0.0890090345
H  H35  1  0.06462000  0.76887000  0.64708000  1.0 0.0890090345
H  H36  1  0.00251000  0.83228000  0.67767000  1.0 0.0802501966
H  H37  1  0.00434000  0.79110000  0.74337000  1.0 0.0802501966
H  H38  1  0.05014000  0.81126000  0.73150000  1.0 0.0983353411
H  H39  1  0.11847000  0.78391000  0.68533000  1.0 0.0983353411
H  H40  1  0.18497000  0.80348000  0.66092000  1.0 0.0802501966
H  H41  1  0.14135000  0.87330000  0.61502000  1.0 0.0890090345
H  H42  1  0.19861000  0.87940000  0.68504000  1.0 0.0890090345
H  H43  1  0.10996000  0.89770000  0.69079000  1.0 0.1088627501
H  H44  1  0.23499000  0.92641000  0.64842000  1.0 0.0890090345
H  H45  1  0.24614000  0.98174000  0.60443000  1.0 0.0802501966
H  H46  1  0.15414000  0.00640000  0.60501000  1.0 0.0802501966
H  H47  1  0.22116000  0.05163000  0.64173000  1.0 0.0802501966
H  H48  1  0.15612000  0.00059000  0.68536000  1.0 0.0802501966
H  H49  1  0.18710000  0.01425000  0.74890000  1.0 0.0890090345
H  H50  1  0.17183000  0.05920000  0.72649000  1.0 0.0983353411
H  H51  1  0.20715000  0.11465000  0.65244000  1.0 0.0802501966
H  H52  1  0.18003000  0.17433000  0.61221000  1.0 0.0700561867
H  H53  1  0.10795000  0.12319000  0.59507000  1.0 0.0890090345
H  H54  1  0.10900000  0.19736000  0.64891000  1.0 0.0700561867
H  H55  1  0.09554000  0.10958000  0.67860000  1.0 0.0890090345
H  H56  1  0.10244000  0.13278000  0.74765000  1.0 0.0983353411
H  H57  1  0.06045000  0.15418000  0.72613000  1.0 0.0983353411
H  H58  1  0.05562000  0.23376000  0.63414000  1.0 0.0528535201
H  H59  1  0.99143000  0.24708000  0.60069000  1.0 0.0700561867
H  H60  1  0.97459000  0.15590000  0.60739000  1.0 0.0890090345
H  H61  1  0.92923000  0.22459000  0.65425000  1.0 0.0601919673
H  H62  1  0.98844000  0.15978000  0.69004000  1.0 0.0802501966
H  H63  1  0.98207000  0.20036000  0.75416000  1.0 0.0890090345
H  H64  1  0.93589000  0.18300000  0.74368000  1.0 0.0890090345
H  H65  1  0.87294000  0.20741000  0.68910000  1.0 0.0802501966
H  H66  1  0.81011000  0.18933000  0.65615000  1.0 0.0890090345
H  H67  1  0.86225000  0.12475000  0.61368000  1.0 0.0802501966
H  H68  1  0.79435000  0.11055000  0.67609000  1.0 0.0802501966
H  H69  1  0.88660000  0.09474000  0.68734000  1.0 0.0890090345
H  H70  1  0.86687000  0.08310000  0.75975000  1.0 0.0983353411
H  H71  1  0.84781000  0.04803000  0.73038000  1.0 0.0890090345
H  H72  1  0.76354000  0.06498000  0.64103000  1.0 0.0802501966
H  H73  1  0.75882000  0.01290000  0.59141000  1.0 0.0802501966
H  H74  1  0.84872000  0.99101000  0.60020000  1.0 0.0890090345
H  H75  1  0.77594000  0.94157000  0.63245000  1.0 0.0890090345
H  H76  1  0.83895000  0.98711000  0.67774000  1.0 0.0802501966
H  H77  1  0.80004000  0.96728000  0.74174000  1.0 0.0802501966
H  H78  1  0.82095000  0.92536000  0.71941000  1.0 0.0983353411
H  H79  1  0.95939000  0.74040000  0.54539000  1.0 0.2179637443
H  H80  1  0.94789000  0.69622000  0.42246000  1.0 0.3306121747
H  H81  1  0.76570000  0.75824000  0.42760000  1.0 0.3102759586
H  H82  1  0.94608000  0.71411000  0.33762000  1.0 0.2801788064
H  H83  1  0.94634000  0.60477000  0.30464000  1.0 0.3102759586
H  H84  1  0.78002000  0.58280000  0.30374000  1.0 0.1574092705
H  H85  1  0.96420000  0.55283000  0.34473000  1.0 0.3306121747
H  H86  1  0.99213000  0.46511000  0.33498000  1.0 0.3399660661
H  H87  1  0.78461000  0.51061000  0.26776000  1.0 0.2014881975
H  H88  1  0.96759000  0.34760000  0.31334000  1.0 0.2913050452
H  H89  1  0.96937000  0.32385000  0.39496000  1.0 0.3029028847
H  H90  1  0.76826000  0.30256000  0.37717000  1.0 0.3306121747
H  H91  1  0.94614000  0.28277000  0.47728000  1.0 0.1574092705
H  H92  1  0.92596000  0.28451000  0.58017000  1.0 0.2098333934
H  H93  1  0.78455000  0.28171000  0.59977000  1.0 0.1884474361
H  H94  1  0.92658000  0.27661000  0.64088000  1.0 0.2801788064
H  H95  1  0.93316000  0.39639000  0.70811000  1.0 0.3029028847
H  H96  1  0.75997000  0.37196000  0.71804000  1.0 0.320185109
H  H97  1  0.94691000  0.44414000  0.69557000  1.0 0.3102759586
H  H98  1  0.96158000  0.54150000  0.67004000  1.0 0.320185109
H  H99  1  0.81126000  0.55974000  0.75962000  1.0 0.2913050452
H  H100  1  0.91160000  0.60933000  0.71009000  1.0 0.3102759586
H  H101  1  0.94321000  0.68595000  0.59729000  1.0 0.320185109
H  H102  1  0.74715000  0.71183000  0.61715000  1.0 0.320185109
H  H103  1  0.87159000  0.74151000  0.56314000  1.0 0.0802501966
H  H104  1  0.91366000  0.75596000  0.50199000  1.0 0.0802501966
H  H105  1  0.91674000  0.66737000  0.48218000  1.0 0.0890090345
H  H106  1  0.86895000  0.73454000  0.43650000  1.0 0.0700561867
H  H107  1  0.82949000  0.67039000  0.49335000  1.0 0.0802501966
H  H108  1  0.76312000  0.70921000  0.48442000  1.0 0.0983353411
H  H109  1  0.78111000  0.69032000  0.43954000  1.0 0.0802501966
H  H110  1  0.84877000  0.71952000  0.37664000  1.0 0.0700561867
H  H111  1  0.88963000  0.69146000  0.31713000  1.0 0.0802501966
H  H112  1  0.92169000  0.62353000  0.37489000  1.0 0.0890090345
H  H113  1  0.86536000  0.61890000  0.30409000  1.0 0.0802501966
H  H114  1  0.84354000  0.60708000  0.39462000  1.0 0.0802501966
H  H115  1  0.79740000  0.56916000  0.36532000  1.0 0.0802501966
H  H116  1  0.77393000  0.61374000  0.37809000  1.0 0.0983353411
H  H117  1  0.90634000  0.57088000  0.27446000  1.0 0.0601919673
H  H118  1  0.95235000  0.51108000  0.27344000  1.0 0.0983353411
H  H119  1  0.92557000  0.48820000  0.35982000  1.0 0.0890090345
H  H120  1  0.90318000  0.44581000  0.28502000  1.0 0.0983353411
H  H121  1  0.84629000  0.49790000  0.33702000  1.0 0.0890090345
H  H122  1  0.81047000  0.43991000  0.31230000  1.0 0.1088627501
H  H123  1  0.82556000  0.45240000  0.26370000  1.0 0.0528535201
H  H124  1  0.86777000  0.38541000  0.29299000  1.0 0.0802501966
H  H125  1  0.90351000  0.32188000  0.31967000  1.0 0.0802501966
H  H126  1  0.92069000  0.37017000  0.39402000  1.0 0.0802501966
H  H127  1  0.86604000  0.29834000  0.38942000  1.0 0.1088627501
H  H128  1  0.84033000  0.38659000  0.40494000  1.0 0.0890090345
H  H129  1  0.79220000  0.34837000  0.43691000  1.0 0.0983353411
H  H130  1  0.77352000  0.36520000  0.39183000  1.0 0.0983353411
H  H131  1  0.84345000  0.26478000  0.44977000  1.0 0.0890090345
H  H132  1  0.88545000  0.24416000  0.50629000  1.0 0.1206588472
H  H133  1  0.90120000  0.33281000  0.51825000  1.0 0.0700561867
H  H134  1  0.84787000  0.27925000  0.57348000  1.0 0.0601919673
H  H135  1  0.82462000  0.34854000  0.51605000  1.0 0.0802501966
H  H136  1  0.78389000  0.35187000  0.58032000  1.0 0.0890090345
H  H137  1  0.75456000  0.34151000  0.54096000  1.0 0.0802501966
H  H138  1  0.84969000  0.28910000  0.63404000  1.0 0.0700561867
H  H139  1  0.89005000  0.31403000  0.68919000  1.0 0.0802501966
H  H140  1  0.91106000  0.38649000  0.63324000  1.0 0.0802501966
H  H141  1  0.85700000  0.38672000  0.71024000  1.0 0.0802501966
H  H142  1  0.82897000  0.40148000  0.62352000  1.0 0.0890090345
H  H143  1  0.75875000  0.40115000  0.65638000  1.0 0.0890090345
H  H144  1  0.78511000  0.44003000  0.67254000  1.0 0.0983353411
H  H145  1  0.87680000  0.43694000  0.74213000  1.0 0.0601919673
H  H146  1  0.91289000  0.50215000  0.74702000  1.0 0.0890090345
H  H147  1  0.90190000  0.51357000  0.65497000  1.0 0.0802501966
H  H148  1  0.86643000  0.56306000  0.72660000  1.0 0.0700561867
H  H149  1  0.82339000  0.50842000  0.66958000  1.0 0.0802501966
H  H150  1  0.76001000  0.51893000  0.71345000  1.0 0.0983353411
H  H151  1  0.77400000  0.56380000  0.69078000  1.0 0.0983353411
H  H152  1  0.83695000  0.62293000  0.71196000  1.0 0.0700561867
H  H153  1  0.87718000  0.68268000  0.68567000  1.0 0.0890090345
H  H154  1  0.90776000  0.62847000  0.61705000  1.0 0.0802501966
H  H155  1  0.85265000  0.70552000  0.61446000  1.0 0.0890090345
H  H156  1  0.82795000  0.61861000  0.59987000  1.0 0.0802501966
H  H157  1  0.75761000  0.65049000  0.59925000  1.0 0.0802501966
H  H158  1  0.78718000  0.66967000  0.56042000  1.0 0.0890090345
H  H159  1  0.85339000  0.85239000  0.74861000  1.0 0.2368654359
H  H160  1  0.16466000  0.88744000  0.79592000  1.0 0.3578700795
H  H161  1  0.36367000  0.75139000  0.62367000  1.0 0.1884474361
H  H162  1  0.48596000  0.97841000  0.32344000  1.0 0.2481333687
H  H163  1  0.56888000  0.95703000  0.34461000  1.0 0.2721682141
H  H164  1  0.52396000  0.74917000  0.30123000  1.0 0.1811540523
H  H165  1  0.89015000  0.79622000  0.71351000  1.0 0.1088627501
H  H166  1  0.37724000  0.79905000  0.57443000  1.0 0.0802501966
H  H167  1  0.32905000  0.80323000  0.58974000  1.0 0.0890090345
H  H168  1  0.39295000  0.86617000  0.29680000  1.0 0.1088627501
H  H169  1  0.44640000  0.90247000  0.26458000  1.0 0.1811540523
H  H170  1  0.51103000  0.93781000  0.25941000  1.0 0.0983353411
H  H171  1  0.52239000  0.91231000  0.34810000  1.0 0.0601919673
H  H172  1  0.57303000  0.88093000  0.27604000  1.0 0.0802501966
H  H173  1  0.51190000  0.83369000  0.32882000  1.0 0.0983353411
H  H174  1  0.57169000  0.79242000  0.30040000  1.0 0.1088627501
H  H175  1  0.55827000  0.80786000  0.25275000  1.0 -0.0379303621
H  H176  1  0.55909000  0.81953000  0.89801000  1.0 0.3306121747
H  H177  1  0.53982000  0.86472000  0.82046000  1.0 0.2913050452
H  H178  1  0.70069000  0.90087000  0.76568000  1.0 0.2014881975
H  H179  1  0.54914000  0.96003000  0.77350000  1.0 0.2179637443
H  H180  1  0.54480000  0.06373000  0.80615000  1.0 0.3306121747
H  H181  1  0.73348000  0.03130000  0.73030000  1.0 0.2913050452
H  H182  1  0.60026000  0.17791000  0.78002000  1.0 0.2721682141
H  H183  1  0.57945000  0.19893000  0.87237000  1.0 0.320185109
H  H184  1  0.76849000  0.08376000  0.90508000  1.0 0.3399660661
H  H185  1  0.55165000  0.21458000  0.95676000  1.0 0.320185109
H  H186  1  0.55558000  0.17093000  0.04825000  1.0 0.3306121747
H  H187  1  0.72215000  0.25197000  0.02887000  1.0 0.2598998074
H  H188  1  0.57458000  0.21552000  0.12541000  1.0 0.3102759586
H  H189  1  0.57762000  0.10090000  0.20421000  1.0 0.320185109
H  H190  1  0.70992000  0.11395000  0.20759000  1.0 0.320185109
H  H191  1  0.54938000  0.01177000  0.19075000  1.0 0.3306121747
H  H192  1  0.58487000  0.91775000  0.21703000  1.0 0.2801788064
H  H193  1  0.75264000  0.92521000  0.25057000  1.0 0.3029028847
H  H194  1  0.58598000  0.85312000  0.19706000  1.0 0.2801788064
H  H195  1  0.57188000  0.81345000  0.12892000  1.0 0.3029028847
H  H196  1  0.74094000  0.78666000  0.07552000  1.0 0.3102759586
H  H197  1  0.54116000  0.79928000  0.04383000  1.0 0.2913050452
H  H198  1  0.53905000  0.80264000  0.97596000  1.0 0.3306121747
H  H199  1  0.73789000  0.74372000  0.93611000  1.0 0.2913050452
H  H200  1  0.64575000  0.78782000  0.87903000  1.0 0.0890090345
H  H201  1  0.60347000  0.81684000  0.82176000  1.0 0.0802501966
H  H202  1  0.58634000  0.88993000  0.87441000  1.0 0.0890090345
H  H203  1  0.63564000  0.88703000  0.79469000  1.0 0.0802501966
H  H204  1  0.66920000  0.89699000  0.87939000  1.0 0.0890090345
H  H205  1  0.73772000  0.88902000  0.84213000  1.0 0.1088627501
H  H206  1  0.71206000  0.93179000  0.82556000  1.0 0.0802501966
H  H207  1  0.62327000  0.94137000  0.76014000  1.0 0.0700561867
H  H208  1  0.59208000  0.00859000  0.75081000  1.0 0.0890090345
H  H209  1  0.59785000  0.02543000  0.83915000  1.0 0.0890090345
H  H210  1  0.64708000  0.06462000  0.76887000  1.0 0.0890090345
H  H211  1  0.67767000  0.00251000  0.83228000  1.0 0.0802501966
H  H212  1  0.74337000  0.00434000  0.79110000  1.0 0.0802501966
H  H213  1  0.73150000  0.05014000  0.81126000  1.0 0.0983353411
H  H214  1  0.68533000  0.11847000  0.78391000  1.0 0.0983353411
H  H215  1  0.66092000  0.18497000  0.80348000  1.0 0.0802501966
H  H216  1  0.61502000  0.14135000  0.87330000  1.0 0.0890090345
H  H217  1  0.68504000  0.19861000  0.87940000  1.0 0.0890090345
H  H218  1  0.69079000  0.10996000  0.89770000  1.0 0.1088627501
H  H219  1  0.64842000  0.23499000  0.92641000  1.0 0.0890090345
H  H220  1  0.60443000  0.24614000  0.98174000  1.0 0.0802501966
H  H221  1  0.60501000  0.15414000  0.00640000  1.0 0.0802501966
H  H222  1  0.64173000  0.22116000  0.05163000  1.0 0.0802501966
H  H223  1  0.68536000  0.15612000  0.00059000  1.0 0.0802501966
H  H224  1  0.74890000  0.18710000  0.01425000  1.0 0.0890090345
H  H225  1  0.72649000  0.17183000  0.05920000  1.0 0.0983353411
H  H226  1  0.65244000  0.20715000  0.11465000  1.0 0.0802501966
H  H227  1  0.61221000  0.18003000  0.17433000  1.0 0.0700561867
H  H228  1  0.59507000  0.10795000  0.12319000  1.0 0.0890090345
H  H229  1  0.64891000  0.10900000  0.19736000  1.0 0.0700561867
H  H230  1  0.67860000  0.09554000  0.10958000  1.0 0.0890090345
H  H231  1  0.74765000  0.10244000  0.13278000  1.0 0.0983353411
H  H232  1  0.72613000  0.06045000  0.15418000  1.0 0.0983353411
H  H233  1  0.63414000  0.05562000  0.23376000  1.0 0.0528535201
H  H234  1  0.60069000  0.99143000  0.24708000  1.0 0.0700561867
H  H235  1  0.60739000  0.97459000  0.15590000  1.0 0.0890090345
H  H236  1  0.65425000  0.92923000  0.22459000  1.0 0.0601919673
H  H237  1  0.69004000  0.98844000  0.15978000  1.0 0.0802501966
H  H238  1  0.75416000  0.98207000  0.20036000  1.0 0.0890090345
H  H239  1  0.74368000  0.93589000  0.18300000  1.0 0.0890090345
H  H240  1  0.68910000  0.87294000  0.20741000  1.0 0.0802501966
H  H241  1  0.65615000  0.81011000  0.18933000  1.0 0.0890090345
H  H242  1  0.61368000  0.86225000  0.12475000  1.0 0.0802501966
H  H243  1  0.67609000  0.79435000  0.11055000  1.0 0.0802501966
H  H244  1  0.68734000  0.88660000  0.09474000  1.0 0.0890090345
H  H245  1  0.75975000  0.86687000  0.08310000  1.0 0.0983353411
H  H246  1  0.73038000  0.84781000  0.04803000  1.0 0.0890090345
H  H247  1  0.64103000  0.76354000  0.06498000  1.0 0.0802501966
H  H248  1  0.59141000  0.75882000  0.01290000  1.0 0.0802501966
H  H249  1  0.60020000  0.84872000  0.99101000  1.0 0.0890090345
H  H250  1  0.63245000  0.77594000  0.94157000  1.0 0.0890090345
H  H251  1  0.67774000  0.83895000  0.98711000  1.0 0.0802501966
H  H252  1  0.74174000  0.80004000  0.96728000  1.0 0.0802501966
H  H253  1  0.71941000  0.82095000  0.92536000  1.0 0.0983353411
H  H254  1  0.54539000  0.95939000  0.74040000  1.0 0.2179637443
H  H255  1  0.42246000  0.94789000  0.69622000  1.0 0.3306121747
H  H256  1  0.42760000  0.76570000  0.75824000  1.0 0.3102759586
H  H257  1  0.33762000  0.94608000  0.71411000  1.0 0.2801788064
H  H258  1  0.30464000  0.94634000  0.60477000  1.0 0.3102759586
H  H259  1  0.30374000  0.78002000  0.58280000  1.0 0.1574092705
H  H260  1  0.34473000  0.96420000  0.55283000  1.0 0.3306121747
H  H261  1  0.33498000  0.99213000  0.46511000  1.0 0.3399660661
H  H262  1  0.26776000  0.78461000  0.51061000  1.0 0.2014881975
H  H263  1  0.31334000  0.96759000  0.34760000  1.0 0.2913050452
H  H264  1  0.39496000  0.96937000  0.32385000  1.0 0.3029028847
H  H265  1  0.37717000  0.76826000  0.30256000  1.0 0.3306121747
H  H266  1  0.47728000  0.94614000  0.28277000  1.0 0.1574092705
H  H267  1  0.58017000  0.92596000  0.28451000  1.0 0.2098333934
H  H268  1  0.59977000  0.78455000  0.28171000  1.0 0.1884474361
H  H269  1  0.64088000  0.92658000  0.27661000  1.0 0.2801788064
H  H270  1  0.70811000  0.93316000  0.39639000  1.0 0.3029028847
H  H271  1  0.71804000  0.75997000  0.37196000  1.0 0.320185109
H  H272  1  0.69557000  0.94691000  0.44414000  1.0 0.3102759586
H  H273  1  0.67004000  0.96158000  0.54150000  1.0 0.320185109
H  H274  1  0.75962000  0.81126000  0.55974000  1.0 0.2913050452
H  H275  1  0.71009000  0.91160000  0.60933000  1.0 0.3102759586
H  H276  1  0.59729000  0.94321000  0.68595000  1.0 0.320185109
H  H277  1  0.61715000  0.74715000  0.71183000  1.0 0.320185109
H  H278  1  0.56314000  0.87159000  0.74151000  1.0 0.0802501966
H  H279  1  0.50199000  0.91366000  0.75596000  1.0 0.0802501966
H  H280  1  0.48218000  0.91674000  0.66737000  1.0 0.0890090345
H  H281  1  0.43650000  0.86895000  0.73454000  1.0 0.0700561867
H  H282  1  0.49335000  0.82949000  0.67039000  1.0 0.0802501966
H  H283  1  0.48442000  0.76312000  0.70921000  1.0 0.0983353411
H  H284  1  0.43954000  0.78111000  0.69032000  1.0 0.0802501966
H  H285  1  0.37664000  0.84877000  0.71952000  1.0 0.0700561867
H  H286  1  0.31713000  0.88963000  0.69146000  1.0 0.0802501966
H  H287  1  0.37489000  0.92169000  0.62353000  1.0 0.0890090345
H  H288  1  0.30409000  0.86536000  0.61890000  1.0 0.0802501966
H  H289  1  0.39462000  0.84354000  0.60708000  1.0 0.0802501966
H  H290  1  0.36532000  0.79740000  0.56916000  1.0 0.0802501966
H  H291  1  0.37809000  0.77393000  0.61374000  1.0 0.0983353411
H  H292  1  0.27446000  0.90634000  0.57088000  1.0 0.0601919673
H  H293  1  0.27344000  0.95235000  0.51108000  1.0 0.0983353411
H  H294  1  0.35982000  0.92557000  0.48820000  1.0 0.0890090345
H  H295  1  0.28502000  0.90318000  0.44581000  1.0 0.0983353411
H  H296  1  0.33702000  0.84629000  0.49790000  1.0 0.0890090345
H  H297  1  0.31230000  0.81047000  0.43991000  1.0 0.1088627501
H  H298  1  0.26370000  0.82556000  0.45240000  1.0 0.0528535201
H  H299  1  0.29299000  0.86777000  0.38541000  1.0 0.0802501966
H  H300  1  0.31967000  0.90351000  0.32188000  1.0 0.0802501966
H  H301  1  0.39402000  0.92069000  0.37017000  1.0 0.0802501966
H  H302  1  0.38942000  0.86604000  0.29834000  1.0 0.1088627501
H  H303  1  0.40494000  0.84033000  0.38659000  1.0 0.0890090345
H  H304  1  0.43691000  0.79220000  0.34837000  1.0 0.0983353411
H  H305  1  0.39183000  0.77352000  0.36520000  1.0 0.0983353411
H  H306  1  0.44977000  0.84345000  0.26478000  1.0 0.0890090345
H  H307  1  0.50629000  0.88545000  0.24416000  1.0 0.1206588472
H  H308  1  0.51825000  0.90120000  0.33281000  1.0 0.0700561867
H  H309  1  0.57348000  0.84787000  0.27925000  1.0 0.0601919673
H  H310  1  0.51605000  0.82462000  0.34854000  1.0 0.0802501966
H  H311  1  0.58032000  0.78389000  0.35187000  1.0 0.0890090345
H  H312  1  0.54096000  0.75456000  0.34151000  1.0 0.0802501966
H  H313  1  0.63404000  0.84969000  0.28910000  1.0 0.0700561867
H  H314  1  0.68919000  0.89005000  0.31403000  1.0 0.0802501966
H  H315  1  0.63324000  0.91106000  0.38649000  1.0 0.0802501966
H  H316  1  0.71024000  0.85700000  0.38672000  1.0 0.0802501966
H  H317  1  0.62352000  0.82897000  0.40148000  1.0 0.0890090345
H  H318  1  0.65638000  0.75875000  0.40115000  1.0 0.0890090345
H  H319  1  0.67254000  0.78511000  0.44003000  1.0 0.0983353411
H  H320  1  0.74213000  0.87680000  0.43694000  1.0 0.0601919673
H  H321  1  0.74702000  0.91289000  0.50215000  1.0 0.0890090345
H  H322  1  0.65497000  0.90190000  0.51357000  1.0 0.0802501966
H  H323  1  0.72660000  0.86643000  0.56306000  1.0 0.0700561867
H  H324  1  0.66958000  0.82339000  0.50842000  1.0 0.0802501966
H  H325  1  0.71345000  0.76001000  0.51893000  1.0 0.0983353411
H  H326  1  0.69078000  0.77400000  0.56380000  1.0 0.0983353411
H  H327  1  0.71196000  0.83695000  0.62293000  1.0 0.0700561867
H  H328  1  0.68567000  0.87718000  0.68268000  1.0 0.0802501966
H  H329  1  0.61705000  0.90776000  0.62847000  1.0 0.0890090345
H  H330  1  0.61446000  0.85265000  0.70552000  1.0 0.0890090345
H  H331  1  0.59987000  0.82795000  0.61861000  1.0 0.0802501966
H  H332  1  0.59925000  0.75761000  0.65049000  1.0 0.0802501966
H  H333  1  0.56042000  0.78718000  0.66967000  1.0 0.0890090345
H  H334  1  0.74861000  0.85339000  0.85239000  1.0 0.2368654359
H  H335  1  0.79592000  0.16466000  0.88744000  1.0 0.3578700795
H  H336  1  0.62367000  0.36367000  0.75139000  1.0 0.1884474361
H  H337  1  0.32344000  0.48596000  0.97841000  1.0 0.2481333687
H  H338  1  0.34461000  0.56888000  0.95703000  1.0 0.2721682141
H  H339  1  0.30123000  0.52396000  0.74917000  1.0 0.1811540523
H  H340  1  0.71351000  0.89015000  0.79622000  1.0 0.1088627501
H  H341  1  0.57443000  0.37724000  0.79905000  1.0 0.0802501966
H  H342  1  0.58974000  0.32905000  0.80323000  1.0 0.0890090345
H  H343  1  0.29680000  0.39295000  0.86617000  1.0 0.1088627501
H  H344  1  0.26458000  0.44640000  0.90247000  1.0 0.1811540523
H  H345  1  0.25941000  0.51103000  0.93781000  1.0 0.0983353411
H  H346  1  0.34810000  0.52239000  0.91231000  1.0 0.0601919673
H  H347  1  0.27604000  0.57303000  0.88093000  1.0 0.0802501966
H  H348  1  0.32882000  0.51190000  0.83369000  1.0 0.0983353411
H  H349  1  0.30040000  0.57169000  0.79242000  1.0 0.1088627501
H  H350  1  0.25275000  0.55827000  0.80786000  1.0 -0.0323046153
H  H351  1  0.89801000  0.55909000  0.81953000  1.0 0.3306121747
H  H352  1  0.82046000  0.53982000  0.86472000  1.0 0.2913050452
H  H353  1  0.76568000  0.70069000  0.90087000  1.0 0.2014881975
H  H354  1  0.77350000  0.54914000  0.96003000  1.0 0.2179637443
H  H355  1  0.80615000  0.54480000  0.06373000  1.0 0.3306121747
H  H356  1  0.73030000  0.73348000  0.03130000  1.0 0.2913050452
H  H357  1  0.78002000  0.60026000  0.17791000  1.0 0.2721682141
H  H358  1  0.87237000  0.57945000  0.19893000  1.0 0.320185109
H  H359  1  0.90508000  0.76849000  0.08376000  1.0 0.3399660661
H  H360  1  0.95676000  0.55165000  0.21458000  1.0 0.3306121747
H  H361  1  0.04825000  0.55558000  0.17093000  1.0 0.3306121747
H  H362  1  0.02887000  0.72215000  0.25197000  1.0 0.2598998074
H  H363  1  0.12541000  0.57458000  0.21552000  1.0 0.3102759586
H  H364  1  0.20421000  0.57762000  0.10090000  1.0 0.320185109
H  H365  1  0.20759000  0.70992000  0.11395000  1.0 0.320185109
H  H366  1  0.19075000  0.54938000  0.01177000  1.0 0.3306121747
H  H367  1  0.21703000  0.58487000  0.91775000  1.0 0.2801788064
H  H368  1  0.25057000  0.75264000  0.92521000  1.0 0.3029028847
H  H369  1  0.19706000  0.58598000  0.85312000  1.0 0.2801788064
H  H370  1  0.12892000  0.57188000  0.81345000  1.0 0.3029028847
H  H371  1  0.07552000  0.74094000  0.78666000  1.0 0.3102759586
H  H372  1  0.04383000  0.54116000  0.79928000  1.0 0.2913050452
H  H373  1  0.97596000  0.53905000  0.80264000  1.0 0.3306121747
H  H374  1  0.93611000  0.73789000  0.74372000  1.0 0.2913050452
H  H375  1  0.87903000  0.64575000  0.78782000  1.0 0.0890090345
H  H376  1  0.82176000  0.60347000  0.81684000  1.0 0.0802501966
H  H377  1  0.87441000  0.58634000  0.88993000  1.0 0.0890090345
H  H378  1  0.79469000  0.63564000  0.88703000  1.0 0.0802501966
H  H379  1  0.87939000  0.66920000  0.89699000  1.0 0.0890090345
H  H380  1  0.84213000  0.73772000  0.88902000  1.0 0.1088627501
H  H381  1  0.82556000  0.71206000  0.93179000  1.0 0.0802501966
H  H382  1  0.76014000  0.62327000  0.94137000  1.0 0.0700561867
H  H383  1  0.75081000  0.59208000  0.00859000  1.0 0.0890090345
H  H384  1  0.83915000  0.59785000  0.02543000  1.0 0.0890090345
H  H385  1  0.76887000  0.64708000  0.06462000  1.0 0.0890090345
H  H386  1  0.83228000  0.67767000  0.00251000  1.0 0.0802501966
H  H387  1  0.79110000  0.74337000  0.00434000  1.0 0.0802501966
H  H388  1  0.81126000  0.73150000  0.05014000  1.0 0.0983353411
H  H389  1  0.78391000  0.68533000  0.11847000  1.0 0.0983353411
H  H390  1  0.80348000  0.66092000  0.18497000  1.0 0.0802501966
H  H391  1  0.87330000  0.61502000  0.14135000  1.0 0.0890090345
H  H392  1  0.87940000  0.68504000  0.19861000  1.0 0.0890090345
H  H393  1  0.89770000  0.69079000  0.10996000  1.0 0.1088627501
H  H394  1  0.92641000  0.64842000  0.23499000  1.0 0.0890090345
H  H395  1  0.98174000  0.60443000  0.24614000  1.0 0.0802501966
H  H396  1  0.00640000  0.60501000  0.15414000  1.0 0.0802501966
H  H397  1  0.05163000  0.64173000  0.22116000  1.0 0.0802501966
H  H398  1  0.00059000  0.68536000  0.15612000  1.0 0.0802501966
H  H399  1  0.01425000  0.74890000  0.18710000  1.0 0.0890090345
H  H400  1  0.05920000  0.72649000  0.17183000  1.0 0.0983353411
H  H401  1  0.11465000  0.65244000  0.20715000  1.0 0.0802501966
H  H402  1  0.17433000  0.61221000  0.18003000  1.0 0.0700561867
H  H403  1  0.12319000  0.59507000  0.10795000  1.0 0.0890090345
H  H404  1  0.19736000  0.64891000  0.10900000  1.0 0.0700561867
H  H405  1  0.10958000  0.67860000  0.09554000  1.0 0.0890090345
H  H406  1  0.13278000  0.74765000  0.10244000  1.0 0.0983353411
H  H407  1  0.15418000  0.72613000  0.06045000  1.0 0.0983353411
H  H408  1  0.23376000  0.63414000  0.05562000  1.0 0.0528535201
H  H409  1  0.24708000  0.60069000  0.99143000  1.0 0.0700561867
H  H410  1  0.15590000  0.60739000  0.97459000  1.0 0.0890090345
H  H411  1  0.22459000  0.65425000  0.92923000  1.0 0.0601919673
H  H412  1  0.15978000  0.69004000  0.98844000  1.0 0.0802501966
H  H413  1  0.20036000  0.75416000  0.98207000  1.0 0.0890090345
H  H414  1  0.18300000  0.74368000  0.93589000  1.0 0.0890090345
H  H415  1  0.20741000  0.68910000  0.87294000  1.0 0.0802501966
H  H416  1  0.18933000  0.65615000  0.81011000  1.0 0.0890090345
H  H417  1  0.12475000  0.61368000  0.86225000  1.0 0.0802501966
H  H418  1  0.11055000  0.67609000  0.79435000  1.0 0.0802501966
H  H419  1  0.09474000  0.68734000  0.88660000  1.0 0.0890090345
H  H420  1  0.08310000  0.75975000  0.86687000  1.0 0.0983353411
H  H421  1  0.04803000  0.73038000  0.84781000  1.0 0.0890090345
H  H422  1  0.06498000  0.64103000  0.76354000  1.0 0.0802501966
H  H423  1  0.01290000  0.59141000  0.75882000  1.0 0.0802501966
H  H424  1  0.99101000  0.60020000  0.84872000  1.0 0.0890090345
H  H425  1  0.94157000  0.63245000  0.77594000  1.0 0.0890090345
H  H426  1  0.98711000  0.67774000  0.83895000  1.0 0.0802501966
H  H427  1  0.96728000  0.74174000  0.80004000  1.0 0.0802501966
H  H428  1  0.92536000  0.71941000  0.82095000  1.0 0.0983353411
H  H429  1  0.74040000  0.54539000  0.95939000  1.0 0.2179637443
H  H430  1  0.69622000  0.42246000  0.94789000  1.0 0.3306121747
H  H431  1  0.75824000  0.42760000  0.76570000  1.0 0.3102759586
H  H432  1  0.71411000  0.33762000  0.94608000  1.0 0.2801788064
H  H433  1  0.60477000  0.30464000  0.94634000  1.0 0.3102759586
H  H434  1  0.58280000  0.30374000  0.78002000  1.0 0.1574092705
H  H435  1  0.55283000  0.34473000  0.96420000  1.0 0.3306121747
H  H436  1  0.46511000  0.33498000  0.99213000  1.0 0.3399660661
H  H437  1  0.51061000  0.26776000  0.78461000  1.0 0.2014881975
H  H438  1  0.34760000  0.31334000  0.96759000  1.0 0.2913050452
H  H439  1  0.32385000  0.39496000  0.96937000  1.0 0.3029028847
H  H440  1  0.30256000  0.37717000  0.76826000  1.0 0.3306121747
H  H441  1  0.28277000  0.47728000  0.94614000  1.0 0.1574092705
H  H442  1  0.28451000  0.58017000  0.92596000  1.0 0.2098333934
H  H443  1  0.28171000  0.59977000  0.78455000  1.0 0.1884474361
H  H444  1  0.27661000  0.64088000  0.92658000  1.0 0.2801788064
H  H445  1  0.39639000  0.70811000  0.93316000  1.0 0.3029028847
H  H446  1  0.37196000  0.71804000  0.75997000  1.0 0.320185109
H  H447  1  0.44414000  0.69557000  0.94691000  1.0 0.3102759586
H  H448  1  0.54150000  0.67004000  0.96158000  1.0 0.320185109
H  H449  1  0.55974000  0.75962000  0.81126000  1.0 0.2913050452
H  H450  1  0.60933000  0.71009000  0.91160000  1.0 0.3102759586
H  H451  1  0.68595000  0.59729000  0.94321000  1.0 0.320185109
H  H452  1  0.71183000  0.61715000  0.74715000  1.0 0.320185109
H  H453  1  0.74151000  0.56314000  0.87159000  1.0 0.0802501966
H  H454  1  0.75596000  0.50199000  0.91366000  1.0 0.0802501966
H  H455  1  0.66737000  0.48218000  0.91674000  1.0 0.0890090345
H  H456  1  0.73454000  0.43650000  0.86895000  1.0 0.0700561867
H  H457  1  0.67039000  0.49335000  0.82949000  1.0 0.0802501966
H  H458  1  0.70921000  0.48442000  0.76312000  1.0 0.0983353411
H  H459  1  0.69032000  0.43954000  0.78111000  1.0 0.0802501966
H  H460  1  0.71952000  0.37664000  0.84877000  1.0 0.0700561867
H  H461  1  0.69146000  0.31713000  0.88963000  1.0 0.0802501966
H  H462  1  0.62353000  0.37489000  0.92169000  1.0 0.0890090345
H  H463  1  0.61890000  0.30409000  0.86536000  1.0 0.0802501966
H  H464  1  0.60708000  0.39462000  0.84354000  1.0 0.0802501966
H  H465  1  0.56916000  0.36532000  0.79740000  1.0 0.0802501966
H  H466  1  0.61374000  0.37809000  0.77393000  1.0 0.0890090345
H  H467  1  0.57088000  0.27446000  0.90634000  1.0 0.0601919673
H  H468  1  0.51108000  0.27344000  0.95235000  1.0 0.0983353411
H  H469  1  0.48820000  0.35982000  0.92557000  1.0 0.0890090345
H  H470  1  0.44581000  0.28502000  0.90318000  1.0 0.0983353411
H  H471  1  0.49790000  0.33702000  0.84629000  1.0 0.0890090345
H  H472  1  0.43991000  0.31230000  0.81047000  1.0 0.1088627501
H  H473  1  0.45240000  0.26370000  0.82556000  1.0 0.0528535201
H  H474  1  0.38541000  0.29299000  0.86777000  1.0 0.0802501966
H  H475  1  0.32188000  0.31967000  0.90351000  1.0 0.0802501966
H  H476  1  0.37017000  0.39402000  0.92069000  1.0 0.0802501966
H  H477  1  0.29834000  0.38942000  0.86604000  1.0 0.1088627501
H  H478  1  0.38659000  0.40494000  0.84033000  1.0 0.0890090345
H  H479  1  0.34837000  0.43691000  0.79220000  1.0 0.0983353411
H  H480  1  0.36520000  0.39183000  0.77352000  1.0 0.0983353411
H  H481  1  0.26478000  0.44977000  0.84345000  1.0 0.0890090345
H  H482  1  0.24416000  0.50629000  0.88545000  1.0 0.1206588472
H  H483  1  0.33281000  0.51825000  0.90120000  1.0 0.0700561867
H  H484  1  0.27925000  0.57348000  0.84787000  1.0 0.0601919673
H  H485  1  0.34854000  0.51605000  0.82462000  1.0 0.0802501966
H  H486  1  0.35187000  0.58032000  0.78389000  1.0 0.0890090345
H  H487  1  0.34151000  0.54096000  0.75456000  1.0 0.0802501966
H  H488  1  0.28910000  0.63404000  0.84969000  1.0 0.0700561867
H  H489  1  0.31403000  0.68919000  0.89005000  1.0 0.0802501966
H  H490  1  0.38649000  0.63324000  0.91106000  1.0 0.0802501966
H  H491  1  0.38672000  0.71024000  0.85700000  1.0 0.0802501966
H  H492  1  0.40148000  0.62352000  0.82897000  1.0 0.0890090345
H  H493  1  0.40115000  0.65638000  0.75875000  1.0 0.0890090345
H  H494  1  0.44003000  0.67254000  0.78511000  1.0 0.0983353411
H  H495  1  0.43694000  0.74213000  0.87680000  1.0 0.0601919673
H  H496  1  0.50215000  0.74702000  0.91289000  1.0 0.0890090345
H  H497  1  0.51357000  0.65497000  0.90190000  1.0 0.0802501966
H  H498  1  0.56306000  0.72660000  0.86643000  1.0 0.0601919673
H  H499  1  0.50842000  0.66958000  0.82339000  1.0 0.0802501966
H  H500  1  0.51893000  0.71345000  0.76001000  1.0 0.0983353411
H  H501  1  0.56380000  0.69078000  0.77400000  1.0 0.0983353411
H  H502  1  0.62293000  0.71196000  0.83695000  1.0 0.0700561867
H  H503  1  0.68268000  0.68567000  0.87718000  1.0 0.0802501966
H  H504  1  0.62847000  0.61705000  0.90776000  1.0 0.0802501966
H  H505  1  0.70552000  0.61446000  0.85265000  1.0 0.0890090345
H  H506  1  0.61861000  0.59987000  0.82795000  1.0 0.0802501966
H  H507  1  0.65049000  0.59925000  0.75761000  1.0 0.0802501966
H  H508  1  0.66967000  0.56042000  0.78718000  1.0 0.0890090345
H  H509  1  0.85239000  0.74861000  0.85339000  1.0 0.2368654359
H  H510  1  0.88744000  0.79592000  0.16466000  1.0 0.3578700795
H  H511  1  0.75139000  0.62367000  0.36367000  1.0 0.1884474361
H  H512  1  0.97841000  0.32344000  0.48596000  1.0 0.2481333687
H  H513  1  0.95703000  0.34461000  0.56888000  1.0 0.2721682141
H  H514  1  0.74917000  0.30123000  0.52396000  1.0 0.1811540523
H  H515  1  0.79622000  0.71351000  0.89015000  1.0 0.1088627501
H  H516  1  0.79905000  0.57443000  0.37724000  1.0 0.0802501966
H  H517  1  0.80323000  0.58974000  0.32905000  1.0 0.0890090345
H  H518  1  0.86617000  0.29680000  0.39295000  1.0 0.1088627501
H  H519  1  0.90247000  0.26458000  0.44640000  1.0 0.1811540523
H  H520  1  0.93781000  0.25941000  0.51103000  1.0 0.0983353411
H  H521  1  0.91231000  0.34810000  0.52239000  1.0 0.0601919673
H  H522  1  0.88093000  0.27604000  0.57303000  1.0 0.0802501966
H  H523  1  0.83369000  0.32882000  0.51190000  1.0 0.0983353411
H  H524  1  0.79242000  0.30040000  0.57169000  1.0 0.1088627501
H  H525  1  0.80786000  0.25275000  0.55827000  1.0 -0.0323046153
H  H526  1  0.10199000  0.18047000  0.44091000  1.0 0.3306121747
H  H527  1  0.17954000  0.13528000  0.46018000  1.0 0.2913050452
H  H528  1  0.23432000  0.09913000  0.29931000  1.0 0.1884474361
H  H529  1  0.22650000  0.03997000  0.45086000  1.0 0.2179637443
H  H530  1  0.19385000  0.93627000  0.45520000  1.0 0.3306121747
H  H531  1  0.26970000  0.96870000  0.26652000  1.0 0.2913050452
H  H532  1  0.21998000  0.82209000  0.39974000  1.0 0.2721682141
H  H533  1  0.12763000  0.80107000  0.42055000  1.0 0.320185109
H  H534  1  0.09492000  0.91624000  0.23151000  1.0 0.3399660661
H  H535  1  0.04324000  0.78542000  0.44835000  1.0 0.3306121747
H  H536  1  0.95175000  0.82907000  0.44442000  1.0 0.3306121747
H  H537  1  0.97113000  0.74803000  0.27785000  1.0 0.2598998074
H  H538  1  0.87459000  0.78448000  0.42542000  1.0 0.3102759586
H  H539  1  0.79579000  0.89910000  0.42238000  1.0 0.320185109
H  H540  1  0.79241000  0.88605000  0.29008000  1.0 0.320185109
H  H541  1  0.80925000  0.98823000  0.45062000  1.0 0.3306121747
H  H542  1  0.78297000  0.08225000  0.41513000  1.0 0.2801788064
H  H543  1  0.74943000  0.07479000  0.24736000  1.0 0.3029028847
H  H544  1  0.80294000  0.14688000  0.41402000  1.0 0.2801788064
H  H545  1  0.87108000  0.18655000  0.42812000  1.0 0.3029028847
H  H546  1  0.92448000  0.21334000  0.25906000  1.0 0.3102759586
H  H547  1  0.95617000  0.20072000  0.45884000  1.0 0.2913050452
H  H548  1  0.02404000  0.19736000  0.46095000  1.0 0.3306121747
H  H549  1  0.06389000  0.25628000  0.26211000  1.0 0.2913050452
H  H550  1  0.12097000  0.21218000  0.35425000  1.0 0.0890090345
H  H551  1  0.17824000  0.18316000  0.39653000  1.0 0.0802501966
H  H552  1  0.12559000  0.11007000  0.41366000  1.0 0.0890090345
H  H553  1  0.20531000  0.11297000  0.36436000  1.0 0.0802501966
H  H554  1  0.12061000  0.10301000  0.33080000  1.0 0.0890090345
H  H555  1  0.15787000  0.11098000  0.26228000  1.0 0.1088627501
H  H556  1  0.17444000  0.06821000  0.28794000  1.0 0.0802501966
H  H557  1  0.23986000  0.05863000  0.37673000  1.0 0.0700561867
H  H558  1  0.24919000  0.99141000  0.40792000  1.0 0.0890090345
H  H559  1  0.16085000  0.97457000  0.40215000  1.0 0.0890090345
H  H560  1  0.23113000  0.93538000  0.35292000  1.0 0.0890090345
H  H561  1  0.16772000  0.99749000  0.32233000  1.0 0.0802501966
H  H562  1  0.20890000  0.99566000  0.25663000  1.0 0.0802501966
H  H563  1  0.18874000  0.94986000  0.26850000  1.0 0.0983353411
H  H564  1  0.21609000  0.88153000  0.31467000  1.0 0.0983353411
H  H565  1  0.19652000  0.81503000  0.33908000  1.0 0.0802501966
H  H566  1  0.12670000  0.85865000  0.38498000  1.0 0.0890090345
H  H567  1  0.12060000  0.80139000  0.31496000  1.0 0.0890090345
H  H568  1  0.10230000  0.89004000  0.30921000  1.0 0.1088627501
H  H569  1  0.07359000  0.76501000  0.35158000  1.0 0.0890090345
H  H570  1  0.01826000  0.75386000  0.39557000  1.0 0.0802501966
H  H571  1  0.99360000  0.84586000  0.39499000  1.0 0.0802501966
H  H572  1  0.94837000  0.77884000  0.35827000  1.0 0.0802501966
H  H573  1  0.99941000  0.84388000  0.31464000  1.0 0.0802501966
H  H574  1  0.98575000  0.81290000  0.25110000  1.0 0.0890090345
H  H575  1  0.94080000  0.82817000  0.27351000  1.0 0.0983353411
H  H576  1  0.88535000  0.79285000  0.34756000  1.0 0.0802501966
H  H577  1  0.82567000  0.81997000  0.38779000  1.0 0.0700561867
H  H578  1  0.87681000  0.89205000  0.40493000  1.0 0.0890090345
H  H579  1  0.80264000  0.89100000  0.35109000  1.0 0.0700561867
H  H580  1  0.89042000  0.90446000  0.32140000  1.0 0.0890090345
H  H581  1  0.86722000  0.89756000  0.25235000  1.0 0.0983353411
H  H582  1  0.84582000  0.93955000  0.27387000  1.0 0.0983353411
H  H583  1  0.76624000  0.94438000  0.36586000  1.0 0.0528535201
H  H584  1  0.75292000  0.00857000  0.39931000  1.0 0.0700561867
H  H585  1  0.84410000  0.02541000  0.39261000  1.0 0.0890090345
H  H586  1  0.77541000  0.07077000  0.34575000  1.0 0.0601919673
H  H587  1  0.84022000  0.01156000  0.30996000  1.0 0.0802501966
H  H588  1  0.79964000  0.01793000  0.24584000  1.0 0.0890090345
H  H589  1  0.81700000  0.06411000  0.25632000  1.0 0.0890090345
H  H590  1  0.79259000  0.12706000  0.31090000  1.0 0.0802501966
H  H591  1  0.81067000  0.18989000  0.34385000  1.0 0.0890090345
H  H592  1  0.87525000  0.13775000  0.38632000  1.0 0.0802501966
H  H593  1  0.88945000  0.20565000  0.32391000  1.0 0.0802501966
H  H594  1  0.90526000  0.11340000  0.31266000  1.0 0.0890090345
H  H595  1  0.91690000  0.13313000  0.24025000  1.0 0.0983353411
H  H596  1  0.95197000  0.15219000  0.26962000  1.0 0.0890090345
H  H597  1  0.93502000  0.23646000  0.35897000  1.0 0.0802501966
H  H598  1  0.98710000  0.24118000  0.40859000  1.0 0.0802501966
H  H599  1  0.00899000  0.15128000  0.39980000  1.0 0.0890090345
H  H600  1  0.05843000  0.22406000  0.36755000  1.0 0.0890090345
H  H601  1  0.01289000  0.16105000  0.32226000  1.0 0.0802501966
H  H602  1  0.03272000  0.19996000  0.25826000  1.0 0.0802501966
H  H603  1  0.07464000  0.17905000  0.28059000  1.0 0.0983353411
H  H604  1  0.25960000  0.04061000  0.45461000  1.0 0.2179637443
H  H605  1  0.30378000  0.05211000  0.57754000  1.0 0.3306121747
H  H606  1  0.24176000  0.23430000  0.57240000  1.0 0.3102759586
H  H607  1  0.28589000  0.05392000  0.66238000  1.0 0.2801788064
H  H608  1  0.39523000  0.05366000  0.69536000  1.0 0.3102759586
H  H609  1  0.41720000  0.21998000  0.69626000  1.0 0.1574092705
H  H610  1  0.44717000  0.03580000  0.65527000  1.0 0.3306121747
H  H611  1  0.53489000  0.00787000  0.66502000  1.0 0.3399660661
H  H612  1  0.48939000  0.21539000  0.73224000  1.0 0.2014881975
H  H613  1  0.65240000  0.03241000  0.68666000  1.0 0.2913050452
H  H614  1  0.67615000  0.03063000  0.60504000  1.0 0.3029028847
H  H615  1  0.69744000  0.23174000  0.62283000  1.0 0.3306121747
H  H616  1  0.71723000  0.05386000  0.52272000  1.0 0.1574092705
H  H617  1  0.71549000  0.07404000  0.41983000  1.0 0.2098333934
H  H618  1  0.71829000  0.21545000  0.40023000  1.0 0.1884474361
H  H619  1  0.72339000  0.07342000  0.35912000  1.0 0.2801788064
H  H620  1  0.60361000  0.06684000  0.29189000  1.0 0.3029028847
H  H621  1  0.62804000  0.24003000  0.28196000  1.0 0.320185109
H  H622  1  0.55586000  0.05309000  0.30443000  1.0 0.3102759586
H  H623  1  0.45850000  0.03842000  0.32996000  1.0 0.320185109
H  H624  1  0.44026000  0.18874000  0.24038000  1.0 0.2913050452
H  H625  1  0.39067000  0.08840000  0.28991000  1.0 0.3102759586
H  H626  1  0.31405000  0.05679000  0.40271000  1.0 0.320185109
H  H627  1  0.28817000  0.25285000  0.38285000  1.0 0.320185109
H  H628  1  0.25849000  0.12841000  0.43686000  1.0 0.0802501966
H  H629  1  0.24404000  0.08634000  0.49801000  1.0 0.0802501966
H  H630  1  0.33263000  0.08326000  0.51782000  1.0 0.0890090345
H  H631  1  0.26546000  0.13105000  0.56350000  1.0 0.0700561867
H  H632  1  0.32961000  0.17051000  0.50665000  1.0 0.0802501966
H  H633  1  0.29079000  0.23688000  0.51558000  1.0 0.0983353411
H  H634  1  0.30968000  0.21889000  0.56046000  1.0 0.0802501966
H  H635  1  0.28048000  0.15123000  0.62336000  1.0 0.0700561867
H  H636  1  0.30854000  0.11037000  0.68287000  1.0 0.0802501966
H  H637  1  0.37647000  0.07831000  0.62511000  1.0 0.0890090345
H  H638  1  0.38110000  0.13464000  0.69591000  1.0 0.0802501966
H  H639  1  0.39292000  0.15646000  0.60538000  1.0 0.0802501966
H  H640  1  0.43084000  0.20260000  0.63468000  1.0 0.0802501966
H  H641  1  0.38626000  0.22607000  0.62191000  1.0 0.0890090345
H  H642  1  0.42912000  0.09366000  0.72554000  1.0 0.0601919673
H  H643  1  0.48892000  0.04765000  0.72656000  1.0 0.0983353411
H  H644  1  0.51180000  0.07443000  0.64018000  1.0 0.0890090345
H  H645  1  0.55419000  0.09682000  0.71498000  1.0 0.0983353411
H  H646  1  0.50210000  0.15371000  0.66298000  1.0 0.0890090345
H  H647  1  0.56009000  0.18953000  0.68770000  1.0 0.1088627501
H  H648  1  0.54760000  0.17444000  0.73630000  1.0 0.0528535201
H  H649  1  0.61459000  0.13223000  0.70701000  1.0 0.0802501966
H  H650  1  0.67812000  0.09649000  0.68033000  1.0 0.0802501966
H  H651  1  0.62983000  0.07931000  0.60598000  1.0 0.0802501966
H  H652  1  0.70166000  0.13396000  0.61058000  1.0 0.1088627501
H  H653  1  0.61341000  0.15967000  0.59506000  1.0 0.0890090345
H  H654  1  0.65163000  0.20780000  0.56309000  1.0 0.0983353411
H  H655  1  0.63480000  0.22648000  0.60817000  1.0 0.0983353411
H  H656  1  0.73522000  0.15655000  0.55023000  1.0 0.0890090345
H  H657  1  0.75584000  0.11455000  0.49371000  1.0 0.1206588472
H  H658  1  0.66719000  0.09880000  0.48175000  1.0 0.0700561867
H  H659  1  0.72075000  0.15213000  0.42652000  1.0 0.0601919673
H  H660  1  0.65146000  0.17538000  0.48395000  1.0 0.0802501966
H  H661  1  0.64813000  0.21611000  0.41968000  1.0 0.0890090345
H  H662  1  0.65849000  0.24544000  0.45904000  1.0 0.0802501966
H  H663  1  0.71090000  0.15031000  0.36596000  1.0 0.0700561867
H  H664  1  0.68597000  0.10995000  0.31081000  1.0 0.0802501966
H  H665  1  0.61351000  0.08894000  0.36676000  1.0 0.0802501966
H  H666  1  0.61328000  0.14300000  0.28976000  1.0 0.0802501966
H  H667  1  0.59852000  0.17103000  0.37648000  1.0 0.0890090345
H  H668  1  0.59885000  0.24125000  0.34362000  1.0 0.0890090345
H  H669  1  0.55997000  0.21489000  0.32746000  1.0 0.0983353411
H  H670  1  0.56306000  0.12320000  0.25787000  1.0 0.0601919673
H  H671  1  0.49785000  0.08711000  0.25298000  1.0 0.0890090345
H  H672  1  0.48643000  0.09810000  0.34503000  1.0 0.0802501966
H  H673  1  0.43694000  0.13357000  0.27340000  1.0 0.0700561867
H  H674  1  0.49158000  0.17661000  0.33042000  1.0 0.0802501966
H  H675  1  0.48107000  0.23999000  0.28655000  1.0 0.0983353411
H  H676  1  0.43620000  0.22600000  0.30922000  1.0 0.0983353411
H  H677  1  0.37707000  0.16305000  0.28804000  1.0 0.0700561867
H  H678  1  0.31732000  0.12282000  0.31433000  1.0 0.0802501966
H  H679  1  0.37153000  0.09224000  0.38295000  1.0 0.0890090345
H  H680  1  0.29448000  0.14735000  0.38554000  1.0 0.0890090345
H  H681  1  0.38139000  0.17205000  0.40013000  1.0 0.0802501966
H  H682  1  0.34951000  0.24239000  0.40075000  1.0 0.0802501966
H  H683  1  0.33033000  0.21282000  0.43958000  1.0 0.0890090345
H  H684  1  0.14761000  0.14661000  0.25139000  1.0 0.2368654359
H  H685  1  0.11256000  0.83534000  0.20408000  1.0 0.3578700795
H  H686  1  0.24861000  0.63633000  0.37633000  1.0 0.1884474361
H  H687  1  0.02159000  0.51404000  0.67656000  1.0 0.2481333687
H  H688  1  0.04297000  0.43112000  0.65539000  1.0 0.2721682141
H  H689  1  0.25083000  0.47604000  0.69877000  1.0 0.1811540523
H  H690  1  0.20378000  0.10985000  0.28649000  1.0 0.1088627501
H  H691  1  0.20095000  0.62276000  0.42557000  1.0 0.0802501966
H  H692  1  0.19677000  0.67095000  0.41026000  1.0 0.0890090345
H  H693  1  0.13383000  0.60705000  0.70320000  1.0 0.1088627501
H  H694  1  0.09753000  0.55360000  0.73542000  1.0 0.1811540523
H  H695  1  0.06219000  0.48897000  0.74059000  1.0 0.0983353411
H  H696  1  0.08769000  0.47761000  0.65190000  1.0 0.0601919673
H  H697  1  0.11907000  0.42697000  0.72396000  1.0 0.0802501966
H  H698  1  0.16631000  0.48810000  0.67118000  1.0 0.0983353411
H  H699  1  0.20758000  0.42831000  0.69960000  1.0 0.1088627501
H  H700  1  0.19214000  0.44173000  0.74725000  1.0 -0.0323046153
H  H701  1  0.18047000  0.44091000  0.10199000  1.0 0.3306121747
H  H702  1  0.13528000  0.46018000  0.17954000  1.0 0.2913050452
H  H703  1  0.09913000  0.29931000  0.23432000  1.0 0.2014881975
H  H704  1  0.03997000  0.45086000  0.22650000  1.0 0.2179637443
H  H705  1  0.93627000  0.45520000  0.19385000  1.0 0.3306121747
H  H706  1  0.96870000  0.26652000  0.26970000  1.0 0.2913050452
H  H707  1  0.82209000  0.39974000  0.21998000  1.0 0.2721682141
H  H708  1  0.80107000  0.42055000  0.12763000  1.0 0.320185109
H  H709  1  0.91624000  0.23151000  0.09492000  1.0 0.3399660661
H  H710  1  0.78542000  0.44835000  0.04324000  1.0 0.3306121747
H  H711  1  0.82907000  0.44442000  0.95175000  1.0 0.3306121747
H  H712  1  0.74803000  0.27785000  0.97113000  1.0 0.2598998074
H  H713  1  0.78448000  0.42542000  0.87459000  1.0 0.3102759586
H  H714  1  0.89910000  0.42238000  0.79579000  1.0 0.320185109
H  H715  1  0.88605000  0.29008000  0.79241000  1.0 0.320185109
H  H716  1  0.98823000  0.45062000  0.80925000  1.0 0.3306121747
H  H717  1  0.08225000  0.41513000  0.78297000  1.0 0.2801788064
H  H718  1  0.07479000  0.24736000  0.74943000  1.0 0.3029028847
H  H719  1  0.14688000  0.41402000  0.80294000  1.0 0.2801788064
H  H720  1  0.18655000  0.42812000  0.87108000  1.0 0.3029028847
H  H721  1  0.21334000  0.25906000  0.92448000  1.0 0.3102759586
H  H722  1  0.20072000  0.45884000  0.95617000  1.0 0.2913050452
H  H723  1  0.19736000  0.46095000  0.02404000  1.0 0.3306121747
H  H724  1  0.25628000  0.26211000  0.06389000  1.0 0.2913050452
H  H725  1  0.21218000  0.35425000  0.12097000  1.0 0.0890090345
H  H726  1  0.18316000  0.39653000  0.17824000  1.0 0.0802501966
H  H727  1  0.11007000  0.41366000  0.12559000  1.0 0.0890090345
H  H728  1  0.11297000  0.36436000  0.20531000  1.0 0.0802501966
H  H729  1  0.10301000  0.33080000  0.12061000  1.0 0.0890090345
H  H730  1  0.11098000  0.26228000  0.15787000  1.0 0.1088627501
H  H731  1  0.06821000  0.28794000  0.17444000  1.0 0.0802501966
H  H732  1  0.05863000  0.37673000  0.23986000  1.0 0.0700561867
H  H733  1  0.99141000  0.40792000  0.24919000  1.0 0.0890090345
H  H734  1  0.97457000  0.40215000  0.16085000  1.0 0.0890090345
H  H735  1  0.93538000  0.35292000  0.23113000  1.0 0.0890090345
H  H736  1  0.99749000  0.32233000  0.16772000  1.0 0.0802501966
H  H737  1  0.99566000  0.25663000  0.20890000  1.0 0.0802501966
H  H738  1  0.94986000  0.26850000  0.18874000  1.0 0.0983353411
H  H739  1  0.88153000  0.31467000  0.21609000  1.0 0.0983353411
H  H740  1  0.81503000  0.33908000  0.19652000  1.0 0.0802501966
H  H741  1  0.85865000  0.38498000  0.12670000  1.0 0.0890090345
H  H742  1  0.80139000  0.31496000  0.12060000  1.0 0.0890090345
H  H743  1  0.89004000  0.30921000  0.10230000  1.0 0.1088627501
H  H744  1  0.76501000  0.35158000  0.07359000  1.0 0.0890090345
H  H745  1  0.75386000  0.39557000  0.01826000  1.0 0.0802501966
H  H746  1  0.84586000  0.39499000  0.99360000  1.0 0.0802501966
H  H747  1  0.77884000  0.35827000  0.94837000  1.0 0.0802501966
H  H748  1  0.84388000  0.31464000  0.99941000  1.0 0.0802501966
H  H749  1  0.81290000  0.25110000  0.98575000  1.0 0.0890090345
H  H750  1  0.82817000  0.27351000  0.94080000  1.0 0.0983353411
H  H751  1  0.79285000  0.34756000  0.88535000  1.0 0.0802501966
H  H752  1  0.81997000  0.38779000  0.82567000  1.0 0.0700561867
H  H753  1  0.89205000  0.40493000  0.87681000  1.0 0.0890090345
H  H754  1  0.89100000  0.35109000  0.80264000  1.0 0.0700561867
H  H755  1  0.90446000  0.32140000  0.89042000  1.0 0.0890090345
H  H756  1  0.89756000  0.25235000  0.86722000  1.0 0.0983353411
H  H757  1  0.93955000  0.27387000  0.84582000  1.0 0.0983353411
H  H758  1  0.94438000  0.36586000  0.76624000  1.0 0.0528535201
H  H759  1  0.00857000  0.39931000  0.75292000  1.0 0.0700561867
H  H760  1  0.02541000  0.39261000  0.84410000  1.0 0.0890090345
H  H761  1  0.07077000  0.34575000  0.77541000  1.0 0.0601919673
H  H762  1  0.01156000  0.30996000  0.84022000  1.0 0.0802501966
H  H763  1  0.01793000  0.24584000  0.79964000  1.0 0.0890090345
H  H764  1  0.06411000  0.25632000  0.81700000  1.0 0.0890090345
H  H765  1  0.12706000  0.31090000  0.79259000  1.0 0.0802501966
H  H766  1  0.18989000  0.34385000  0.81067000  1.0 0.0890090345
H  H767  1  0.13775000  0.38632000  0.87525000  1.0 0.0802501966
H  H768  1  0.20565000  0.32391000  0.88945000  1.0 0.0802501966
H  H769  1  0.11340000  0.31266000  0.90526000  1.0 0.0890090345
H  H770  1  0.13313000  0.24025000  0.91690000  1.0 0.0983353411
H  H771  1  0.15219000  0.26962000  0.95197000  1.0 0.0890090345
H  H772  1  0.23646000  0.35897000  0.93502000  1.0 0.0802501966
H  H773  1  0.24118000  0.40859000  0.98710000  1.0 0.0802501966
H  H774  1  0.15128000  0.39980000  0.00899000  1.0 0.0890090345
H  H775  1  0.22406000  0.36755000  0.05843000  1.0 0.0890090345
H  H776  1  0.16105000  0.32226000  0.01289000  1.0 0.0802501966
H  H777  1  0.19996000  0.25826000  0.03272000  1.0 0.0802501966
H  H778  1  0.17905000  0.28059000  0.07464000  1.0 0.0983353411
H  H779  1  0.04061000  0.45461000  0.25960000  1.0 0.2179637443
H  H780  1  0.05211000  0.57754000  0.30378000  1.0 0.3306121747
H  H781  1  0.23430000  0.57240000  0.24176000  1.0 0.3102759586
H  H782  1  0.05392000  0.66238000  0.28589000  1.0 0.2801788064
H  H783  1  0.05366000  0.69536000  0.39523000  1.0 0.3102759586
H  H784  1  0.21998000  0.69626000  0.41720000  1.0 0.1574092705
H  H785  1  0.03580000  0.65527000  0.44717000  1.0 0.3306121747
H  H786  1  0.00787000  0.66502000  0.53489000  1.0 0.3399660661
H  H787  1  0.21539000  0.73224000  0.48939000  1.0 0.2014881975
H  H788  1  0.03241000  0.68666000  0.65240000  1.0 0.2913050452
H  H789  1  0.03063000  0.60504000  0.67615000  1.0 0.3029028847
H  H790  1  0.23174000  0.62283000  0.69744000  1.0 0.3306121747
H  H791  1  0.05386000  0.52272000  0.71723000  1.0 0.1574092705
H  H792  1  0.07404000  0.41983000  0.71549000  1.0 0.2098333934
H  H793  1  0.21545000  0.40023000  0.71829000  1.0 0.1884474361
H  H794  1  0.07342000  0.35912000  0.72339000  1.0 0.2801788064
H  H795  1  0.06684000  0.29189000  0.60361000  1.0 0.3029028847
H  H796  1  0.24003000  0.28196000  0.62804000  1.0 0.320185109
H  H797  1  0.05309000  0.30443000  0.55586000  1.0 0.3102759586
H  H798  1  0.03842000  0.32996000  0.45850000  1.0 0.320185109
H  H799  1  0.18874000  0.24038000  0.44026000  1.0 0.2913050452
H  H800  1  0.08840000  0.28991000  0.39067000  1.0 0.3102759586
H  H801  1  0.05679000  0.40271000  0.31405000  1.0 0.320185109
H  H802  1  0.25285000  0.38285000  0.28817000  1.0 0.320185109
H  H803  1  0.12841000  0.43686000  0.25849000  1.0 0.0802501966
H  H804  1  0.08634000  0.49801000  0.24404000  1.0 0.0802501966
H  H805  1  0.08326000  0.51782000  0.33263000  1.0 0.0890090345
H  H806  1  0.13105000  0.56350000  0.26546000  1.0 0.0700561867
H  H807  1  0.17051000  0.50665000  0.32961000  1.0 0.0802501966
H  H808  1  0.23688000  0.51558000  0.29079000  1.0 0.0983353411
H  H809  1  0.21889000  0.56046000  0.30968000  1.0 0.0802501966
H  H810  1  0.15123000  0.62336000  0.28048000  1.0 0.0700561867
H  H811  1  0.11037000  0.68287000  0.30854000  1.0 0.0802501966
H  H812  1  0.07831000  0.62511000  0.37647000  1.0 0.0890090345
H  H813  1  0.13464000  0.69591000  0.38110000  1.0 0.0802501966
H  H814  1  0.15646000  0.60538000  0.39292000  1.0 0.0802501966
H  H815  1  0.20260000  0.63468000  0.43084000  1.0 0.0802501966
H  H816  1  0.22607000  0.62191000  0.38626000  1.0 0.0983353411
H  H817  1  0.09366000  0.72554000  0.42912000  1.0 0.0601919673
H  H818  1  0.04765000  0.72656000  0.48892000  1.0 0.0983353411
H  H819  1  0.07443000  0.64018000  0.51180000  1.0 0.0890090345
H  H820  1  0.09682000  0.71498000  0.55419000  1.0 0.0983353411
H  H821  1  0.15371000  0.66298000  0.50210000  1.0 0.0890090345
H  H822  1  0.18953000  0.68770000  0.56009000  1.0 0.1088627501
H  H823  1  0.17444000  0.73630000  0.54760000  1.0 0.0528535201
H  H824  1  0.13223000  0.70701000  0.61459000  1.0 0.0802501966
H  H825  1  0.09649000  0.68033000  0.67812000  1.0 0.0802501966
H  H826  1  0.07931000  0.60598000  0.62983000  1.0 0.0802501966
H  H827  1  0.13396000  0.61058000  0.70166000  1.0 0.1088627501
H  H828  1  0.15967000  0.59506000  0.61341000  1.0 0.0890090345
H  H829  1  0.20780000  0.56309000  0.65163000  1.0 0.0983353411
H  H830  1  0.22648000  0.60817000  0.63480000  1.0 0.0983353411
H  H831  1  0.15655000  0.55023000  0.73522000  1.0 0.0890090345
H  H832  1  0.11455000  0.49371000  0.75584000  1.0 0.1206588472
H  H833  1  0.09880000  0.48175000  0.66719000  1.0 0.0700561867
H  H834  1  0.15213000  0.42652000  0.72075000  1.0 0.0601919673
H  H835  1  0.17538000  0.48395000  0.65146000  1.0 0.0802501966
H  H836  1  0.21611000  0.41968000  0.64813000  1.0 0.0890090345
H  H837  1  0.24544000  0.45904000  0.65849000  1.0 0.0802501966
H  H838  1  0.15031000  0.36596000  0.71090000  1.0 0.0700561867
H  H839  1  0.10995000  0.31081000  0.68597000  1.0 0.0802501966
H  H840  1  0.08894000  0.36676000  0.61351000  1.0 0.0802501966
H  H841  1  0.14300000  0.28976000  0.61328000  1.0 0.0802501966
H  H842  1  0.17103000  0.37648000  0.59852000  1.0 0.0890090345
H  H843  1  0.24125000  0.34362000  0.59885000  1.0 0.0890090345
H  H844  1  0.21489000  0.32746000  0.55997000  1.0 0.0983353411
H  H845  1  0.12320000  0.25787000  0.56306000  1.0 0.0601919673
H  H846  1  0.08711000  0.25298000  0.49785000  1.0 0.0890090345
H  H847  1  0.09810000  0.34503000  0.48643000  1.0 0.0802501966
H  H848  1  0.13357000  0.27340000  0.43694000  1.0 0.0700561867
H  H849  1  0.17661000  0.33042000  0.49158000  1.0 0.0802501966
H  H850  1  0.23999000  0.28655000  0.48107000  1.0 0.0983353411
H  H851  1  0.22600000  0.30922000  0.43620000  1.0 0.0983353411
H  H852  1  0.16305000  0.28804000  0.37707000  1.0 0.0700561867
H  H853  1  0.12282000  0.31433000  0.31732000  1.0 0.0802501966
H  H854  1  0.09224000  0.38295000  0.37153000  1.0 0.0802501966
H  H855  1  0.14735000  0.38554000  0.29448000  1.0 0.0890090345
H  H856  1  0.17205000  0.40013000  0.38139000  1.0 0.0802501966
H  H857  1  0.24239000  0.40075000  0.34951000  1.0 0.0802501966
H  H858  1  0.21282000  0.43958000  0.33033000  1.0 0.0890090345
H  H859  1  0.14661000  0.25139000  0.14761000  1.0 0.2368654359
H  H860  1  0.83534000  0.20408000  0.11256000  1.0 0.3578700795
H  H861  1  0.63633000  0.37633000  0.24861000  1.0 0.1884474361
H  H862  1  0.51404000  0.67656000  0.02159000  1.0 0.2481333687
H  H863  1  0.43112000  0.65539000  0.04297000  1.0 0.2721682141
H  H864  1  0.47604000  0.69877000  0.25083000  1.0 0.1811540523
H  H865  1  0.10985000  0.28649000  0.20378000  1.0 0.1088627501
H  H866  1  0.62276000  0.42557000  0.20095000  1.0 0.0802501966
H  H867  1  0.67095000  0.41026000  0.19677000  1.0 0.0890090345
H  H868  1  0.60705000  0.70320000  0.13383000  1.0 0.1088627501
H  H869  1  0.55360000  0.73542000  0.09753000  1.0 0.1811540523
H  H870  1  0.48897000  0.74059000  0.06219000  1.0 0.0983353411
H  H871  1  0.47761000  0.65190000  0.08769000  1.0 0.0601919673
H  H872  1  0.42697000  0.72396000  0.11907000  1.0 0.0802501966
H  H873  1  0.48810000  0.67118000  0.16631000  1.0 0.0983353411
H  H874  1  0.42831000  0.69960000  0.20758000  1.0 0.1088627501
H  H875  1  0.44173000  0.74725000  0.19214000  1.0 -0.0379303621
H  H876  1  0.44091000  0.10199000  0.18047000  1.0 0.3306121747
H  H877  1  0.46018000  0.17954000  0.13528000  1.0 0.2913050452
H  H878  1  0.29931000  0.23432000  0.09913000  1.0 0.2014881975
H  H879  1  0.45086000  0.22650000  0.03997000  1.0 0.2179637443
H  H880  1  0.45520000  0.19385000  0.93627000  1.0 0.3306121747
H  H881  1  0.26652000  0.26970000  0.96870000  1.0 0.2913050452
H  H882  1  0.39974000  0.21998000  0.82209000  1.0 0.2721682141
H  H883  1  0.42055000  0.12763000  0.80107000  1.0 0.320185109
H  H884  1  0.23151000  0.09492000  0.91624000  1.0 0.3399660661
H  H885  1  0.44835000  0.04324000  0.78542000  1.0 0.320185109
H  H886  1  0.44442000  0.95175000  0.82907000  1.0 0.3306121747
H  H887  1  0.27785000  0.97113000  0.74803000  1.0 0.2598998074
H  H888  1  0.42542000  0.87459000  0.78448000  1.0 0.3102759586
H  H889  1  0.42238000  0.79579000  0.89910000  1.0 0.320185109
H  H890  1  0.29008000  0.79241000  0.88605000  1.0 0.320185109
H  H891  1  0.45062000  0.80925000  0.98823000  1.0 0.3306121747
H  H892  1  0.41513000  0.78297000  0.08225000  1.0 0.2801788064
H  H893  1  0.24736000  0.74943000  0.07479000  1.0 0.3029028847
H  H894  1  0.41402000  0.80294000  0.14688000  1.0 0.2801788064
H  H895  1  0.42812000  0.87108000  0.18655000  1.0 0.3029028847
H  H896  1  0.25906000  0.92448000  0.21334000  1.0 0.3102759586
H  H897  1  0.45884000  0.95617000  0.20072000  1.0 0.2913050452
H  H898  1  0.46095000  0.02404000  0.19736000  1.0 0.3306121747
H  H899  1  0.26211000  0.06389000  0.25628000  1.0 0.2913050452
H  H900  1  0.35425000  0.12097000  0.21218000  1.0 0.0890090345
H  H901  1  0.39653000  0.17824000  0.18316000  1.0 0.0802501966
H  H902  1  0.41366000  0.12559000  0.11007000  1.0 0.0890090345
H  H903  1  0.36436000  0.20531000  0.11297000  1.0 0.0802501966
H  H904  1  0.33080000  0.12061000  0.10301000  1.0 0.0890090345
H  H905  1  0.26228000  0.15787000  0.11098000  1.0 0.1088627501
H  H906  1  0.28794000  0.17444000  0.06821000  1.0 0.0802501966
H  H907  1  0.37673000  0.23986000  0.05863000  1.0 0.0700561867
H  H908  1  0.40792000  0.24919000  0.99141000  1.0 0.0890090345
H  H909  1  0.40215000  0.16085000  0.97457000  1.0 0.0890090345
H  H910  1  0.35292000  0.23113000  0.93538000  1.0 0.0890090345
H  H911  1  0.32233000  0.16772000  0.99749000  1.0 0.0802501966
H  H912  1  0.25663000  0.20890000  0.99566000  1.0 0.0802501966
H  H913  1  0.26850000  0.18874000  0.94986000  1.0 0.0983353411
H  H914  1  0.31467000  0.21609000  0.88153000  1.0 0.0983353411
H  H915  1  0.33908000  0.19652000  0.81503000  1.0 0.0802501966
H  H916  1  0.38498000  0.12670000  0.85865000  1.0 0.0890090345
H  H917  1  0.31496000  0.12060000  0.80139000  1.0 0.0890090345
H  H918  1  0.30921000  0.10230000  0.89004000  1.0 0.1088627501
H  H919  1  0.35158000  0.07359000  0.76501000  1.0 0.0890090345
H  H920  1  0.39557000  0.01826000  0.75386000  1.0 0.0802501966
H  H921  1  0.39499000  0.99360000  0.84586000  1.0 0.0802501966
H  H922  1  0.35827000  0.94837000  0.77884000  1.0 0.0802501966
H  H923  1  0.31464000  0.99941000  0.84388000  1.0 0.0802501966
H  H924  1  0.25110000  0.98575000  0.81290000  1.0 0.0890090345
H  H925  1  0.27351000  0.94080000  0.82817000  1.0 0.0983353411
H  H926  1  0.34756000  0.88535000  0.79285000  1.0 0.0802501966
H  H927  1  0.38779000  0.82567000  0.81997000  1.0 0.0700561867
H  H928  1  0.40493000  0.87681000  0.89205000  1.0 0.0890090345
H  H929  1  0.35109000  0.80264000  0.89100000  1.0 0.0700561867
H  H930  1  0.32140000  0.89042000  0.90446000  1.0 0.0890090345
H  H931  1  0.25235000  0.86722000  0.89756000  1.0 0.0983353411
H  H932  1  0.27387000  0.84582000  0.93955000  1.0 0.0983353411
H  H933  1  0.36586000  0.76624000  0.94438000  1.0 0.0528535201
H  H934  1  0.39931000  0.75292000  0.00857000  1.0 0.0700561867
H  H935  1  0.39261000  0.84410000  0.02541000  1.0 0.0890090345
H  H936  1  0.34575000  0.77541000  0.07077000  1.0 0.0601919673
H  H937  1  0.30996000  0.84022000  0.01156000  1.0 0.0802501966
H  H938  1  0.24584000  0.79964000  0.01793000  1.0 0.0890090345
H  H939  1  0.25632000  0.81700000  0.06411000  1.0 0.0890090345
H  H940  1  0.31090000  0.79259000  0.12706000  1.0 0.0802501966
H  H941  1  0.34385000  0.81067000  0.18989000  1.0 0.0890090345
H  H942  1  0.38632000  0.87525000  0.13775000  1.0 0.0802501966
H  H943  1  0.32391000  0.88945000  0.20565000  1.0 0.0802501966
H  H944  1  0.31266000  0.90526000  0.11340000  1.0 0.0890090345
H  H945  1  0.24025000  0.91690000  0.13313000  1.0 0.0983353411
H  H946  1  0.26962000  0.95197000  0.15219000  1.0 0.0890090345
H  H947  1  0.35897000  0.93502000  0.23646000  1.0 0.0802501966
H  H948  1  0.40859000  0.98710000  0.24118000  1.0 0.0802501966
H  H949  1  0.39980000  0.00899000  0.15128000  1.0 0.0890090345
H  H950  1  0.36755000  0.05843000  0.22406000  1.0 0.0890090345
H  H951  1  0.32226000  0.01289000  0.16105000  1.0 0.0802501966
H  H952  1  0.25826000  0.03272000  0.19996000  1.0 0.0802501966
H  H953  1  0.28059000  0.07464000  0.17905000  1.0 0.0983353411
H  H954  1  0.45461000  0.25960000  0.04061000  1.0 0.2179637443
H  H955  1  0.57754000  0.30378000  0.05211000  1.0 0.3306121747
H  H956  1  0.57240000  0.24176000  0.23430000  1.0 0.3102759586
H  H957  1  0.66238000  0.28589000  0.05392000  1.0 0.2801788064
H  H958  1  0.69536000  0.39523000  0.05366000  1.0 0.3102759586
H  H959  1  0.69626000  0.41720000  0.21998000  1.0 0.1574092705
H  H960  1  0.65527000  0.44717000  0.03580000  1.0 0.3306121747
H  H961  1  0.66502000  0.53489000  0.00787000  1.0 0.3399660661
H  H962  1  0.73224000  0.48939000  0.21539000  1.0 0.2014881975
H  H963  1  0.68666000  0.65240000  0.03241000  1.0 0.2913050452
H  H964  1  0.60504000  0.67615000  0.03063000  1.0 0.3029028847
H  H965  1  0.62283000  0.69744000  0.23174000  1.0 0.3306121747
H  H966  1  0.52272000  0.71723000  0.05386000  1.0 0.1574092705
H  H967  1  0.41983000  0.71549000  0.07404000  1.0 0.2098333934
H  H968  1  0.40023000  0.71829000  0.21545000  1.0 0.1884474361
H  H969  1  0.35912000  0.72339000  0.07342000  1.0 0.2801788064
H  H970  1  0.29189000  0.60361000  0.06684000  1.0 0.3029028847
H  H971  1  0.28196000  0.62804000  0.24003000  1.0 0.320185109
H  H972  1  0.30443000  0.55586000  0.05309000  1.0 0.3102759586
H  H973  1  0.32996000  0.45850000  0.03842000  1.0 0.320185109
H  H974  1  0.24038000  0.44026000  0.18874000  1.0 0.2913050452
H  H975  1  0.28991000  0.39067000  0.08840000  1.0 0.3102759586
H  H976  1  0.40271000  0.31405000  0.05679000  1.0 0.320185109
H  H977  1  0.38285000  0.28817000  0.25285000  1.0 0.320185109
H  H978  1  0.43686000  0.25849000  0.12841000  1.0 0.0802501966
H  H979  1  0.49801000  0.24404000  0.08634000  1.0 0.0802501966
H  H980  1  0.51782000  0.33263000  0.08326000  1.0 0.0890090345
H  H981  1  0.56350000  0.26546000  0.13105000  1.0 0.0700561867
H  H982  1  0.50665000  0.32961000  0.17051000  1.0 0.0802501966
H  H983  1  0.51558000  0.29079000  0.23688000  1.0 0.0983353411
H  H984  1  0.56046000  0.30968000  0.21889000  1.0 0.0802501966
H  H985  1  0.62336000  0.28048000  0.15123000  1.0 0.0700561867
H  H986  1  0.68287000  0.30854000  0.11037000  1.0 0.0802501966
H  H987  1  0.62511000  0.37647000  0.07831000  1.0 0.0890090345
H  H988  1  0.69591000  0.38110000  0.13464000  1.0 0.0802501966
H  H989  1  0.60538000  0.39292000  0.15646000  1.0 0.0802501966
H  H990  1  0.63468000  0.43084000  0.20260000  1.0 0.0802501966
H  H991  1  0.62191000  0.38626000  0.22607000  1.0 0.0983353411
H  H992  1  0.72554000  0.42912000  0.09366000  1.0 0.0601919673
H  H993  1  0.72656000  0.48892000  0.04765000  1.0 0.0983353411
H  H994  1  0.64018000  0.51180000  0.07443000  1.0 0.0890090345
H  H995  1  0.71498000  0.55419000  0.09682000  1.0 0.0983353411
H  H996  1  0.66298000  0.50210000  0.15371000  1.0 0.0890090345
H  H997  1  0.68770000  0.56009000  0.18953000  1.0 0.1088627501
H  H998  1  0.73630000  0.54760000  0.17444000  1.0 0.0528535201
H  H999  1  0.70701000  0.61459000  0.13223000  1.0 0.0802501966
H  H1000  1  0.68033000  0.67812000  0.09649000  1.0 0.0802501966
H  H1001  1  0.60598000  0.62983000  0.07931000  1.0 0.0802501966
H  H1002  1  0.61058000  0.70166000  0.13396000  1.0 0.1088627501
H  H1003  1  0.59506000  0.61341000  0.15967000  1.0 0.0890090345
H  H1004  1  0.56309000  0.65163000  0.20780000  1.0 0.0983353411
H  H1005  1  0.60817000  0.63480000  0.22648000  1.0 0.0983353411
H  H1006  1  0.55023000  0.73522000  0.15655000  1.0 0.0890090345
H  H1007  1  0.49371000  0.75584000  0.11455000  1.0 0.1206588472
H  H1008  1  0.48175000  0.66719000  0.09880000  1.0 0.0700561867
H  H1009  1  0.42652000  0.72075000  0.15213000  1.0 0.0601919673
H  H1010  1  0.48395000  0.65146000  0.17538000  1.0 0.0802501966
H  H1011  1  0.41968000  0.64813000  0.21611000  1.0 0.0890090345
H  H1012  1  0.45904000  0.65849000  0.24544000  1.0 0.0802501966
H  H1013  1  0.36596000  0.71090000  0.15031000  1.0 0.0700561867
H  H1014  1  0.31081000  0.68597000  0.10995000  1.0 0.0802501966
H  H1015  1  0.36676000  0.61351000  0.08894000  1.0 0.0802501966
H  H1016  1  0.28976000  0.61328000  0.14300000  1.0 0.0802501966
H  H1017  1  0.37648000  0.59852000  0.17103000  1.0 0.0890090345
H  H1018  1  0.34362000  0.59885000  0.24125000  1.0 0.0890090345
H  H1019  1  0.32746000  0.55997000  0.21489000  1.0 0.0983353411
H  H1020  1  0.25787000  0.56306000  0.12320000  1.0 0.0601919673
H  H1021  1  0.25298000  0.49785000  0.08711000  1.0 0.0890090345
H  H1022  1  0.34503000  0.48643000  0.09810000  1.0 0.0802501966
H  H1023  1  0.27340000  0.43694000  0.13357000  1.0 0.0700561867
H  H1024  1  0.33042000  0.49158000  0.17661000  1.0 0.0802501966
H  H1025  1  0.28655000  0.48107000  0.23999000  1.0 0.0983353411
H  H1026  1  0.30922000  0.43620000  0.22600000  1.0 0.0983353411
H  H1027  1  0.28804000  0.37707000  0.16305000  1.0 0.0700561867
H  H1028  1  0.31433000  0.31732000  0.12282000  1.0 0.0802501966
H  H1029  1  0.38295000  0.37153000  0.09224000  1.0 0.0802501966
H  H1030  1  0.38554000  0.29448000  0.14735000  1.0 0.0890090345
H  H1031  1  0.40013000  0.38139000  0.17205000  1.0 0.0802501966
H  H1032  1  0.40075000  0.34951000  0.24239000  1.0 0.0802501966
H  H1033  1  0.43958000  0.33033000  0.21282000  1.0 0.0890090345
H  H1034  1  0.25139000  0.14761000  0.14661000  1.0 0.2368654359
H  H1035  1  0.20408000  0.11256000  0.83534000  1.0 0.3578700795
H  H1036  1  0.37633000  0.24861000  0.63633000  1.0 0.1884474361
H  H1037  1  0.67656000  0.02159000  0.51404000  1.0 0.2481333687
H  H1038  1  0.65539000  0.04297000  0.43112000  1.0 0.2721682141
H  H1039  1  0.69877000  0.25083000  0.47604000  1.0 0.1811540523
H  H1040  1  0.28649000  0.20378000  0.10985000  1.0 0.1088627501
H  H1041  1  0.42557000  0.20095000  0.62276000  1.0 0.0802501966
H  H1042  1  0.41026000  0.19677000  0.67095000  1.0 0.0890090345
H  H1043  1  0.70320000  0.13383000  0.60705000  1.0 0.1088627501
H  H1044  1  0.73542000  0.09753000  0.55360000  1.0 0.1811540523
H  H1045  1  0.74059000  0.06219000  0.48897000  1.0 0.0983353411
H  H1046  1  0.65190000  0.08769000  0.47761000  1.0 0.0601919673
H  H1047  1  0.72396000  0.11907000  0.42697000  1.0 0.0802501966
H  H1048  1  0.67118000  0.16631000  0.48810000  1.0 0.0983353411
H  H1049  1  0.69960000  0.20758000  0.42831000  1.0 0.1088627501
H  H1050  1  0.74725000  0.19214000  0.44173000  1.0 -0.0379303621
C  C1  1  0.81968000  0.87601000  0.64006000  1.0 0.2098333934
C  C2  1  0.82928000  0.85088000  0.59928000  1.0 -0.0119372062
C  C3  1  0.87773000  0.84536000  0.59190000  1.0 0.0802501966
C  C4  1  0.89731000  0.82470000  0.63132000  1.0 0.0212810474
C  C5  1  0.88490000  0.85005000  0.67175000  1.0 0.0295572667
C  C6  1  0.89987000  0.82617000  0.71237000  1.0 -0.0119372062
C  C7  1  0.96303000  0.78211000  0.62835000  1.0 0.1673836658
C  C8  1  0.99730000  0.78140000  0.59320000  1.0 0.0101966559
C  C9  1  0.03530000  0.80820000  0.60010000  1.0 0.0802501966
C  C10  1  0.05146000  0.79876000  0.64546000  1.0 0.0382045358
C  C11  1  0.01511000  0.80211000  0.67831000  1.0 0.0528535201
C  C12  1  0.02954000  0.79014000  0.72274000  1.0 -0.0697673118
C  C13  1  0.12220000  0.81470000  0.67590000  1.0 0.1884474361
C  C14  1  0.15910000  0.81470000  0.64530000  1.0 0.0295572667
C  C15  1  0.16643000  0.86143000  0.63153000  1.0 0.0601919673
C  C16  1  0.17051000  0.88731000  0.67171000  1.0 0.0601919673
C  C17  1  0.13650000  0.88450000  0.70400000  1.0 -0.0976326234
C  C18  1  0.13940000  0.90260000  0.74390000  1.0 0.0983353411
C  C19  1  0.21191000  0.94981000  0.64761000  1.0 0.1386025796
C  C20  1  0.21565000  0.97295000  0.60885000  1.0 0.0101966559
C  C21  1  0.18481000  0.01511000  0.60461000  1.0 0.0802501966
C  C22  1  0.19146000  0.04030000  0.64342000  1.0 0.0295572667
C  C23  1  0.18554000  0.01254000  0.68394000  1.0 0.0601919673
C  C24  1  0.19270000  0.03440000  0.72410000  1.0 -0.0479199918
C  C25  1  0.17552000  0.11700000  0.64764000  1.0 0.2098333934
C  C26  1  0.16813000  0.14551000  0.60783000  1.0 0.0212810474
C  C27  1  0.12009000  0.15132000  0.60179000  1.0 0.0983353411
C  C28  1  0.09863000  0.16803000  0.64386000  1.0 0.0101966559
C  C29  1  0.10781000  0.13821000  0.68301000  1.0 0.0528535201
C  C30  1  0.09238000  0.15348000  0.72478000  1.0 -0.0608151239
C  C31  1  0.03295000  0.21197000  0.63896000  1.0 0.1884474361
C  C32  1  0.00292000  0.21652000  0.60252000  1.0 0.0101966559
C  C33  1  0.96430000  0.18670000  0.60880000  1.0 0.0802501966
C  C34  1  0.94329000  0.19507000  0.65402000  1.0 0.0212810474
C  C35  1  0.97634000  0.19005000  0.68866000  1.0 0.0700561867
C  C36  1  0.95871000  0.20271000  0.73341000  1.0 -0.0608151239
C  C37  1  0.87088000  0.17788000  0.67798000  1.0 0.2179637443
C  C38  1  0.83863000  0.17913000  0.64343000  1.0 0.0101966559
C  C39  1  0.83412000  0.13434000  0.62760000  1.0 0.0601919673
C  C40  1  0.82391000  0.10375000  0.66357000  1.0 0.0382045358
C  C41  1  0.85756000  0.10466000  0.69906000  1.0 0.0528535201
C  C42  1  0.84572000  0.07882000  0.73752000  1.0 -0.0608151239
C  C43  1  0.78681000  0.04173000  0.64059000  1.0 0.1811540523
C  C44  1  0.78844000  0.02196000  0.59732000  1.0 -0.0026241661
C  C45  1  0.81839000  0.98226000  0.59732000  1.0 0.0700561867
C  C46  1  0.80582000  0.95162000  0.63516000  1.0 0.0212810474
C  C47  1  0.80940000  0.97577000  0.67643000  1.0 0.0802501966
C  C48  1  0.79912000  0.94922000  0.71632000  1.0 -0.0774415906
C  C49  1  0.87160000  0.72057000  0.53958000  1.0 0.1811540523
C  C50  1  0.91312000  0.72518000  0.51256000  1.0 0.0295572667
C  C51  1  0.91268000  0.69848000  0.47328000  1.0 0.0802501966
C  C52  1  0.87001000  0.70521000  0.45102000  1.0 -0.0026241661
C  C53  1  0.82956000  0.70067000  0.48125000  1.0 0.0890090345
C  C54  1  0.78639000  0.71109000  0.46189000  1.0 -0.0697673118
C  C55  1  0.85799000  0.68829000  0.37679000  1.0 0.2098333934
C  C56  1  0.89736000  0.68136000  0.34696000  1.0 0.0295572667
C  C57  1  0.91226000  0.63390000  0.34574000  1.0 0.0802501966
C  C58  1  0.87349000  0.60989000  0.33409000  1.0 0.0030588676
C  C59  1  0.83483000  0.61703000  0.36513000  1.0 -0.0379303621
C  C60  1  0.79580000  0.60050000  0.35820000  1.0 -0.0323046153
C  C61  1  0.90029000  0.54679000  0.29599000  1.0 0.1811540523
C  C62  1  0.94101000  0.52001000  0.30251000  1.0 -0.0026241661
C  C63  1  0.93272000  0.47952000  0.32972000  1.0 0.0700561867
C  C64  1  0.89460000  0.45720000  0.31390000  1.0 0.0212810474
C  C65  1  0.85506000  0.48676000  0.30816000  1.0 0.0700561867
C  C66  1  0.81750000  0.46420000  0.29220000  1.0 -0.0976326234
C  C67  1  0.87124000  0.38124000  0.32484000  1.0 0.2098333934
C  C68  1  0.90936000  0.34986000  0.33256000  1.0 0.0212810474
C  C69  1  0.91347000  0.34257000  0.38107000  1.0 -0.0119372062
C  C70  1  0.87203000  0.32633000  0.40233000  1.0 0.0101966559
C  C71  1  0.83500000  0.35850000  0.39210000  1.0 0.0212810474
C  C72  1  0.79550000  0.34570000  0.40540000  1.0 -0.1183927013
C  C73  1  0.84900000  0.28750000  0.47070000  1.0 0.0700561867
C  C74  1  0.88950000  0.27390000  0.49360000  1.0 0.0212810474
C  C75  1  0.89520000  0.30350000  0.53120000  1.0 -0.0379303621
C  C76  1  0.85380000  0.30800000  0.55940000  1.0 -0.0119372062
C  C77  1  0.81710000  0.32120000  0.53220000  1.0 -0.0697673118
C  C78  1  0.77820000  0.33010000  0.55920000  1.0 -0.1545314616
C  C79  1  0.85590000  0.32042000  0.63383000  1.0 0.0101966559
C  C80  1  0.89571000  0.32631000  0.65935000  1.0 0.0101966559
C  C81  1  0.90350000  0.37408000  0.66265000  1.0 0.0700561867
C  C82  1  0.86301000  0.39691000  0.67974000  1.0 0.0101966559
C  C83  1  0.82435000  0.38875000  0.65345000  1.0 0.0700561867
C  C84  1  0.78330000  0.40830000  0.67390000  1.0 -0.0697673118
C  C85  1  0.87282000  0.46054000  0.71964000  1.0 0.1811540523
C  C86  1  0.91132000  0.48907000  0.71831000  1.0 0.0101966559
C  C87  1  0.90473000  0.52559000  0.68403000  1.0 0.0890090345
C  C88  1  0.86351000  0.55054000  0.69781000  1.0 0.0101966559
C  C89  1  0.82551000  0.52027000  0.69882000  1.0 0.0601919673
C  C90  1  0.78231000  0.54081000  0.71221000  1.0 -0.0697673118
C  C91  1  0.84612000  0.62543000  0.68081000  1.0 0.2014881975
C  C92  1  0.88520000  0.65336000  0.67524000  1.0 0.0212810474
C  C93  1  0.89889000  0.65743000  0.62805000  1.0 0.0890090345
C  C94  1  0.86032000  0.67598000  0.60427000  1.0 0.0295572667
C  C95  1  0.82159000  0.64759000  0.61199000  1.0 0.0700561867
C  C96  1  0.78250000  0.66870000  0.59220000  1.0 -0.0608151239
C  C97  1  0.46870000  0.89360000  0.28590000  1.0 0.1206588472
C  C98  1  0.49840000  0.93060000  0.28880000  1.0 0.0601919673
C  C99  1  0.53512000  0.91722000  0.31832000  1.0 0.0295572667
C  C100  1  0.55811000  0.87541000  0.30471000  1.0 0.0030588676
C  C101  1  0.52560000  0.84100000  0.29990000  1.0 0.0382045358
C  C102  1  0.54710000  0.80170000  0.28260000  1.0 0.0295572667
C  C103  1  0.64006000  0.81968000  0.87601000  1.0 0.2098333934
C  C104  1  0.59928000  0.82928000  0.85088000  1.0 -0.0119372062
C  C105  1  0.59190000  0.87773000  0.84536000  1.0 0.0802501966
C  C106  1  0.63132000  0.89731000  0.82470000  1.0 0.0212810474
C  C107  1  0.67175000  0.88490000  0.85005000  1.0 0.0295572667
C  C108  1  0.71237000  0.89987000  0.82617000  1.0 -0.0119372062
C  C109  1  0.62835000  0.96303000  0.78211000  1.0 0.1673836658
C  C110  1  0.59320000  0.99730000  0.78140000  1.0 0.0101966559
C  C111  1  0.60010000  0.03530000  0.80820000  1.0 0.0802501966
C  C112  1  0.64546000  0.05146000  0.79876000  1.0 0.0382045358
C  C113  1  0.67831000  0.01511000  0.80211000  1.0 0.0601919673
C  C114  1  0.72274000  0.02954000  0.79014000  1.0 -0.0697673118
C  C115  1  0.67590000  0.12220000  0.81470000  1.0 0.1884474361
C  C116  1  0.64530000  0.15910000  0.81470000  1.0 0.0295572667
C  C117  1  0.63153000  0.16643000  0.86143000  1.0 0.0601919673
C  C118  1  0.67171000  0.17051000  0.88731000  1.0 0.0601919673
C  C119  1  0.70400000  0.13650000  0.88450000  1.0 -0.0976326234
C  C120  1  0.74390000  0.13940000  0.90260000  1.0 0.1088627501
C  C121  1  0.64761000  0.21191000  0.94981000  1.0 0.1386025796
C  C122  1  0.60885000  0.21565000  0.97295000  1.0 0.0101966559
C  C123  1  0.60461000  0.18481000  0.01511000  1.0 0.0802501966
C  C124  1  0.64342000  0.19146000  0.04030000  1.0 0.0295572667
C  C125  1  0.68394000  0.18554000  0.01254000  1.0 0.0601919673
C  C126  1  0.72410000  0.19270000  0.03440000  1.0 -0.0479199918
C  C127  1  0.64764000  0.17552000  0.11700000  1.0 0.2098333934
C  C128  1  0.60783000  0.16813000  0.14551000  1.0 0.0295572667
C  C129  1  0.60179000  0.12009000  0.15132000  1.0 0.0890090345
C  C130  1  0.64386000  0.09863000  0.16803000  1.0 0.0101966559
C  C131  1  0.68301000  0.10781000  0.13821000  1.0 0.0528535201
C  C132  1  0.72478000  0.09238000  0.15348000  1.0 -0.0608151239
C  C133  1  0.63896000  0.03295000  0.21197000  1.0 0.1884474361
C  C134  1  0.60252000  0.00292000  0.21652000  1.0 0.0101966559
C  C135  1  0.60880000  0.96430000  0.18670000  1.0 0.0802501966
C  C136  1  0.65402000  0.94329000  0.19507000  1.0 0.0212810474
C  C137  1  0.68866000  0.97634000  0.19005000  1.0 0.0700561867
C  C138  1  0.73341000  0.95871000  0.20271000  1.0 -0.0608151239
C  C139  1  0.67798000  0.87088000  0.17788000  1.0 0.2179637443
C  C140  1  0.64343000  0.83863000  0.17913000  1.0 0.0101966559
C  C141  1  0.62760000  0.83412000  0.13434000  1.0 0.0601919673
C  C142  1  0.66357000  0.82391000  0.10375000  1.0 0.0382045358
C  C143  1  0.69906000  0.85756000  0.10466000  1.0 0.0528535201
C  C144  1  0.73752000  0.84572000  0.07882000  1.0 -0.0608151239
C  C145  1  0.64059000  0.78681000  0.04173000  1.0 0.1811540523
C  C146  1  0.59732000  0.78844000  0.02196000  1.0 -0.0026241661
C  C147  1  0.59732000  0.81839000  0.98226000  1.0 0.0700561867
C  C148  1  0.63516000  0.80582000  0.95162000  1.0 0.0212810474
C  C149  1  0.67643000  0.80940000  0.97577000  1.0 0.0802501966
C  C150  1  0.71632000  0.79912000  0.94922000  1.0 -0.0774415906
C  C151  1  0.53958000  0.87160000  0.72057000  1.0 0.1811540523
C  C152  1  0.51256000  0.91312000  0.72518000  1.0 0.0295572667
C  C153  1  0.47328000  0.91268000  0.69848000  1.0 0.0802501966
C  C154  1  0.45102000  0.87001000  0.70521000  1.0 -0.0026241661
C  C155  1  0.48125000  0.82956000  0.70067000  1.0 0.0890090345
C  C156  1  0.46189000  0.78639000  0.71109000  1.0 -0.0697673118
C  C157  1  0.37679000  0.85799000  0.68829000  1.0 0.2098333934
C  C158  1  0.34696000  0.89736000  0.68136000  1.0 0.0295572667
C  C159  1  0.34574000  0.91226000  0.63390000  1.0 0.0802501966
C  C160  1  0.33409000  0.87349000  0.60989000  1.0 0.0030588676
C  C161  1  0.36513000  0.83483000  0.61703000  1.0 -0.0379303621
C  C162  1  0.35820000  0.79580000  0.60050000  1.0 -0.0323046153
C  C163  1  0.29599000  0.90029000  0.54679000  1.0 0.1811540523
C  C164  1  0.30251000  0.94101000  0.52001000  1.0 -0.0026241661
C  C165  1  0.32972000  0.93272000  0.47952000  1.0 0.0700561867
C  C166  1  0.31390000  0.89460000  0.45720000  1.0 0.0212810474
C  C167  1  0.30816000  0.85506000  0.48676000  1.0 0.0700561867
C  C168  1  0.29220000  0.81750000  0.46420000  1.0 -0.0976326234
C  C169  1  0.32484000  0.87124000  0.38124000  1.0 0.2098333934
C  C170  1  0.33256000  0.90936000  0.34986000  1.0 0.0212810474
C  C171  1  0.38107000  0.91347000  0.34257000  1.0 -0.0119372062
C  C172  1  0.40233000  0.87203000  0.32633000  1.0 0.0101966559
C  C173  1  0.39210000  0.83500000  0.35850000  1.0 0.0212810474
C  C174  1  0.40540000  0.79550000  0.34570000  1.0 -0.1183927013
C  C175  1  0.47070000  0.84900000  0.28750000  1.0 0.0601919673
C  C176  1  0.49360000  0.88950000  0.27390000  1.0 0.0212810474
C  C177  1  0.53120000  0.89520000  0.30350000  1.0 -0.0379303621
C  C178  1  0.55940000  0.85380000  0.30800000  1.0 -0.0119372062
C  C179  1  0.53220000  0.81710000  0.32120000  1.0 -0.0697673118
C  C180  1  0.55920000  0.77820000  0.33010000  1.0 -0.1551236188
C  C181  1  0.63383000  0.85590000  0.32042000  1.0 0.0101966559
C  C182  1  0.65935000  0.89571000  0.32631000  1.0 0.0101966559
C  C183  1  0.66265000  0.90350000  0.37408000  1.0 0.0700561867
C  C184  1  0.67974000  0.86301000  0.39691000  1.0 0.0101966559
C  C185  1  0.65345000  0.82435000  0.38875000  1.0 0.0700561867
C  C186  1  0.67390000  0.78330000  0.40830000  1.0 -0.0697673118
C  C187  1  0.71964000  0.87282000  0.46054000  1.0 0.1811540523
C  C188  1  0.71831000  0.91132000  0.48907000  1.0 0.0101966559
C  C189  1  0.68403000  0.90473000  0.52559000  1.0 0.0890090345
C  C190  1  0.69781000  0.86351000  0.55054000  1.0 0.0101966559
C  C191  1  0.69882000  0.82551000  0.52027000  1.0 0.0601919673
C  C192  1  0.71221000  0.78231000  0.54081000  1.0 -0.0697673118
C  C193  1  0.68081000  0.84612000  0.62543000  1.0 0.2014881975
C  C194  1  0.67524000  0.88520000  0.65336000  1.0 0.0295572667
C  C195  1  0.62805000  0.89889000  0.65743000  1.0 0.0802501966
C  C196  1  0.60427000  0.86032000  0.67598000  1.0 0.0295572667
C  C197  1  0.61199000  0.82159000  0.64759000  1.0 0.0700561867
C  C198  1  0.59220000  0.78250000  0.66870000  1.0 -0.0608151239
C  C199  1  0.28590000  0.46870000  0.89360000  1.0 0.1206588472
C  C200  1  0.28880000  0.49840000  0.93060000  1.0 0.0601919673
C  C201  1  0.31832000  0.53512000  0.91722000  1.0 0.0295572667
C  C202  1  0.30471000  0.55811000  0.87541000  1.0 0.0030588676
C  C203  1  0.29990000  0.52560000  0.84100000  1.0 0.0382045358
C  C204  1  0.28260000  0.54710000  0.80170000  1.0 0.0295572667
C  C205  1  0.87601000  0.64006000  0.81968000  1.0 0.2098333934
C  C206  1  0.85088000  0.59928000  0.82928000  1.0 -0.0119372062
C  C207  1  0.84536000  0.59190000  0.87773000  1.0 0.0802501966
C  C208  1  0.82470000  0.63132000  0.89731000  1.0 0.0212810474
C  C209  1  0.85005000  0.67175000  0.88490000  1.0 0.0295572667
C  C210  1  0.82617000  0.71237000  0.89987000  1.0 -0.0119372062
C  C211  1  0.78211000  0.62835000  0.96303000  1.0 0.1673836658
C  C212  1  0.78140000  0.59320000  0.99730000  1.0 0.0101966559
C  C213  1  0.80820000  0.60010000  0.03530000  1.0 0.0802501966
C  C214  1  0.79876000  0.64546000  0.05146000  1.0 0.0382045358
C  C215  1  0.80211000  0.67831000  0.01511000  1.0 0.0601919673
C  C216  1  0.79014000  0.72274000  0.02954000  1.0 -0.0697673118
C  C217  1  0.81470000  0.67590000  0.12220000  1.0 0.1884474361
C  C218  1  0.81470000  0.64530000  0.15910000  1.0 0.0295572667
C  C219  1  0.86143000  0.63153000  0.16643000  1.0 0.0601919673
C  C220  1  0.88731000  0.67171000  0.17051000  1.0 0.0601919673
C  C221  1  0.88450000  0.70400000  0.13650000  1.0 -0.0976326234
C  C222  1  0.90260000  0.74390000  0.13940000  1.0 0.0983353411
C  C223  1  0.94981000  0.64761000  0.21191000  1.0 0.1386025796
C  C224  1  0.97295000  0.60885000  0.21565000  1.0 0.0101966559
C  C225  1  0.01511000  0.60461000  0.18481000  1.0 0.0802501966
C  C226  1  0.04030000  0.64342000  0.19146000  1.0 0.0295572667
C  C227  1  0.01254000  0.68394000  0.18554000  1.0 0.0601919673
C  C228  1  0.03440000  0.72410000  0.19270000  1.0 -0.0479199918
C  C229  1  0.11700000  0.64764000  0.17552000  1.0 0.2098333934
C  C230  1  0.14551000  0.60783000  0.16813000  1.0 0.0212810474
C  C231  1  0.15132000  0.60179000  0.12009000  1.0 0.0983353411
C  C232  1  0.16803000  0.64386000  0.09863000  1.0 0.0101966559
C  C233  1  0.13821000  0.68301000  0.10781000  1.0 0.0528535201
C  C234  1  0.15348000  0.72478000  0.09238000  1.0 -0.0608151239
C  C235  1  0.21197000  0.63896000  0.03295000  1.0 0.1884474361
C  C236  1  0.21652000  0.60252000  0.00292000  1.0 0.0030588676
C  C237  1  0.18670000  0.60880000  0.96430000  1.0 0.0802501966
C  C238  1  0.19507000  0.65402000  0.94329000  1.0 0.0212810474
C  C239  1  0.19005000  0.68866000  0.97634000  1.0 0.0700561867
C  C240  1  0.20271000  0.73341000  0.95871000  1.0 -0.0608151239
C  C241  1  0.17788000  0.67798000  0.87088000  1.0 0.2179637443
C  C242  1  0.17913000  0.64343000  0.83863000  1.0 0.0101966559
C  C243  1  0.13434000  0.62760000  0.83412000  1.0 0.0601919673
C  C244  1  0.10375000  0.66357000  0.82391000  1.0 0.0382045358
C  C245  1  0.10466000  0.69906000  0.85756000  1.0 0.0528535201
C  C246  1  0.07882000  0.73752000  0.84572000  1.0 -0.0608151239
C  C247  1  0.04173000  0.64059000  0.78681000  1.0 0.1811540523
C  C248  1  0.02196000  0.59732000  0.78844000  1.0 -0.0026241661
C  C249  1  0.98226000  0.59732000  0.81839000  1.0 0.0700561867
C  C250  1  0.95162000  0.63516000  0.80582000  1.0 0.0212810474
C  C251  1  0.97577000  0.67643000  0.80940000  1.0 0.0802501966
C  C252  1  0.94922000  0.71632000  0.79912000  1.0 -0.0774415906
C  C253  1  0.72057000  0.53958000  0.87160000  1.0 0.1811540523
C  C254  1  0.72518000  0.51256000  0.91312000  1.0 0.0295572667
C  C255  1  0.69848000  0.47328000  0.91268000  1.0 0.0802501966
C  C256  1  0.70521000  0.45102000  0.87001000  1.0 -0.0026241661
C  C257  1  0.70067000  0.48125000  0.82956000  1.0 0.0890090345
C  C258  1  0.71109000  0.46189000  0.78639000  1.0 -0.0697673118
C  C259  1  0.68829000  0.37679000  0.85799000  1.0 0.2098333934
C  C260  1  0.68136000  0.34696000  0.89736000  1.0 0.0295572667
C  C261  1  0.63390000  0.34574000  0.91226000  1.0 0.0802501966
C  C262  1  0.60989000  0.33409000  0.87349000  1.0 0.0030588676
C  C263  1  0.61703000  0.36513000  0.83483000  1.0 -0.0323046153
C  C264  1  0.60050000  0.35820000  0.79580000  1.0 -0.0323046153
C  C265  1  0.54679000  0.29599000  0.90029000  1.0 0.1811540523
C  C266  1  0.52001000  0.30251000  0.94101000  1.0 -0.0026241661
C  C267  1  0.47952000  0.32972000  0.93272000  1.0 0.0700561867
C  C268  1  0.45720000  0.31390000  0.89460000  1.0 0.0212810474
C  C269  1  0.48676000  0.30816000  0.85506000  1.0 0.0700561867
C  C270  1  0.46420000  0.29220000  0.81750000  1.0 -0.0976326234
C  C271  1  0.38124000  0.32484000  0.87124000  1.0 0.2098333934
C  C272  1  0.34986000  0.33256000  0.90936000  1.0 0.0212810474
C  C273  1  0.34257000  0.38107000  0.91347000  1.0 -0.0119372062
C  C274  1  0.32633000  0.40233000  0.87203000  1.0 0.0101966559
C  C275  1  0.35850000  0.39210000  0.83500000  1.0 0.0212810474
C  C276  1  0.34570000  0.40540000  0.79550000  1.0 -0.1183927013
C  C277  1  0.28750000  0.47070000  0.84900000  1.0 0.0700561867
C  C278  1  0.27390000  0.49360000  0.88950000  1.0 0.0212810474
C  C279  1  0.30350000  0.53120000  0.89520000  1.0 -0.0379303621
C  C280  1  0.30800000  0.55940000  0.85380000  1.0 -0.0152171994
C  C281  1  0.32120000  0.53220000  0.81710000  1.0 -0.0697673118
C  C282  1  0.33010000  0.55920000  0.77820000  1.0 -0.1545314616
C  C283  1  0.32042000  0.63383000  0.85590000  1.0 0.0101966559
C  C284  1  0.32631000  0.65935000  0.89571000  1.0 0.0101966559
C  C285  1  0.37408000  0.66265000  0.90350000  1.0 0.0700561867
C  C286  1  0.39691000  0.67974000  0.86301000  1.0 0.0101966559
C  C287  1  0.38875000  0.65345000  0.82435000  1.0 0.0700561867
C  C288  1  0.40830000  0.67390000  0.78330000  1.0 -0.0697673118
C  C289  1  0.46054000  0.71964000  0.87282000  1.0 0.1811540523
C  C290  1  0.48907000  0.71831000  0.91132000  1.0 0.0101966559
C  C291  1  0.52559000  0.68403000  0.90473000  1.0 0.0890090345
C  C292  1  0.55054000  0.69781000  0.86351000  1.0 0.0101966559
C  C293  1  0.52027000  0.69882000  0.82551000  1.0 0.0601919673
C  C294  1  0.54081000  0.71221000  0.78231000  1.0 -0.0697673118
C  C295  1  0.62543000  0.68081000  0.84612000  1.0 0.2014881975
C  C296  1  0.65336000  0.67524000  0.88520000  1.0 0.0212810474
C  C297  1  0.65743000  0.62805000  0.89889000  1.0 0.0802501966
C  C298  1  0.67598000  0.60427000  0.86032000  1.0 0.0295572667
C  C299  1  0.64759000  0.61199000  0.82159000  1.0 0.0700561867
C  C300  1  0.66870000  0.59220000  0.78250000  1.0 -0.0608151239
C  C301  1  0.89360000  0.28590000  0.46870000  1.0 0.1206588472
C  C302  1  0.93060000  0.28880000  0.49840000  1.0 0.0601919673
C  C303  1  0.91722000  0.31832000  0.53512000  1.0 0.0295572667
C  C304  1  0.87541000  0.30471000  0.55811000  1.0 0.0030588676
C  C305  1  0.84100000  0.29990000  0.52560000  1.0 0.0382045358
C  C306  1  0.80170000  0.28260000  0.54710000  1.0 0.0295572667
C  C307  1  0.12399000  0.18032000  0.35994000  1.0 0.2098333934
C  C308  1  0.14912000  0.17072000  0.40072000  1.0 -0.0119372062
C  C309  1  0.15464000  0.12227000  0.40810000  1.0 0.0802501966
C  C310  1  0.17530000  0.10269000  0.36868000  1.0 0.0212810474
C  C311  1  0.14995000  0.11510000  0.32825000  1.0 0.0295572667
C  C312  1  0.17383000  0.10013000  0.28763000  1.0 -0.0119372062
C  C313  1  0.21789000  0.03697000  0.37165000  1.0 0.1673836658
C  C314  1  0.21860000  0.00270000  0.40680000  1.0 0.0101966559
C  C315  1  0.19180000  0.96470000  0.39990000  1.0 0.0802501966
C  C316  1  0.20124000  0.94854000  0.35454000  1.0 0.0382045358
C  C317  1  0.19789000  0.98489000  0.32169000  1.0 0.0528535201
C  C318  1  0.20986000  0.97046000  0.27726000  1.0 -0.0697673118
C  C319  1  0.18530000  0.87780000  0.32410000  1.0 0.1884474361
C  C320  1  0.18530000  0.84090000  0.35470000  1.0 0.0295572667
C  C321  1  0.13857000  0.83357000  0.36847000  1.0 0.0601919673
C  C322  1  0.11269000  0.82949000  0.32829000  1.0 0.0601919673
C  C323  1  0.11550000  0.86350000  0.29600000  1.0 -0.0976326234
C  C324  1  0.09740000  0.86060000  0.25610000  1.0 0.0983353411
C  C325  1  0.05019000  0.78809000  0.35239000  1.0 0.1386025796
C  C326  1  0.02705000  0.78435000  0.39115000  1.0 0.0101966559
C  C327  1  0.98489000  0.81519000  0.39539000  1.0 0.0802501966
C  C328  1  0.95970000  0.80854000  0.35658000  1.0 0.0295572667
C  C329  1  0.98746000  0.81446000  0.31606000  1.0 0.0601919673
C  C330  1  0.96560000  0.80730000  0.27590000  1.0 -0.0479199918
C  C331  1  0.88300000  0.82448000  0.35236000  1.0 0.2098333934
C  C332  1  0.85449000  0.83187000  0.39217000  1.0 0.0212810474
C  C333  1  0.84868000  0.87991000  0.39821000  1.0 0.0890090345
C  C334  1  0.83197000  0.90137000  0.35614000  1.0 0.0101966559
C  C335  1  0.86179000  0.89219000  0.31699000  1.0 0.0528535201
C  C336  1  0.84652000  0.90762000  0.27522000  1.0 -0.0608151239
C  C337  1  0.78803000  0.96705000  0.36104000  1.0 0.1884474361
C  C338  1  0.78348000  0.99708000  0.39748000  1.0 0.0030588676
C  C339  1  0.81330000  0.03570000  0.39120000  1.0 0.0802501966
C  C340  1  0.80493000  0.05671000  0.34598000  1.0 0.0212810474
C  C341  1  0.80995000  0.02366000  0.31134000  1.0 0.0700561867
C  C342  1  0.79729000  0.04129000  0.26659000  1.0 -0.0608151239
C  C343  1  0.82212000  0.12912000  0.32202000  1.0 0.2179637443
C  C344  1  0.82087000  0.16137000  0.35657000  1.0 0.0101966559
C  C345  1  0.86566000  0.16588000  0.37240000  1.0 0.0601919673
C  C346  1  0.89625000  0.17609000  0.33643000  1.0 0.0382045358
C  C347  1  0.89534000  0.14244000  0.30094000  1.0 0.0528535201
C  C348  1  0.92118000  0.15428000  0.26248000  1.0 -0.0608151239
C  C349  1  0.95827000  0.21319000  0.35941000  1.0 0.1811540523
C  C350  1  0.97804000  0.21156000  0.40268000  1.0 -0.0026241661
C  C351  1  0.01774000  0.18161000  0.40268000  1.0 0.0700561867
C  C352  1  0.04838000  0.19418000  0.36484000  1.0 0.0212810474
C  C353  1  0.02423000  0.19060000  0.32357000  1.0 0.0802501966
C  C354  1  0.05078000  0.20088000  0.28368000  1.0 -0.0774415906
C  C355  1  0.27943000  0.12840000  0.46042000  1.0 0.1811540523
C  C356  1  0.27482000  0.08688000  0.48744000  1.0 0.0295572667
C  C357  1  0.30152000  0.08732000  0.52672000  1.0 0.0802501966
C  C358  1  0.29479000  0.12999000  0.54898000  1.0 -0.0026241661
C  C359  1  0.29933000  0.17044000  0.51875000  1.0 0.0890090345
C  C360  1  0.28891000  0.21361000  0.53811000  1.0 -0.0697673118
C  C361  1  0.31171000  0.14201000  0.62321000  1.0 0.2098333934
C  C362  1  0.31864000  0.10264000  0.65304000  1.0 0.0295572667
C  C363  1  0.36610000  0.08774000  0.65426000  1.0 0.0802501966
C  C364  1  0.39011000  0.12651000  0.66591000  1.0 0.0030588676
C  C365  1  0.38297000  0.16517000  0.63487000  1.0 -0.0379303621
C  C366  1  0.39950000  0.20420000  0.64180000  1.0 -0.0323046153
C  C367  1  0.45321000  0.09971000  0.70401000  1.0 0.1811540523
C  C368  1  0.47999000  0.05899000  0.69749000  1.0 -0.0026241661
C  C369  1  0.52048000  0.06728000  0.67028000  1.0 0.0700561867
C  C370  1  0.54280000  0.10540000  0.68610000  1.0 0.0212810474
C  C371  1  0.51324000  0.14494000  0.69184000  1.0 0.0700561867
C  C372  1  0.53580000  0.18250000  0.70780000  1.0 -0.0976326234
C  C373  1  0.61876000  0.12876000  0.67516000  1.0 0.2098333934
C  C374  1  0.65014000  0.09064000  0.66744000  1.0 0.0212810474
C  C375  1  0.65743000  0.08653000  0.61893000  1.0 -0.0119372062
C  C376  1  0.67367000  0.12797000  0.59767000  1.0 0.0101966559
C  C377  1  0.64150000  0.16500000  0.60790000  1.0 0.0295572667
C  C378  1  0.65430000  0.20450000  0.59460000  1.0 -0.1091213984
C  C379  1  0.71250000  0.15100000  0.52930000  1.0 0.0700561867
C  C380  1  0.72610000  0.11050000  0.50640000  1.0 0.0212810474
C  C381  1  0.69650000  0.10480000  0.46880000  1.0 -0.0379303621
C  C382  1  0.69200000  0.14620000  0.44060000  1.0 -0.0119372062
C  C383  1  0.67880000  0.18290000  0.46780000  1.0 -0.0697673118
C  C384  1  0.66990000  0.22180000  0.44080000  1.0 -0.1545314616
C  C385  1  0.67958000  0.14410000  0.36617000  1.0 0.0101966559
C  C386  1  0.67369000  0.10429000  0.34065000  1.0 0.0101966559
C  C387  1  0.62592000  0.09650000  0.33735000  1.0 0.0700561867
C  C388  1  0.60309000  0.13699000  0.32026000  1.0 0.0101966559
C  C389  1  0.61125000  0.17565000  0.34655000  1.0 0.0700561867
C  C390  1  0.59170000  0.21670000  0.32610000  1.0 -0.0697673118
C  C391  1  0.53946000  0.12718000  0.28036000  1.0 0.1811540523
C  C392  1  0.51093000  0.08868000  0.28169000  1.0 0.0101966559
C  C393  1  0.47441000  0.09527000  0.31597000  1.0 0.0890090345
C  C394  1  0.44946000  0.13649000  0.30219000  1.0 0.0101966559
C  C395  1  0.47973000  0.17449000  0.30118000  1.0 0.0601919673
C  C396  1  0.45919000  0.21769000  0.28779000  1.0 -0.0697673118
C  C397  1  0.37457000  0.15388000  0.31919000  1.0 0.2014881975
C  C398  1  0.34664000  0.11480000  0.32476000  1.0 0.0212810474
C  C399  1  0.34257000  0.10111000  0.37195000  1.0 0.0890090345
C  C400  1  0.32402000  0.13968000  0.39573000  1.0 0.0295572667
C  C401  1  0.35241000  0.17841000  0.38801000  1.0 0.0700561867
C  C402  1  0.33130000  0.21750000  0.40780000  1.0 -0.0608151239
C  C403  1  0.10640000  0.53130000  0.71410000  1.0 0.1206588472
C  C404  1  0.06940000  0.50160000  0.71120000  1.0 0.0601919673
C  C405  1  0.08278000  0.46488000  0.68168000  1.0 0.0295572667
C  C406  1  0.12459000  0.44189000  0.69529000  1.0 0.0030588676
C  C407  1  0.15900000  0.47440000  0.70010000  1.0 0.0382045358
C  C408  1  0.19830000  0.45290000  0.71740000  1.0 0.0295572667
C  C409  1  0.18032000  0.35994000  0.12399000  1.0 0.2098333934
C  C410  1  0.17072000  0.40072000  0.14912000  1.0 -0.0119372062
C  C411  1  0.12227000  0.40810000  0.15464000  1.0 0.0802501966
C  C412  1  0.10269000  0.36868000  0.17530000  1.0 0.0212810474
C  C413  1  0.11510000  0.32825000  0.14995000  1.0 0.0295572667
C  C414  1  0.10013000  0.28763000  0.17383000  1.0 -0.0119372062
C  C415  1  0.03697000  0.37165000  0.21789000  1.0 0.1673836658
C  C416  1  0.00270000  0.40680000  0.21860000  1.0 0.0101966559
C  C417  1  0.96470000  0.39990000  0.19180000  1.0 0.0802501966
C  C418  1  0.94854000  0.35454000  0.20124000  1.0 0.0382045358
C  C419  1  0.98489000  0.32169000  0.19789000  1.0 0.0601919673
C  C420  1  0.97046000  0.27726000  0.20986000  1.0 -0.0697673118
C  C421  1  0.87780000  0.32410000  0.18530000  1.0 0.1884474361
C  C422  1  0.84090000  0.35470000  0.18530000  1.0 0.0295572667
C  C423  1  0.83357000  0.36847000  0.13857000  1.0 0.0601919673
C  C424  1  0.82949000  0.32829000  0.11269000  1.0 0.0601919673
C  C425  1  0.86350000  0.29600000  0.11550000  1.0 -0.0976326234
C  C426  1  0.86060000  0.25610000  0.09740000  1.0 0.0983353411
C  C427  1  0.78809000  0.35239000  0.05019000  1.0 0.1386025796
C  C428  1  0.78435000  0.39115000  0.02705000  1.0 0.0101966559
C  C429  1  0.81519000  0.39539000  0.98489000  1.0 0.0890090345
C  C430  1  0.80854000  0.35658000  0.95970000  1.0 0.0295572667
C  C431  1  0.81446000  0.31606000  0.98746000  1.0 0.0601919673
C  C432  1  0.80730000  0.27590000  0.96560000  1.0 -0.0479199918
C  C433  1  0.82448000  0.35236000  0.88300000  1.0 0.2098333934
C  C434  1  0.83187000  0.39217000  0.85449000  1.0 0.0212810474
C  C435  1  0.87991000  0.39821000  0.84868000  1.0 0.0983353411
C  C436  1  0.90137000  0.35614000  0.83197000  1.0 0.0101966559
C  C437  1  0.89219000  0.31699000  0.86179000  1.0 0.0528535201
C  C438  1  0.90762000  0.27522000  0.84652000  1.0 -0.0608151239
C  C439  1  0.96705000  0.36104000  0.78803000  1.0 0.1884474361
C  C440  1  0.99708000  0.39748000  0.78348000  1.0 0.0030588676
C  C441  1  0.03570000  0.39120000  0.81330000  1.0 0.0802501966
C  C442  1  0.05671000  0.34598000  0.80493000  1.0 0.0212810474
C  C443  1  0.02366000  0.31134000  0.80995000  1.0 0.0700561867
C  C444  1  0.04129000  0.26659000  0.79729000  1.0 -0.0608151239
C  C445  1  0.12912000  0.32202000  0.82212000  1.0 0.2179637443
C  C446  1  0.16137000  0.35657000  0.82087000  1.0 0.0101966559
C  C447  1  0.16588000  0.37240000  0.86566000  1.0 0.0601919673
C  C448  1  0.17609000  0.33643000  0.89625000  1.0 0.0382045358
C  C449  1  0.14244000  0.30094000  0.89534000  1.0 0.0528535201
C  C450  1  0.15428000  0.26248000  0.92118000  1.0 -0.0608151239
C  C451  1  0.21319000  0.35941000  0.95827000  1.0 0.1811540523
C  C452  1  0.21156000  0.40268000  0.97804000  1.0 -0.0026241661
C  C453  1  0.18161000  0.40268000  0.01774000  1.0 0.0700561867
C  C454  1  0.19418000  0.36484000  0.04838000  1.0 0.0212810474
C  C455  1  0.19060000  0.32357000  0.02423000  1.0 0.0802501966
C  C456  1  0.20088000  0.28368000  0.05078000  1.0 -0.0774415906
C  C457  1  0.12840000  0.46042000  0.27943000  1.0 0.1811540523
C  C458  1  0.08688000  0.48744000  0.27482000  1.0 0.0295572667
C  C459  1  0.08732000  0.52672000  0.30152000  1.0 0.0802501966
C  C460  1  0.12999000  0.54898000  0.29479000  1.0 -0.0026241661
C  C461  1  0.17044000  0.51875000  0.29933000  1.0 0.0890090345
C  C462  1  0.21361000  0.53811000  0.28891000  1.0 -0.0697673118
C  C463  1  0.14201000  0.62321000  0.31171000  1.0 0.2098333934
C  C464  1  0.10264000  0.65304000  0.31864000  1.0 0.0295572667
C  C465  1  0.08774000  0.65426000  0.36610000  1.0 0.0802501966
C  C466  1  0.12651000  0.66591000  0.39011000  1.0 0.0030588676
C  C467  1  0.16517000  0.63487000  0.38297000  1.0 -0.0379303621
C  C468  1  0.20420000  0.64180000  0.39950000  1.0 -0.0323046153
C  C469  1  0.09971000  0.70401000  0.45321000  1.0 0.1811540523
C  C470  1  0.05899000  0.69749000  0.47999000  1.0 -0.0026241661
C  C471  1  0.06728000  0.67028000  0.52048000  1.0 0.0700561867
C  C472  1  0.10540000  0.68610000  0.54280000  1.0 0.0212810474
C  C473  1  0.14494000  0.69184000  0.51324000  1.0 0.0700561867
C  C474  1  0.18250000  0.70780000  0.53580000  1.0 -0.0976326234
C  C475  1  0.12876000  0.67516000  0.61876000  1.0 0.2098333934
C  C476  1  0.09064000  0.66744000  0.65014000  1.0 0.0212810474
C  C477  1  0.08653000  0.61893000  0.65743000  1.0 -0.0119372062
C  C478  1  0.12797000  0.59767000  0.67367000  1.0 0.0101966559
C  C479  1  0.16500000  0.60790000  0.64150000  1.0 0.0212810474
C  C480  1  0.20450000  0.59460000  0.65430000  1.0 -0.1091213984
C  C481  1  0.15100000  0.52930000  0.71250000  1.0 0.0700561867
C  C482  1  0.11050000  0.50640000  0.72610000  1.0 0.0212810474
C  C483  1  0.10480000  0.46880000  0.69650000  1.0 -0.0379303621
C  C484  1  0.14620000  0.44060000  0.69200000  1.0 -0.0152171994
C  C485  1  0.18290000  0.46780000  0.67880000  1.0 -0.0697673118
C  C486  1  0.22180000  0.44080000  0.66990000  1.0 -0.1551236188
C  C487  1  0.14410000  0.36617000  0.67958000  1.0 0.0101966559
C  C488  1  0.10429000  0.34065000  0.67369000  1.0 0.0101966559
C  C489  1  0.09650000  0.33735000  0.62592000  1.0 0.0700561867
C  C490  1  0.13699000  0.32026000  0.60309000  1.0 0.0101966559
C  C491  1  0.17565000  0.34655000  0.61125000  1.0 0.0700561867
C  C492  1  0.21670000  0.32610000  0.59170000  1.0 -0.0697673118
C  C493  1  0.12718000  0.28036000  0.53946000  1.0 0.1811540523
C  C494  1  0.08868000  0.28169000  0.51093000  1.0 0.0101966559
C  C495  1  0.09527000  0.31597000  0.47441000  1.0 0.0890090345
C  C496  1  0.13649000  0.30219000  0.44946000  1.0 0.0101966559
C  C497  1  0.17449000  0.30118000  0.47973000  1.0 0.0601919673
C  C498  1  0.21769000  0.28779000  0.45919000  1.0 -0.0697673118
C  C499  1  0.15388000  0.31919000  0.37457000  1.0 0.2014881975
C  C500  1  0.11480000  0.32476000  0.34664000  1.0 0.0212810474
C  C501  1  0.10111000  0.37195000  0.34257000  1.0 0.0890090345
C  C502  1  0.13968000  0.39573000  0.32402000  1.0 0.0295572667
C  C503  1  0.17841000  0.38801000  0.35241000  1.0 0.0700561867
C  C504  1  0.21750000  0.40780000  0.33130000  1.0 -0.0608151239
C  C505  1  0.53130000  0.71410000  0.10640000  1.0 0.1206588472
C  C506  1  0.50160000  0.71120000  0.06940000  1.0 0.0601919673
C  C507  1  0.46488000  0.68168000  0.08278000  1.0 0.0295572667
C  C508  1  0.44189000  0.69529000  0.12459000  1.0 0.0030588676
C  C509  1  0.47440000  0.70010000  0.15900000  1.0 0.0382045358
C  C510  1  0.45290000  0.71740000  0.19830000  1.0 0.0295572667
C  C511  1  0.35994000  0.12399000  0.18032000  1.0 0.2098333934
C  C512  1  0.40072000  0.14912000  0.17072000  1.0 -0.0119372062
C  C513  1  0.40810000  0.15464000  0.12227000  1.0 0.0802501966
C  C514  1  0.36868000  0.17530000  0.10269000  1.0 0.0212810474
C  C515  1  0.32825000  0.14995000  0.11510000  1.0 0.0295572667
C  C516  1  0.28763000  0.17383000  0.10013000  1.0 -0.0119372062
C  C517  1  0.37165000  0.21789000  0.03697000  1.0 0.1673836658
C  C518  1  0.40680000  0.21860000  0.00270000  1.0 0.0101966559
C  C519  1  0.39990000  0.19180000  0.96470000  1.0 0.0802501966
C  C520  1  0.35454000  0.20124000  0.94854000  1.0 0.0382045358
C  C521  1  0.32169000  0.19789000  0.98489000  1.0 0.0528535201
C  C522  1  0.27726000  0.20986000  0.97046000  1.0 -0.0697673118
C  C523  1  0.32410000  0.18530000  0.87780000  1.0 0.1884474361
C  C524  1  0.35470000  0.18530000  0.84090000  1.0 0.0295572667
C  C525  1  0.36847000  0.13857000  0.83357000  1.0 0.0601919673
C  C526  1  0.32829000  0.11269000  0.82949000  1.0 0.0601919673
C  C527  1  0.29600000  0.11550000  0.86350000  1.0 -0.0976326234
C  C528  1  0.25610000  0.09740000  0.86060000  1.0 0.0983353411
C  C529  1  0.35239000  0.05019000  0.78809000  1.0 0.1386025796
C  C530  1  0.39115000  0.02705000  0.78435000  1.0 0.0101966559
C  C531  1  0.39539000  0.98489000  0.81519000  1.0 0.0802501966
C  C532  1  0.35658000  0.95970000  0.80854000  1.0 0.0295572667
C  C533  1  0.31606000  0.98746000  0.81446000  1.0 0.0601919673
C  C534  1  0.27590000  0.96560000  0.80730000  1.0 -0.0479199918
C  C535  1  0.35236000  0.88300000  0.82448000  1.0 0.2098333934
C  C536  1  0.39217000  0.85449000  0.83187000  1.0 0.0295572667
C  C537  1  0.39821000  0.84868000  0.87991000  1.0 0.0890090345
C  C538  1  0.35614000  0.83197000  0.90137000  1.0 0.0101966559
C  C539  1  0.31699000  0.86179000  0.89219000  1.0 0.0528535201
C  C540  1  0.27522000  0.84652000  0.90762000  1.0 -0.0608151239
C  C541  1  0.36104000  0.78803000  0.96705000  1.0 0.1884474361
C  C542  1  0.39748000  0.78348000  0.99708000  1.0 0.0030588676
C  C543  1  0.39120000  0.81330000  0.03570000  1.0 0.0802501966
C  C544  1  0.34598000  0.80493000  0.05671000  1.0 0.0212810474
C  C545  1  0.31134000  0.80995000  0.02366000  1.0 0.0700561867
C  C546  1  0.26659000  0.79729000  0.04129000  1.0 -0.0608151239
C  C547  1  0.32202000  0.82212000  0.12912000  1.0 0.2179637443
C  C548  1  0.35657000  0.82087000  0.16137000  1.0 0.0101966559
C  C549  1  0.37240000  0.86566000  0.16588000  1.0 0.0601919673
C  C550  1  0.33643000  0.89625000  0.17609000  1.0 0.0382045358
C  C551  1  0.30094000  0.89534000  0.14244000  1.0 0.0528535201
C  C552  1  0.26248000  0.92118000  0.15428000  1.0 -0.0608151239
C  C553  1  0.35941000  0.95827000  0.21319000  1.0 0.1811540523
C  C554  1  0.40268000  0.97804000  0.21156000  1.0 -0.0026241661
C  C555  1  0.40268000  0.01774000  0.18161000  1.0 0.0700561867
C  C556  1  0.36484000  0.04838000  0.19418000  1.0 0.0212810474
C  C557  1  0.32357000  0.02423000  0.19060000  1.0 0.0802501966
C  C558  1  0.28368000  0.05078000  0.20088000  1.0 -0.0774415906
C  C559  1  0.46042000  0.27943000  0.12840000  1.0 0.1811540523
C  C560  1  0.48744000  0.27482000  0.08688000  1.0 0.0295572667
C  C561  1  0.52672000  0.30152000  0.08732000  1.0 0.0802501966
C  C562  1  0.54898000  0.29479000  0.12999000  1.0 -0.0026241661
C  C563  1  0.51875000  0.29933000  0.17044000  1.0 0.0890090345
C  C564  1  0.53811000  0.28891000  0.21361000  1.0 -0.0697673118
C  C565  1  0.62321000  0.31171000  0.14201000  1.0 0.2098333934
C  C566  1  0.65304000  0.31864000  0.10264000  1.0 0.0295572667
C  C567  1  0.65426000  0.36610000  0.08774000  1.0 0.0802501966
C  C568  1  0.66591000  0.39011000  0.12651000  1.0 0.0030588676
C  C569  1  0.63487000  0.38297000  0.16517000  1.0 -0.0323046153
C  C570  1  0.64180000  0.39950000  0.20420000  1.0 -0.0323046153
C  C571  1  0.70401000  0.45321000  0.09971000  1.0 0.1811540523
C  C572  1  0.69749000  0.47999000  0.05899000  1.0 -0.0026241661
C  C573  1  0.67028000  0.52048000  0.06728000  1.0 0.0700561867
C  C574  1  0.68610000  0.54280000  0.10540000  1.0 0.0212810474
C  C575  1  0.69184000  0.51324000  0.14494000  1.0 0.0700561867
C  C576  1  0.70780000  0.53580000  0.18250000  1.0 -0.0976326234
C  C577  1  0.67516000  0.61876000  0.12876000  1.0 0.2098333934
C  C578  1  0.66744000  0.65014000  0.09064000  1.0 0.0212810474
C  C579  1  0.61893000  0.65743000  0.08653000  1.0 -0.0119372062
C  C580  1  0.59767000  0.67367000  0.12797000  1.0 0.0101966559
C  C581  1  0.60790000  0.64150000  0.16500000  1.0 0.0212810474
C  C582  1  0.59460000  0.65430000  0.20450000  1.0 -0.1183927013
C  C583  1  0.52930000  0.71250000  0.15100000  1.0 0.0700561867
C  C584  1  0.50640000  0.72610000  0.11050000  1.0 0.0212810474
C  C585  1  0.46880000  0.69650000  0.10480000  1.0 -0.0379303621
C  C586  1  0.44060000  0.69200000  0.14620000  1.0 -0.0119372062
C  C587  1  0.46780000  0.67880000  0.18290000  1.0 -0.0697673118
C  C588  1  0.44080000  0.66990000  0.22180000  1.0 -0.1545314616
C  C589  1  0.36617000  0.67958000  0.14410000  1.0 0.0101966559
C  C590  1  0.34065000  0.67369000  0.10429000  1.0 0.0101966559
C  C591  1  0.33735000  0.62592000  0.09650000  1.0 0.0700561867
C  C592  1  0.32026000  0.60309000  0.13699000  1.0 0.0101966559
C  C593  1  0.34655000  0.61125000  0.17565000  1.0 0.0700561867
C  C594  1  0.32610000  0.59170000  0.21670000  1.0 -0.0697673118
C  C595  1  0.28036000  0.53946000  0.12718000  1.0 0.1811540523
C  C596  1  0.28169000  0.51093000  0.08868000  1.0 0.0101966559
C  C597  1  0.31597000  0.47441000  0.09527000  1.0 0.0890090345
C  C598  1  0.30219000  0.44946000  0.13649000  1.0 0.0101966559
C  C599  1  0.30118000  0.47973000  0.17449000  1.0 0.0601919673
C  C600  1  0.28779000  0.45919000  0.21769000  1.0 -0.0697673118
C  C601  1  0.31919000  0.37457000  0.15388000  1.0 0.2014881975
C  C602  1  0.32476000  0.34664000  0.11480000  1.0 0.0212810474
C  C603  1  0.37195000  0.34257000  0.10111000  1.0 0.0890090345
C  C604  1  0.39573000  0.32402000  0.13968000  1.0 0.0295572667
C  C605  1  0.38801000  0.35241000  0.17841000  1.0 0.0700561867
C  C606  1  0.40780000  0.33130000  0.21750000  1.0 -0.0608151239
C  C607  1  0.71410000  0.10640000  0.53130000  1.0 0.1206588472
C  C608  1  0.71120000  0.06940000  0.50160000  1.0 0.0601919673
C  C609  1  0.68168000  0.08278000  0.46488000  1.0 0.0295572667
C  C610  1  0.69529000  0.12459000  0.44189000  1.0 0.0030588676
C  C611  1  0.70010000  0.15900000  0.47440000  1.0 0.0382045358
C  C612  1  0.71740000  0.19830000  0.45290000  1.0 0.0295572667
O  O1  1  0.80973000  0.87325000  0.56244000  1.0 -0.5593718911
O  O2  1  0.88666000  0.82010000  0.55477000  1.0 -0.4995408246
O  O3  1  0.83864000  0.85330000  0.67447000  1.0 -0.2831065482
O  O4  1  0.88530000  0.78150000  0.71680000  1.0 -0.420898101
O  O5  1  0.94355000  0.82303000  0.62575000  1.0 -0.2234422565
O  O6  1  0.97871000  0.79140000  0.55352000  1.0 -0.4300178835
O  O7  1  0.07180000  0.80200000  0.57010000  1.0 -0.4785856332
O  O8  1  0.98216000  0.77261000  0.66825000  1.0 -0.3834213541
O  O9  1  0.04944000  0.74822000  0.72457000  1.0 -0.4785856332
O  O10  1  0.08342000  0.82831000  0.65373000  1.0 -0.2690844201
O  O11  1  0.15364000  0.78784000  0.61084000  1.0 -0.4785856332
O  O12  1  0.20503000  0.86214000  0.60395000  1.0 -0.5410012082
O  O13  1  0.12816000  0.83636000  0.71296000  1.0 -0.2410600161
O  O14  1  0.10810000  0.89720000  0.77730000  1.0 -0.3336181865
O  O15  1  0.17035000  0.93078000  0.65699000  1.0 -0.2690844201
O  O16  1  0.20631000  0.94562000  0.57550000  1.0 -0.4700612614
O  O17  1  0.19410000  0.03920000  0.56640000  1.0 -0.4785856332
O  O18  1  0.21719000  0.97824000  0.68344000  1.0 -0.3408999866
O  O19  1  0.23385000  0.04925000  0.72645000  1.0 -0.4300178835
O  O20  1  0.16092000  0.07481000  0.64026000  1.0 -0.2831065482
O  O21  1  0.18887000  0.12791000  0.57103000  1.0 -0.507744431
O  O22  1  0.11290000  0.18177000  0.56779000  1.0 -0.5183331528
O  O23  1  0.15464000  0.13289000  0.68434000  1.0 -0.2903694993
O  O24  1  0.10638000  0.19487000  0.73326000  1.0 -0.420898101
O  O25  1  0.05314000  0.17065000  0.63918000  1.0 -0.2690844201
O  O26  1  0.02561000  0.20783000  0.56323000  1.0 -0.4785856332
O  O27  1  0.93422000  0.19642000  0.57714000  1.0 -0.5593718911
O  O28  1  0.01090000  0.21973000  0.67821000  1.0 -0.347777246
O  O29  1  0.94138000  0.24600000  0.73085000  1.0 -0.507744431
O  O30  1  0.91205000  0.16381000  0.66060000  1.0 -0.2690844201
O  O31  1  0.85128000  0.20942000  0.60955000  1.0 -0.5807007626
O  O32  1  0.80184000  0.13496000  0.59587000  1.0 -0.5807007626
O  O33  1  0.85858000  0.14994000  0.71150000  1.0 -0.2638057077
O  O34  1  0.80480000  0.08830000  0.75450000  1.0 -0.420898101
O  O35  1  0.82656000  0.06023000  0.64867000  1.0 -0.2690844201
O  O36  1  0.80018000  0.05385000  0.56581000  1.0 -0.507744431
O  O37  1  0.81538000  0.95977000  0.55715000  1.0 -0.4896449637
O  O38  1  0.77783000  0.01110000  0.67492000  1.0 -0.3697789461
O  O39  1  0.75757000  0.93219000  0.71445000  1.0 -0.4785856332
O  O40  1  0.83660000  0.91652000  0.63321000  1.0 -0.2638057077
O  O41  1  0.95085000  0.71701000  0.53694000  1.0 -0.4700612614
O  O42  1  0.94799000  0.71042000  0.44487000  1.0 -0.4995408246
O  O43  1  0.83335000  0.72897000  0.51633000  1.0 -0.3183949714
O  O44  1  0.78710000  0.75378000  0.44306000  1.0 -0.507744431
O  O45  1  0.86900000  0.67347000  0.41870000  1.0 -0.2690844201
O  O46  1  0.93131000  0.70605000  0.35957000  1.0 -0.4700612614
O  O47  1  0.94680000  0.62913000  0.31531000  1.0 -0.5183331528
O  O48  1  0.82460000  0.66390000  0.36560000  1.0 -0.2690844201
O  O49  1  0.78100000  0.60680000  0.31510000  1.0 -0.2234422565
O  O50  1  0.88633000  0.56432000  0.33577000  1.0 -0.2903694993
O  O51  1  0.97323000  0.54430000  0.32058000  1.0 -0.463701763
O  O52  1  0.97034000  0.45094000  0.33064000  1.0 -0.4785856332
O  O53  1  0.86844000  0.52262000  0.28136000  1.0 -0.311834929
O  O54  1  0.78027000  0.49227000  0.28807000  1.0 -0.420898101
O  O55  1  0.88252000  0.42127000  0.34157000  1.0 -0.2638057077
O  O56  1  0.94749000  0.36647000  0.31211000  1.0 -0.4896449637
O  O57  1  0.94763000  0.31153000  0.38713000  1.0 -0.5724477495
O  O58  1  0.83308000  0.36508000  0.34388000  1.0 -0.2690844201
O  O59  1  0.78769000  0.30239000  0.39529000  1.0 -0.4896449637
O  O60  1  0.85390000  0.32560000  0.44750000  1.0 -0.0976326234
O  O61  1  0.92532000  0.27172000  0.46602000  1.0 -0.1091213984
O  O62  1  0.93280000  0.28870000  0.55400000  1.0 -0.0697673118
O  O63  1  0.81189000  0.28969000  0.50169000  1.0 -0.0479199918
O  O64  1  0.76610000  0.28910000  0.58170000  1.0 -0.2690844201
O  O65  1  0.86379000  0.33577000  0.59058000  1.0 -0.2292111045
O  O66  1  0.93189000  0.30288000  0.64090000  1.0 -0.5410012082
O  O67  1  0.93942000  0.37796000  0.68960000  1.0 -0.5306688125
O  O68  1  0.82037000  0.34320000  0.65153000  1.0 -0.2903694993
O  O69  1  0.77420000  0.39440000  0.71760000  1.0 -0.4376812191
O  O70  1  0.86922000  0.44211000  0.67858000  1.0 -0.2690844201
O  O71  1  0.95146000  0.46637000  0.70891000  1.0 -0.5183331528
O  O72  1  0.94057000  0.55295000  0.68377000  1.0 -0.4995408246
O  O73  1  0.83410000  0.48493000  0.72950000  1.0 -0.347777246
O  O74  1  0.78523000  0.55867000  0.75362000  1.0 -0.4785856332
O  O75  1  0.85693000  0.58384000  0.66536000  1.0 -0.2903694993
O  O76  1  0.91836000  0.63424000  0.70158000  1.0 -0.5306688125
O  O77  1  0.93381000  0.68544000  0.62308000  1.0 -0.5491106436
O  O78  1  0.81178000  0.64359000  0.65682000  1.0 -0.2976621117
O  O79  1  0.77210000  0.71090000  0.60570000  1.0 -0.4300178835
O  O80  1  0.87130000  0.67862000  0.55885000  1.0 -0.2638057077
O  O81  1  0.88030000  0.85060000  0.75020000  1.0 -0.4010687794
O  O82  1  0.16940000  0.88050000  0.77020000  1.0 -0.3565032309
O  O83  1  0.35600000  0.76260000  0.60010000  1.0 -0.0878428178
O  O84  1  0.44709000  0.88269000  0.32589000  1.0 -0.1183927013
O  O85  1  0.47340000  0.96730000  0.30350000  1.0 -0.3697789461
O  O86  1  0.56321000  0.95261000  0.31901000  1.0 -0.1697954263
O  O87  1  0.49190000  0.85610000  0.27050000  1.0 -0.0878428178
O  O88  1  0.51710000  0.76850000  0.28280000  1.0 -0.2903694993
O  O89  1  0.56244000  0.80973000  0.87325000  1.0 -0.5593718911
O  O90  1  0.55477000  0.88666000  0.82010000  1.0 -0.4995408246
O  O91  1  0.67447000  0.83864000  0.85330000  1.0 -0.2831065482
O  O92  1  0.71680000  0.88530000  0.78150000  1.0 -0.420898101
O  O93  1  0.62575000  0.94355000  0.82303000  1.0 -0.2234422565
O  O94  1  0.55352000  0.97871000  0.79140000  1.0 -0.4300178835
O  O95  1  0.57010000  0.07180000  0.80200000  1.0 -0.4785856332
O  O96  1  0.66825000  0.98216000  0.77261000  1.0 -0.3858263717
O  O97  1  0.72457000  0.04944000  0.74822000  1.0 -0.4785856332
O  O98  1  0.65373000  0.08342000  0.82831000  1.0 -0.2690844201
O  O99  1  0.61084000  0.15364000  0.78784000  1.0 -0.4785856332
O  O100  1  0.60395000  0.20503000  0.86214000  1.0 -0.5410012082
O  O101  1  0.71296000  0.12816000  0.83636000  1.0 -0.2410600161
O  O102  1  0.77730000  0.10810000  0.89720000  1.0 -0.3408999866
O  O103  1  0.65699000  0.17035000  0.93078000  1.0 -0.2690844201
O  O104  1  0.57550000  0.20631000  0.94562000  1.0 -0.4700612614
O  O105  1  0.56640000  0.19410000  0.03920000  1.0 -0.4785856332
O  O106  1  0.68344000  0.21719000  0.97824000  1.0 -0.347777246
O  O107  1  0.72645000  0.23385000  0.04925000  1.0 -0.4300178835
O  O108  1  0.64026000  0.16092000  0.07481000  1.0 -0.2831065482
O  O109  1  0.57103000  0.18887000  0.12791000  1.0 -0.507744431
O  O110  1  0.56779000  0.11290000  0.18177000  1.0 -0.5183331528
O  O111  1  0.68434000  0.15464000  0.13289000  1.0 -0.2903694993
O  O112  1  0.73326000  0.10638000  0.19487000  1.0 -0.420898101
O  O113  1  0.63918000  0.05314000  0.17065000  1.0 -0.2690844201
O  O114  1  0.56323000  0.02561000  0.20783000  1.0 -0.4785856332
O  O115  1  0.57714000  0.93422000  0.19642000  1.0 -0.5593718911
O  O116  1  0.67821000  0.01090000  0.21973000  1.0 -0.347777246
O  O117  1  0.73085000  0.94138000  0.24600000  1.0 -0.507744431
O  O118  1  0.66060000  0.91205000  0.16381000  1.0 -0.2690844201
O  O119  1  0.60955000  0.85128000  0.20942000  1.0 -0.5807007626
O  O120  1  0.59587000  0.80184000  0.13496000  1.0 -0.5807007626
O  O121  1  0.71150000  0.85858000  0.14994000  1.0 -0.2638057077
O  O122  1  0.75450000  0.80480000  0.08830000  1.0 -0.420898101
O  O123  1  0.64867000  0.82656000  0.06023000  1.0 -0.2690844201
O  O124  1  0.56581000  0.80018000  0.05385000  1.0 -0.507744431
O  O125  1  0.55715000  0.81538000  0.95977000  1.0 -0.4896449637
O  O126  1  0.67492000  0.77783000  0.01110000  1.0 -0.3697789461
O  O127  1  0.71445000  0.75757000  0.93219000  1.0 -0.4785856332
O  O128  1  0.63321000  0.83660000  0.91652000  1.0 -0.2638057077
O  O129  1  0.53694000  0.95085000  0.71701000  1.0 -0.4700612614
O  O130  1  0.44487000  0.94799000  0.71042000  1.0 -0.4995408246
O  O131  1  0.51633000  0.83335000  0.72897000  1.0 -0.3183949714
O  O132  1  0.44306000  0.78710000  0.75378000  1.0 -0.507744431
O  O133  1  0.41870000  0.86900000  0.67347000  1.0 -0.2690844201
O  O134  1  0.35957000  0.93131000  0.70605000  1.0 -0.4785856332
O  O135  1  0.31531000  0.94680000  0.62913000  1.0 -0.5183331528
O  O136  1  0.36560000  0.82460000  0.66390000  1.0 -0.2690844201
O  O137  1  0.31510000  0.78100000  0.60680000  1.0 -0.2234422565
O  O138  1  0.33577000  0.88633000  0.56432000  1.0 -0.2903694993
O  O139  1  0.32058000  0.97323000  0.54430000  1.0 -0.463701763
O  O140  1  0.33064000  0.97034000  0.45094000  1.0 -0.4785856332
O  O141  1  0.28136000  0.86844000  0.52262000  1.0 -0.311834929
O  O142  1  0.28807000  0.78027000  0.49227000  1.0 -0.420898101
O  O143  1  0.34157000  0.88252000  0.42127000  1.0 -0.2638057077
O  O144  1  0.31211000  0.94749000  0.36647000  1.0 -0.4896449637
O  O145  1  0.38713000  0.94763000  0.31153000  1.0 -0.5724477495
O  O146  1  0.34388000  0.83308000  0.36508000  1.0 -0.2690844201
O  O147  1  0.39529000  0.78769000  0.30239000  1.0 -0.4896449637
O  O148  1  0.44750000  0.85390000  0.32560000  1.0 -0.0976326234
O  O149  1  0.46602000  0.92532000  0.27172000  1.0 -0.1091213984
O  O150  1  0.55400000  0.93280000  0.28870000  1.0 -0.0697673118
O  O151  1  0.50169000  0.81189000  0.28969000  1.0 -0.0479199918
O  O152  1  0.58170000  0.76610000  0.28910000  1.0 -0.2690844201
O  O153  1  0.59058000  0.86379000  0.33577000  1.0 -0.2292111045
O  O154  1  0.64090000  0.93189000  0.30288000  1.0 -0.5410012082
O  O155  1  0.68960000  0.93942000  0.37796000  1.0 -0.5306688125
O  O156  1  0.65153000  0.82037000  0.34320000  1.0 -0.2903694993
O  O157  1  0.71760000  0.77420000  0.39440000  1.0 -0.4376812191
O  O158  1  0.67858000  0.86922000  0.44211000  1.0 -0.2690844201
O  O159  1  0.70891000  0.95146000  0.46637000  1.0 -0.5183331528
O  O160  1  0.68377000  0.94057000  0.55295000  1.0 -0.4995408246
O  O161  1  0.72950000  0.83410000  0.48493000  1.0 -0.347777246
O  O162  1  0.75362000  0.78523000  0.55867000  1.0 -0.4785856332
O  O163  1  0.66536000  0.85693000  0.58384000  1.0 -0.2903694993
O  O164  1  0.70158000  0.91836000  0.63424000  1.0 -0.5306688125
O  O165  1  0.62308000  0.93381000  0.68544000  1.0 -0.5491106436
O  O166  1  0.65682000  0.81178000  0.64359000  1.0 -0.2976621117
O  O167  1  0.60570000  0.77210000  0.71090000  1.0 -0.4300178835
O  O168  1  0.55885000  0.87130000  0.67862000  1.0 -0.2638057077
O  O169  1  0.75020000  0.88030000  0.85060000  1.0 -0.4010687794
O  O170  1  0.77020000  0.16940000  0.88050000  1.0 -0.347777246
O  O171  1  0.60010000  0.35600000  0.76260000  1.0 -0.0878428178
O  O172  1  0.32589000  0.44709000  0.88269000  1.0 -0.1183927013
O  O173  1  0.30350000  0.47340000  0.96730000  1.0 -0.3697789461
O  O174  1  0.31901000  0.56321000  0.95261000  1.0 -0.1697954263
O  O175  1  0.27050000  0.49190000  0.85610000  1.0 -0.0878428178
O  O176  1  0.28280000  0.51710000  0.76850000  1.0 -0.2903694993
O  O177  1  0.87325000  0.56244000  0.80973000  1.0 -0.5593718911
O  O178  1  0.82010000  0.55477000  0.88666000  1.0 -0.4995408246
O  O179  1  0.85330000  0.67447000  0.83864000  1.0 -0.2831065482
O  O180  1  0.78150000  0.71680000  0.88530000  1.0 -0.420898101
O  O181  1  0.82303000  0.62575000  0.94355000  1.0 -0.2234422565
O  O182  1  0.79140000  0.55352000  0.97871000  1.0 -0.4300178835
O  O183  1  0.80200000  0.57010000  0.07180000  1.0 -0.4785856332
O  O184  1  0.77261000  0.66825000  0.98216000  1.0 -0.3834213541
O  O185  1  0.74822000  0.72457000  0.04944000  1.0 -0.4785856332
O  O186  1  0.82831000  0.65373000  0.08342000  1.0 -0.2690844201
O  O187  1  0.78784000  0.61084000  0.15364000  1.0 -0.4785856332
O  O188  1  0.86214000  0.60395000  0.20503000  1.0 -0.5410012082
O  O189  1  0.83636000  0.71296000  0.12816000  1.0 -0.2410600161
O  O190  1  0.89720000  0.77730000  0.10810000  1.0 -0.3408999866
O  O191  1  0.93078000  0.65699000  0.17035000  1.0 -0.2690844201
O  O192  1  0.94562000  0.57550000  0.20631000  1.0 -0.4700612614
O  O193  1  0.03920000  0.56640000  0.19410000  1.0 -0.4785856332
O  O194  1  0.97824000  0.68344000  0.21719000  1.0 -0.3408999866
O  O195  1  0.04925000  0.72645000  0.23385000  1.0 -0.4300178835
O  O196  1  0.07481000  0.64026000  0.16092000  1.0 -0.2831065482
O  O197  1  0.12791000  0.57103000  0.18887000  1.0 -0.507744431
O  O198  1  0.18177000  0.56779000  0.11290000  1.0 -0.5183331528
O  O199  1  0.13289000  0.68434000  0.15464000  1.0 -0.2903694993
O  O200  1  0.19487000  0.73326000  0.10638000  1.0 -0.420898101
O  O201  1  0.17065000  0.63918000  0.05314000  1.0 -0.2690844201
O  O202  1  0.20783000  0.56323000  0.02561000  1.0 -0.4785856332
O  O203  1  0.19642000  0.57714000  0.93422000  1.0 -0.5593718911
O  O204  1  0.21973000  0.67821000  0.01090000  1.0 -0.347777246
O  O205  1  0.24600000  0.73085000  0.94138000  1.0 -0.507744431
O  O206  1  0.16381000  0.66060000  0.91205000  1.0 -0.2690844201
O  O207  1  0.20942000  0.60955000  0.85128000  1.0 -0.5807007626
O  O208  1  0.13496000  0.59587000  0.80184000  1.0 -0.5807007626
O  O209  1  0.14994000  0.71150000  0.85858000  1.0 -0.2638057077
O  O210  1  0.08830000  0.75450000  0.80480000  1.0 -0.420898101
O  O211  1  0.06023000  0.64867000  0.82656000  1.0 -0.2690844201
O  O212  1  0.05385000  0.56581000  0.80018000  1.0 -0.507744431
O  O213  1  0.95977000  0.55715000  0.81538000  1.0 -0.4896449637
O  O214  1  0.01110000  0.67492000  0.77783000  1.0 -0.3697789461
O  O215  1  0.93219000  0.71445000  0.75757000  1.0 -0.4785856332
O  O216  1  0.91652000  0.63321000  0.83660000  1.0 -0.2638057077
O  O217  1  0.71701000  0.53694000  0.95085000  1.0 -0.4700612614
O  O218  1  0.71042000  0.44487000  0.94799000  1.0 -0.4995408246
O  O219  1  0.72897000  0.51633000  0.83335000  1.0 -0.3183949714
O  O220  1  0.75378000  0.44306000  0.78710000  1.0 -0.507744431
O  O221  1  0.67347000  0.41870000  0.86900000  1.0 -0.2690844201
O  O222  1  0.70605000  0.35957000  0.93131000  1.0 -0.4700612614
O  O223  1  0.62913000  0.31531000  0.94680000  1.0 -0.5183331528
O  O224  1  0.66390000  0.36560000  0.82460000  1.0 -0.2690844201
O  O225  1  0.60680000  0.31510000  0.78100000  1.0 -0.2234422565
O  O226  1  0.56432000  0.33577000  0.88633000  1.0 -0.2903694993
O  O227  1  0.54430000  0.32058000  0.97323000  1.0 -0.463701763
O  O228  1  0.45094000  0.33064000  0.97034000  1.0 -0.4785856332
O  O229  1  0.52262000  0.28136000  0.86844000  1.0 -0.311834929
O  O230  1  0.49227000  0.28807000  0.78027000  1.0 -0.420898101
O  O231  1  0.42127000  0.34157000  0.88252000  1.0 -0.2638057077
O  O232  1  0.36647000  0.31211000  0.94749000  1.0 -0.4896449637
O  O233  1  0.31153000  0.38713000  0.94763000  1.0 -0.5724477495
O  O234  1  0.36508000  0.34388000  0.83308000  1.0 -0.2690844201
O  O235  1  0.30239000  0.39529000  0.78769000  1.0 -0.4896449637
O  O236  1  0.32560000  0.44750000  0.85390000  1.0 -0.0976326234
O  O237  1  0.27172000  0.46602000  0.92532000  1.0 -0.1091213984
O  O238  1  0.28870000  0.55400000  0.93280000  1.0 -0.0697673118
O  O239  1  0.28969000  0.50169000  0.81189000  1.0 -0.0479199918
O  O240  1  0.28910000  0.58170000  0.76610000  1.0 -0.2690844201
O  O241  1  0.33577000  0.59058000  0.86379000  1.0 -0.2292111045
O  O242  1  0.30288000  0.64090000  0.93189000  1.0 -0.5410012082
O  O243  1  0.37796000  0.68960000  0.93942000  1.0 -0.5306688125
O  O244  1  0.34320000  0.65153000  0.82037000  1.0 -0.2903694993
O  O245  1  0.39440000  0.71760000  0.77420000  1.0 -0.4376812191
O  O246  1  0.44211000  0.67858000  0.86922000  1.0 -0.2690844201
O  O247  1  0.46637000  0.70891000  0.95146000  1.0 -0.5183331528
O  O248  1  0.55295000  0.68377000  0.94057000  1.0 -0.4995408246
O  O249  1  0.48493000  0.72950000  0.83410000  1.0 -0.347777246
O  O250  1  0.55867000  0.75362000  0.78523000  1.0 -0.4785856332
O  O251  1  0.58384000  0.66536000  0.85693000  1.0 -0.2903694993
O  O252  1  0.63424000  0.70158000  0.91836000  1.0 -0.5306688125
O  O253  1  0.68544000  0.62308000  0.93381000  1.0 -0.5491106436
O  O254  1  0.64359000  0.65682000  0.81178000  1.0 -0.2976621117
O  O255  1  0.71090000  0.60570000  0.77210000  1.0 -0.4376812191
O  O256  1  0.67862000  0.55885000  0.87130000  1.0 -0.2638057077
O  O257  1  0.85060000  0.75020000  0.88030000  1.0 -0.4010687794
O  O258  1  0.88050000  0.77020000  0.16940000  1.0 -0.3565032309
O  O259  1  0.76260000  0.60010000  0.35600000  1.0 -0.0878428178
O  O260  1  0.88269000  0.32589000  0.44709000  1.0 -0.1183927013
O  O261  1  0.96730000  0.30350000  0.47340000  1.0 -0.3697789461
O  O262  1  0.95261000  0.31901000  0.56321000  1.0 -0.1697954263
O  O263  1  0.85610000  0.27050000  0.49190000  1.0 -0.0878428178
O  O264  1  0.76850000  0.28280000  0.51710000  1.0 -0.2903694993
O  O265  1  0.12675000  0.19027000  0.43756000  1.0 -0.5593718911
O  O266  1  0.17990000  0.11334000  0.44523000  1.0 -0.4995408246
O  O267  1  0.14670000  0.16136000  0.32553000  1.0 -0.2831065482
O  O268  1  0.21850000  0.11470000  0.28320000  1.0 -0.420898101
O  O269  1  0.17697000  0.05645000  0.37425000  1.0 -0.2234422565
O  O270  1  0.20860000  0.02129000  0.44648000  1.0 -0.4300178835
O  O271  1  0.19800000  0.92820000  0.42990000  1.0 -0.4785856332
O  O272  1  0.22739000  0.01784000  0.33175000  1.0 -0.3834213541
O  O273  1  0.25178000  0.95056000  0.27543000  1.0 -0.4785856332
O  O274  1  0.17169000  0.91658000  0.34627000  1.0 -0.2690844201
O  O275  1  0.21216000  0.84636000  0.38916000  1.0 -0.4785856332
O  O276  1  0.13786000  0.79497000  0.39605000  1.0 -0.5410012082
O  O277  1  0.16364000  0.87184000  0.28704000  1.0 -0.2410600161
O  O278  1  0.10280000  0.89190000  0.22270000  1.0 -0.3336181865
O  O279  1  0.06922000  0.82965000  0.34301000  1.0 -0.2690844201
O  O280  1  0.05438000  0.79369000  0.42450000  1.0 -0.4700612614
O  O281  1  0.96080000  0.80590000  0.43360000  1.0 -0.4785856332
O  O282  1  0.02176000  0.78281000  0.31656000  1.0 -0.3408999866
O  O283  1  0.95075000  0.76615000  0.27355000  1.0 -0.4300178835
O  O284  1  0.92519000  0.83908000  0.35974000  1.0 -0.2831065482
O  O285  1  0.87209000  0.81113000  0.42897000  1.0 -0.507744431
O  O286  1  0.81823000  0.88710000  0.43221000  1.0 -0.5183331528
O  O287  1  0.86711000  0.84536000  0.31566000  1.0 -0.2903694993
O  O288  1  0.80513000  0.89362000  0.26674000  1.0 -0.420898101
O  O289  1  0.82935000  0.94686000  0.36082000  1.0 -0.2690844201
O  O290  1  0.79217000  0.97439000  0.43677000  1.0 -0.4785856332
O  O291  1  0.80358000  0.06578000  0.42286000  1.0 -0.5593718911
O  O292  1  0.78027000  0.98910000  0.32179000  1.0 -0.347777246
O  O293  1  0.75400000  0.05862000  0.26915000  1.0 -0.507744431
O  O294  1  0.83619000  0.08795000  0.33940000  1.0 -0.2690844201
O  O295  1  0.79058000  0.14872000  0.39045000  1.0 -0.5807007626
O  O296  1  0.86504000  0.19816000  0.40413000  1.0 -0.5807007626
O  O297  1  0.85006000  0.14142000  0.28850000  1.0 -0.2638057077
O  O298  1  0.91170000  0.19520000  0.24550000  1.0 -0.420898101
O  O299  1  0.93977000  0.17344000  0.35133000  1.0 -0.2690844201
O  O300  1  0.94615000  0.19982000  0.43419000  1.0 -0.507744431
O  O301  1  0.04023000  0.18462000  0.44285000  1.0 -0.4896449637
O  O302  1  0.98890000  0.22217000  0.32508000  1.0 -0.3697789461
O  O303  1  0.06781000  0.24243000  0.28555000  1.0 -0.4785856332
O  O304  1  0.08348000  0.16340000  0.36679000  1.0 -0.2638057077
O  O305  1  0.28299000  0.04915000  0.46306000  1.0 -0.4700612614
O  O306  1  0.28958000  0.05201000  0.55513000  1.0 -0.4995408246
O  O307  1  0.27103000  0.16665000  0.48367000  1.0 -0.3183949714
O  O308  1  0.24622000  0.21290000  0.55694000  1.0 -0.4995408246
O  O309  1  0.32653000  0.13100000  0.58130000  1.0 -0.2690844201
O  O310  1  0.29395000  0.06869000  0.64043000  1.0 -0.4785856332
O  O311  1  0.37087000  0.05320000  0.68469000  1.0 -0.5183331528
O  O312  1  0.33610000  0.17540000  0.63440000  1.0 -0.2690844201
O  O313  1  0.39320000  0.21900000  0.68490000  1.0 -0.2234422565
O  O314  1  0.43568000  0.11367000  0.66423000  1.0 -0.2903694993
O  O315  1  0.45570000  0.02677000  0.67942000  1.0 -0.463701763
O  O316  1  0.54906000  0.02966000  0.66936000  1.0 -0.4785856332
O  O317  1  0.47738000  0.13156000  0.71864000  1.0 -0.311834929
O  O318  1  0.50773000  0.21973000  0.71193000  1.0 -0.420898101
O  O319  1  0.57873000  0.11748000  0.65843000  1.0 -0.2638057077
O  O320  1  0.63353000  0.05251000  0.68789000  1.0 -0.4896449637
O  O321  1  0.68847000  0.05237000  0.61287000  1.0 -0.5724477495
O  O322  1  0.63492000  0.16692000  0.65612000  1.0 -0.2690844201
O  O323  1  0.69761000  0.21231000  0.60471000  1.0 -0.4896449637
O  O324  1  0.67440000  0.14610000  0.55250000  1.0 -0.0976326234
O  O325  1  0.72828000  0.07468000  0.53398000  1.0 -0.1091213984
O  O326  1  0.71130000  0.06720000  0.44600000  1.0 -0.0697673118
O  O327  1  0.71031000  0.18811000  0.49831000  1.0 -0.0479199918
O  O328  1  0.71090000  0.23390000  0.41830000  1.0 -0.2690844201
O  O329  1  0.66423000  0.13621000  0.40942000  1.0 -0.2292111045
O  O330  1  0.69712000  0.06811000  0.35910000  1.0 -0.5410012082
O  O331  1  0.62204000  0.06058000  0.31040000  1.0 -0.5306688125
O  O332  1  0.65680000  0.17963000  0.34847000  1.0 -0.2903694993
O  O333  1  0.60560000  0.22580000  0.28240000  1.0 -0.4376812191
O  O334  1  0.55789000  0.13078000  0.32142000  1.0 -0.2690844201
O  O335  1  0.53363000  0.04854000  0.29109000  1.0 -0.5183331528
O  O336  1  0.44705000  0.05943000  0.31623000  1.0 -0.4995408246
O  O337  1  0.51507000  0.16590000  0.27050000  1.0 -0.347777246
O  O338  1  0.44133000  0.21477000  0.24638000  1.0 -0.4785856332
O  O339  1  0.41616000  0.14307000  0.33464000  1.0 -0.2903694993
O  O340  1  0.36576000  0.08164000  0.29842000  1.0 -0.5306688125
O  O341  1  0.31456000  0.06619000  0.37692000  1.0 -0.5491106436
O  O342  1  0.35641000  0.18822000  0.34318000  1.0 -0.2976621117
O  O343  1  0.28910000  0.22790000  0.39430000  1.0 -0.4300178835
O  O344  1  0.32138000  0.12870000  0.44115000  1.0 -0.2690844201
O  O345  1  0.14940000  0.11970000  0.24980000  1.0 -0.4010687794
O  O346  1  0.11950000  0.83060000  0.22980000  1.0 -0.3565032309
O  O347  1  0.23740000  0.64400000  0.39990000  1.0 -0.0878428178
O  O348  1  0.11731000  0.55291000  0.67411000  1.0 -0.1183927013
O  O349  1  0.03270000  0.52660000  0.69650000  1.0 -0.3697789461
O  O350  1  0.04739000  0.43679000  0.68099000  1.0 -0.1697954263
O  O351  1  0.14390000  0.50810000  0.72950000  1.0 -0.0878428178
O  O352  1  0.23150000  0.48290000  0.71720000  1.0 -0.2903694993
O  O353  1  0.19027000  0.43756000  0.12675000  1.0 -0.5593718911
O  O354  1  0.11334000  0.44523000  0.17990000  1.0 -0.4995408246
O  O355  1  0.16136000  0.32553000  0.14670000  1.0 -0.2831065482
O  O356  1  0.11470000  0.28320000  0.21850000  1.0 -0.420898101
O  O357  1  0.05645000  0.37425000  0.17697000  1.0 -0.2234422565
O  O358  1  0.02129000  0.44648000  0.20860000  1.0 -0.4300178835
O  O359  1  0.92820000  0.42990000  0.19800000  1.0 -0.4785856332
O  O360  1  0.01784000  0.33175000  0.22739000  1.0 -0.3858263717
O  O361  1  0.95056000  0.27543000  0.25178000  1.0 -0.4785856332
O  O362  1  0.91658000  0.34627000  0.17169000  1.0 -0.2690844201
O  O363  1  0.84636000  0.38916000  0.21216000  1.0 -0.4785856332
O  O364  1  0.79497000  0.39605000  0.13786000  1.0 -0.5410012082
O  O365  1  0.87184000  0.28704000  0.16364000  1.0 -0.2410600161
O  O366  1  0.89190000  0.22270000  0.10280000  1.0 -0.3408999866
O  O367  1  0.82965000  0.34301000  0.06922000  1.0 -0.2690844201
O  O368  1  0.79369000  0.42450000  0.05438000  1.0 -0.4700612614
O  O369  1  0.80590000  0.43360000  0.96080000  1.0 -0.4785856332
O  O370  1  0.78281000  0.31656000  0.02176000  1.0 -0.3408999866
O  O371  1  0.76615000  0.27355000  0.95075000  1.0 -0.4300178835
O  O372  1  0.83908000  0.35974000  0.92519000  1.0 -0.2831065482
O  O373  1  0.81113000  0.42897000  0.87209000  1.0 -0.507744431
O  O374  1  0.88710000  0.43221000  0.81823000  1.0 -0.5183331528
O  O375  1  0.84536000  0.31566000  0.86711000  1.0 -0.2903694993
O  O376  1  0.89362000  0.26674000  0.80513000  1.0 -0.420898101
O  O377  1  0.94686000  0.36082000  0.82935000  1.0 -0.2690844201
O  O378  1  0.97439000  0.43677000  0.79217000  1.0 -0.4785856332
O  O379  1  0.06578000  0.42286000  0.80358000  1.0 -0.5593718911
O  O380  1  0.98910000  0.32179000  0.78027000  1.0 -0.347777246
O  O381  1  0.05862000  0.26915000  0.75400000  1.0 -0.507744431
O  O382  1  0.08795000  0.33940000  0.83619000  1.0 -0.2690844201
O  O383  1  0.14872000  0.39045000  0.79058000  1.0 -0.5807007626
O  O384  1  0.19816000  0.40413000  0.86504000  1.0 -0.5807007626
O  O385  1  0.14142000  0.28850000  0.85006000  1.0 -0.2638057077
O  O386  1  0.19520000  0.24550000  0.91170000  1.0 -0.420898101
O  O387  1  0.17344000  0.35133000  0.93977000  1.0 -0.2690844201
O  O388  1  0.19982000  0.43419000  0.94615000  1.0 -0.507744431
O  O389  1  0.18462000  0.44285000  0.04023000  1.0 -0.4896449637
O  O390  1  0.22217000  0.32508000  0.98890000  1.0 -0.3697789461
O  O391  1  0.24243000  0.28555000  0.06781000  1.0 -0.4785856332
O  O392  1  0.16340000  0.36679000  0.08348000  1.0 -0.2638057077
O  O393  1  0.04915000  0.46306000  0.28299000  1.0 -0.4700612614
O  O394  1  0.05201000  0.55513000  0.28958000  1.0 -0.4995408246
O  O395  1  0.16665000  0.48367000  0.27103000  1.0 -0.3183949714
O  O396  1  0.21290000  0.55694000  0.24622000  1.0 -0.507744431
O  O397  1  0.13100000  0.58130000  0.32653000  1.0 -0.2690844201
O  O398  1  0.06869000  0.64043000  0.29395000  1.0 -0.4785856332
O  O399  1  0.05320000  0.68469000  0.37087000  1.0 -0.5183331528
O  O400  1  0.17540000  0.63440000  0.33610000  1.0 -0.2690844201
O  O401  1  0.21900000  0.68490000  0.39320000  1.0 -0.2234422565
O  O402  1  0.11367000  0.66423000  0.43568000  1.0 -0.2903694993
O  O403  1  0.02677000  0.67942000  0.45570000  1.0 -0.463701763
O  O404  1  0.02966000  0.66936000  0.54906000  1.0 -0.4785856332
O  O405  1  0.13156000  0.71864000  0.47738000  1.0 -0.311834929
O  O406  1  0.21973000  0.71193000  0.50773000  1.0 -0.420898101
O  O407  1  0.11748000  0.65843000  0.57873000  1.0 -0.2638057077
O  O408  1  0.05251000  0.68789000  0.63353000  1.0 -0.4896449637
O  O409  1  0.05237000  0.61287000  0.68847000  1.0 -0.5724477495
O  O410  1  0.16692000  0.65612000  0.63492000  1.0 -0.2690844201
O  O411  1  0.21231000  0.60471000  0.69761000  1.0 -0.4896449637
O  O412  1  0.14610000  0.55250000  0.67440000  1.0 -0.0976326234
O  O413  1  0.07468000  0.53398000  0.72828000  1.0 -0.1091213984
O  O414  1  0.06720000  0.44600000  0.71130000  1.0 -0.0697673118
O  O415  1  0.18811000  0.49831000  0.71031000  1.0 -0.0479199918
O  O416  1  0.23390000  0.41830000  0.71090000  1.0 -0.2690844201
O  O417  1  0.13621000  0.40942000  0.66423000  1.0 -0.2292111045
O  O418  1  0.06811000  0.35910000  0.69712000  1.0 -0.5410012082
O  O419  1  0.06058000  0.31040000  0.62204000  1.0 -0.5306688125
O  O420  1  0.17963000  0.34847000  0.65680000  1.0 -0.2903694993
O  O421  1  0.22580000  0.28240000  0.60560000  1.0 -0.4376812191
O  O422  1  0.13078000  0.32142000  0.55789000  1.0 -0.2690844201
O  O423  1  0.04854000  0.29109000  0.53363000  1.0 -0.5183331528
O  O424  1  0.05943000  0.31623000  0.44705000  1.0 -0.4995408246
O  O425  1  0.16590000  0.27050000  0.51507000  1.0 -0.347777246
O  O426  1  0.21477000  0.24638000  0.44133000  1.0 -0.4785856332
O  O427  1  0.14307000  0.33464000  0.41616000  1.0 -0.2903694993
O  O428  1  0.08164000  0.29842000  0.36576000  1.0 -0.5306688125
O  O429  1  0.06619000  0.37692000  0.31456000  1.0 -0.5491106436
O  O430  1  0.18822000  0.34318000  0.35641000  1.0 -0.2976621117
O  O431  1  0.22790000  0.39430000  0.28910000  1.0 -0.4300178835
O  O432  1  0.12870000  0.44115000  0.32138000  1.0 -0.2638057077
O  O433  1  0.11970000  0.24980000  0.14940000  1.0 -0.4010687794
O  O434  1  0.83060000  0.22980000  0.11950000  1.0 -0.347777246
O  O435  1  0.64400000  0.39990000  0.23740000  1.0 -0.0878428178
O  O436  1  0.55291000  0.67411000  0.11731000  1.0 -0.1183927013
O  O437  1  0.52660000  0.69650000  0.03270000  1.0 -0.3697789461
O  O438  1  0.43679000  0.68099000  0.04739000  1.0 -0.1697954263
O  O439  1  0.50810000  0.72950000  0.14390000  1.0 -0.0878428178
O  O440  1  0.48290000  0.71720000  0.23150000  1.0 -0.2903694993
O  O441  1  0.43756000  0.12675000  0.19027000  1.0 -0.5593718911
O  O442  1  0.44523000  0.17990000  0.11334000  1.0 -0.4995408246
O  O443  1  0.32553000  0.14670000  0.16136000  1.0 -0.2831065482
O  O444  1  0.28320000  0.21850000  0.11470000  1.0 -0.420898101
O  O445  1  0.37425000  0.17697000  0.05645000  1.0 -0.2234422565
O  O446  1  0.44648000  0.20860000  0.02129000  1.0 -0.4300178835
O  O447  1  0.42990000  0.19800000  0.92820000  1.0 -0.4785856332
O  O448  1  0.33175000  0.22739000  0.01784000  1.0 -0.3858263717
O  O449  1  0.27543000  0.25178000  0.95056000  1.0 -0.4785856332
O  O450  1  0.34627000  0.17169000  0.91658000  1.0 -0.2690844201
O  O451  1  0.38916000  0.21216000  0.84636000  1.0 -0.4785856332
O  O452  1  0.39605000  0.13786000  0.79497000  1.0 -0.5410012082
O  O453  1  0.28704000  0.16364000  0.87184000  1.0 -0.2410600161
O  O454  1  0.22270000  0.10280000  0.89190000  1.0 -0.3336181865
O  O455  1  0.34301000  0.06922000  0.82965000  1.0 -0.2690844201
O  O456  1  0.42450000  0.05438000  0.79369000  1.0 -0.463701763
O  O457  1  0.43360000  0.96080000  0.80590000  1.0 -0.4785856332
O  O458  1  0.31656000  0.02176000  0.78281000  1.0 -0.3408999866
O  O459  1  0.27355000  0.95075000  0.76615000  1.0 -0.4300178835
O  O460  1  0.35974000  0.92519000  0.83908000  1.0 -0.2831065482
O  O461  1  0.42897000  0.87209000  0.81113000  1.0 -0.507744431
O  O462  1  0.43221000  0.81823000  0.88710000  1.0 -0.5183331528
O  O463  1  0.31566000  0.86711000  0.84536000  1.0 -0.2903694993
O  O464  1  0.26674000  0.80513000  0.89362000  1.0 -0.420898101
O  O465  1  0.36082000  0.82935000  0.94686000  1.0 -0.2690844201
O  O466  1  0.43677000  0.79217000  0.97439000  1.0 -0.4785856332
O  O467  1  0.42286000  0.80358000  0.06578000  1.0 -0.5593718911
O  O468  1  0.32179000  0.78027000  0.98910000  1.0 -0.347777246
O  O469  1  0.26915000  0.75400000  0.05862000  1.0 -0.507744431
O  O470  1  0.33940000  0.83619000  0.08795000  1.0 -0.2690844201
O  O471  1  0.39045000  0.79058000  0.14872000  1.0 -0.5807007626
O  O472  1  0.40413000  0.86504000  0.19816000  1.0 -0.5807007626
O  O473  1  0.28850000  0.85006000  0.14142000  1.0 -0.2638057077
O  O474  1  0.24550000  0.91170000  0.19520000  1.0 -0.420898101
O  O475  1  0.35133000  0.93977000  0.17344000  1.0 -0.2690844201
O  O476  1  0.43419000  0.94615000  0.19982000  1.0 -0.507744431
O  O477  1  0.44285000  0.04023000  0.18462000  1.0 -0.4896449637
O  O478  1  0.32508000  0.98890000  0.22217000  1.0 -0.3697789461
O  O479  1  0.28555000  0.06781000  0.24243000  1.0 -0.4785856332
O  O480  1  0.36679000  0.08348000  0.16340000  1.0 -0.2638057077
O  O481  1  0.46306000  0.28299000  0.04915000  1.0 -0.4700612614
O  O482  1  0.55513000  0.28958000  0.05201000  1.0 -0.4995408246
O  O483  1  0.48367000  0.27103000  0.16665000  1.0 -0.3183949714
O  O484  1  0.55694000  0.24622000  0.21290000  1.0 -0.507744431
O  O485  1  0.58130000  0.32653000  0.13100000  1.0 -0.2690844201
O  O486  1  0.64043000  0.29395000  0.06869000  1.0 -0.4700612614
O  O487  1  0.68469000  0.37087000  0.05320000  1.0 -0.5183331528
O  O488  1  0.63440000  0.33610000  0.17540000  1.0 -0.2690844201
O  O489  1  0.68490000  0.39320000  0.21900000  1.0 -0.2234422565
O  O490  1  0.66423000  0.43568000  0.11367000  1.0 -0.2903694993
O  O491  1  0.67942000  0.45570000  0.02677000  1.0 -0.463701763
O  O492  1  0.66936000  0.54906000  0.02966000  1.0 -0.4785856332
O  O493  1  0.71864000  0.47738000  0.13156000  1.0 -0.311834929
O  O494  1  0.71193000  0.50773000  0.21973000  1.0 -0.420898101
O  O495  1  0.65843000  0.57873000  0.11748000  1.0 -0.2638057077
O  O496  1  0.68789000  0.63353000  0.05251000  1.0 -0.4896449637
O  O497  1  0.61287000  0.68847000  0.05237000  1.0 -0.5724477495
O  O498  1  0.65612000  0.63492000  0.16692000  1.0 -0.2690844201
O  O499  1  0.60471000  0.69761000  0.21231000  1.0 -0.4896449637
O  O500  1  0.55250000  0.67440000  0.14610000  1.0 -0.0976326234
O  O501  1  0.53398000  0.72828000  0.07468000  1.0 -0.1091213984
O  O502  1  0.44600000  0.71130000  0.06720000  1.0 -0.0697673118
O  O503  1  0.49831000  0.71031000  0.18811000  1.0 -0.0479199918
O  O504  1  0.41830000  0.71090000  0.23390000  1.0 -0.2690844201
O  O505  1  0.40942000  0.66423000  0.13621000  1.0 -0.2292111045
O  O506  1  0.35910000  0.69712000  0.06811000  1.0 -0.5410012082
O  O507  1  0.31040000  0.62204000  0.06058000  1.0 -0.5306688125
O  O508  1  0.34847000  0.65680000  0.17963000  1.0 -0.2903694993
O  O509  1  0.28240000  0.60560000  0.22580000  1.0 -0.4376812191
O  O510  1  0.32142000  0.55789000  0.13078000  1.0 -0.2690844201
O  O511  1  0.29109000  0.53363000  0.04854000  1.0 -0.5183331528
O  O512  1  0.31623000  0.44705000  0.05943000  1.0 -0.4995408246
O  O513  1  0.27050000  0.51507000  0.16590000  1.0 -0.347777246
O  O514  1  0.24638000  0.44133000  0.21477000  1.0 -0.4785856332
O  O515  1  0.33464000  0.41616000  0.14307000  1.0 -0.2903694993
O  O516  1  0.29842000  0.36576000  0.08164000  1.0 -0.5306688125
O  O517  1  0.37692000  0.31456000  0.06619000  1.0 -0.5491106436
O  O518  1  0.34318000  0.35641000  0.18822000  1.0 -0.2976621117
O  O519  1  0.39430000  0.28910000  0.22790000  1.0 -0.4300178835
O  O520  1  0.44115000  0.32138000  0.12870000  1.0 -0.2638057077
O  O521  1  0.24980000  0.14940000  0.11970000  1.0 -0.4010687794
O  O522  1  0.22980000  0.11950000  0.83060000  1.0 -0.3565032309
O  O523  1  0.39990000  0.23740000  0.64400000  1.0 -0.0878428178
O  O524  1  0.67411000  0.11731000  0.55291000  1.0 -0.1183927013
O  O525  1  0.69650000  0.03270000  0.52660000  1.0 -0.3697789461
O  O526  1  0.68099000  0.04739000  0.43679000  1.0 -0.1697954263
O  O527  1  0.72950000  0.14390000  0.50810000  1.0 -0.0878428178
O  O528  1  0.71720000  0.23150000  0.48290000  1.0 -0.2903694993
