# DDEC6 charges by PACMAN v1.1 (https://github.com/mtap-research/PACMAN-charge/)
data_IVEKEA_ASR_pacman
_symmetry_space_group_name_H-M   'P 1'
_cell_length_a   32.63300000
_cell_length_b   32.63300000
_cell_length_c   32.63300000
_cell_angle_alpha   60.00000000
_cell_angle_beta   60.00000000
_cell_angle_gamma   60.00000000
_symmetry_Int_Tables_number   1
_chemical_formula_structural   Cu2C33N5O8
_chemical_formula_sum   'Cu24 C396 N60 O96'
_cell_volume   24572.87690115
_cell_formula_units_Z   12
loop_
 _symmetry_equiv_pos_site_id
 _symmetry_equiv_pos_as_xyz
  1  'x, y, z'
loop_
 _atom_site_type_symbol
 _atom_site_label
 _atom_site_symmetry_multiplicity
 _atom_site_fract_x
 _atom_site_fract_y
 _atom_site_fract_z
 _atom_site_occupancy
 _atom_site_charge
Cu  Cu1  1  0.24510000  0.00000000  0.00000000  1.0 0.960308898
Cu  Cu2  1  0.00000000  0.24510000  0.00000000  1.0 0.960308898
Cu  Cu3  1  0.00000000  0.00000000  0.24510000  1.0 0.960308898
Cu  Cu4  1  0.75490000  0.00000000  0.24510000  1.0 0.960308898
Cu  Cu5  1  0.24510000  0.00000000  0.75490000  1.0 0.960308898
Cu  Cu6  1  0.00000000  0.75490000  0.24510000  1.0 0.960308898
Cu  Cu7  1  0.00000000  0.24510000  0.75490000  1.0 0.960308898
Cu  Cu8  1  0.75490000  0.24510000  0.00000000  1.0 0.960308898
Cu  Cu9  1  0.24510000  0.75490000  0.00000000  1.0 0.960308898
Cu  Cu10  1  0.75490000  0.00000000  0.00000000  1.0 0.960308898
Cu  Cu11  1  0.00000000  0.75490000  0.00000000  1.0 0.960308898
Cu  Cu12  1  0.00000000  0.00000000  0.75490000  1.0 0.960308898
Cu  Cu13  1  0.32598000  0.00000000  0.00000000  1.0 0.7892289544
Cu  Cu14  1  0.00000000  0.32598000  0.00000000  1.0 0.7892289544
Cu  Cu15  1  0.00000000  0.00000000  0.32598000  1.0 0.7892289544
Cu  Cu16  1  0.67402000  0.00000000  0.32598000  1.0 0.7892289544
Cu  Cu17  1  0.32598000  0.00000000  0.67402000  1.0 0.7892289544
Cu  Cu18  1  0.00000000  0.67402000  0.32598000  1.0 0.7892289544
Cu  Cu19  1  0.00000000  0.32598000  0.67402000  1.0 0.7892289544
Cu  Cu20  1  0.67402000  0.32598000  0.00000000  1.0 0.7892289544
Cu  Cu21  1  0.32598000  0.67402000  0.00000000  1.0 0.7892289544
Cu  Cu22  1  0.67402000  0.00000000  0.00000000  1.0 0.7892289544
Cu  Cu23  1  0.00000000  0.67402000  0.00000000  1.0 0.7892289544
Cu  Cu24  1  0.00000000  0.00000000  0.67402000  1.0 0.7892289544
C  C1  1  0.32563000  0.01301000  0.90543000  1.0 0.5622296678
C  C2  1  0.90543000  0.32563000  0.01301000  1.0 0.5622296678
C  C3  1  0.01301000  0.90543000  0.32563000  1.0 0.5622296678
C  C4  1  0.67437000  0.98699000  0.24407000  1.0 0.5622296678
C  C5  1  0.09457000  0.24407000  0.98699000  1.0 0.5622296678
C  C6  1  0.24407000  0.09457000  0.67437000  1.0 0.5622296678
C  C7  1  0.09457000  0.67437000  0.24407000  1.0 0.5622296678
C  C8  1  0.24407000  0.98699000  0.09457000  1.0 0.5622296678
C  C9  1  0.98699000  0.24407000  0.67437000  1.0 0.5622296678
C  C10  1  0.98699000  0.09457000  0.24407000  1.0 0.5622296678
C  C11  1  0.67437000  0.24407000  0.09457000  1.0 0.5622296678
C  C12  1  0.24407000  0.67437000  0.98699000  1.0 0.5622296678
C  C13  1  0.01301000  0.32563000  0.75593000  1.0 0.5622296678
C  C14  1  0.90543000  0.75593000  0.32563000  1.0 0.5622296678
C  C15  1  0.75593000  0.90543000  0.01301000  1.0 0.5622296678
C  C16  1  0.75593000  0.01301000  0.32563000  1.0 0.5622296678
C  C17  1  0.32563000  0.90543000  0.75593000  1.0 0.5622296678
C  C18  1  0.01301000  0.75593000  0.90543000  1.0 0.5622296678
C  C19  1  0.32563000  0.75593000  0.01301000  1.0 0.5622296678
C  C20  1  0.75593000  0.32563000  0.90543000  1.0 0.5622296678
C  C21  1  0.90543000  0.01301000  0.75593000  1.0 0.5622296678
C  C22  1  0.98699000  0.67437000  0.09457000  1.0 0.5622296678
C  C23  1  0.67437000  0.09457000  0.98699000  1.0 0.5622296678
C  C24  1  0.09457000  0.98699000  0.67437000  1.0 0.5622296678
C  C25  1  0.67437000  0.98699000  0.09457000  1.0 0.5622296678
C  C26  1  0.09457000  0.67437000  0.98699000  1.0 0.5622296678
C  C27  1  0.98699000  0.09457000  0.67437000  1.0 0.5622296678
C  C28  1  0.32563000  0.01301000  0.75593000  1.0 0.5622296678
C  C29  1  0.90543000  0.75593000  0.01301000  1.0 0.5622296678
C  C30  1  0.75593000  0.90543000  0.32563000  1.0 0.5622296678
C  C31  1  0.90543000  0.32563000  0.75593000  1.0 0.5622296678
C  C32  1  0.75593000  0.01301000  0.90543000  1.0 0.5622296678
C  C33  1  0.01301000  0.75593000  0.32563000  1.0 0.5622296678
C  C34  1  0.01301000  0.90543000  0.75593000  1.0 0.5622296678
C  C35  1  0.32563000  0.75593000  0.90543000  1.0 0.5622296678
C  C36  1  0.75593000  0.32563000  0.01301000  1.0 0.5622296678
C  C37  1  0.98699000  0.67437000  0.24407000  1.0 0.5622296678
C  C38  1  0.09457000  0.24407000  0.67437000  1.0 0.5622296678
C  C39  1  0.24407000  0.09457000  0.98699000  1.0 0.5622296678
C  C40  1  0.24407000  0.98699000  0.67437000  1.0 0.5622296678
C  C41  1  0.67437000  0.09457000  0.24407000  1.0 0.5622296678
C  C42  1  0.98699000  0.24407000  0.09457000  1.0 0.5622296678
C  C43  1  0.67437000  0.24407000  0.98699000  1.0 0.5622296678
C  C44  1  0.24407000  0.67437000  0.09457000  1.0 0.5622296678
C  C45  1  0.09457000  0.98699000  0.24407000  1.0 0.5622296678
C  C46  1  0.01301000  0.32563000  0.90543000  1.0 0.5622296678
C  C47  1  0.32563000  0.90543000  0.01301000  1.0 0.5622296678
C  C48  1  0.90543000  0.01301000  0.32563000  1.0 0.5622296678
C  C49  1  0.34708000  0.02016000  0.85430000  1.0 -0.2522437062
C  C50  1  0.85430000  0.34708000  0.02016000  1.0 -0.2584757704
C  C51  1  0.02016000  0.85430000  0.34708000  1.0 -0.2584757704
C  C52  1  0.65292000  0.97984000  0.22154000  1.0 -0.2522437062
C  C53  1  0.14570000  0.22154000  0.97984000  1.0 -0.2522437062
C  C54  1  0.22154000  0.14570000  0.65292000  1.0 -0.2522437062
C  C55  1  0.14570000  0.65292000  0.22154000  1.0 -0.2522437062
C  C56  1  0.22154000  0.97984000  0.14570000  1.0 -0.2584757704
C  C57  1  0.97984000  0.22154000  0.65292000  1.0 -0.2522437062
C  C58  1  0.97984000  0.14570000  0.22154000  1.0 -0.2522437062
C  C59  1  0.65292000  0.22154000  0.14570000  1.0 -0.2522437062
C  C60  1  0.22154000  0.65292000  0.97984000  1.0 -0.2584757704
C  C61  1  0.02016000  0.34708000  0.77846000  1.0 -0.2522437062
C  C62  1  0.85430000  0.77846000  0.34708000  1.0 -0.2584757704
C  C63  1  0.77846000  0.85430000  0.02016000  1.0 -0.2522437062
C  C64  1  0.77846000  0.02016000  0.34708000  1.0 -0.2584757704
C  C65  1  0.34708000  0.85430000  0.77846000  1.0 -0.2522437062
C  C66  1  0.02016000  0.77846000  0.85430000  1.0 -0.2522437062
C  C67  1  0.34708000  0.77846000  0.02016000  1.0 -0.2584757704
C  C68  1  0.77846000  0.34708000  0.85430000  1.0 -0.2522437062
C  C69  1  0.85430000  0.02016000  0.77846000  1.0 -0.2522437062
C  C70  1  0.97984000  0.65292000  0.14570000  1.0 -0.2522437062
C  C71  1  0.65292000  0.14570000  0.97984000  1.0 -0.2522437062
C  C72  1  0.14570000  0.97984000  0.65292000  1.0 -0.2584757704
C  C73  1  0.65292000  0.97984000  0.14570000  1.0 -0.2522437062
C  C74  1  0.14570000  0.65292000  0.97984000  1.0 -0.2584757704
C  C75  1  0.97984000  0.14570000  0.65292000  1.0 -0.2522437062
C  C76  1  0.34708000  0.02016000  0.77846000  1.0 -0.2522437062
C  C77  1  0.85430000  0.77846000  0.02016000  1.0 -0.2584757704
C  C78  1  0.77846000  0.85430000  0.34708000  1.0 -0.2584757704
C  C79  1  0.85430000  0.34708000  0.77846000  1.0 -0.2522437062
C  C80  1  0.77846000  0.02016000  0.85430000  1.0 -0.2522437062
C  C81  1  0.02016000  0.77846000  0.34708000  1.0 -0.2584757704
C  C82  1  0.02016000  0.85430000  0.77846000  1.0 -0.2522437062
C  C83  1  0.34708000  0.77846000  0.85430000  1.0 -0.2522437062
C  C84  1  0.77846000  0.34708000  0.02016000  1.0 -0.2584757704
C  C85  1  0.97984000  0.65292000  0.22154000  1.0 -0.2584757704
C  C86  1  0.14570000  0.22154000  0.65292000  1.0 -0.2522437062
C  C87  1  0.22154000  0.14570000  0.97984000  1.0 -0.2522437062
C  C88  1  0.22154000  0.97984000  0.65292000  1.0 -0.2653289055
C  C89  1  0.65292000  0.14570000  0.22154000  1.0 -0.2522437062
C  C90  1  0.97984000  0.22154000  0.14570000  1.0 -0.2584757704
C  C91  1  0.65292000  0.22154000  0.97984000  1.0 -0.2584757704
C  C92  1  0.22154000  0.65292000  0.14570000  1.0 -0.2522437062
C  C93  1  0.14570000  0.97984000  0.22154000  1.0 -0.2584757704
C  C94  1  0.02016000  0.34708000  0.85430000  1.0 -0.2522437062
C  C95  1  0.34708000  0.85430000  0.02016000  1.0 -0.2584757704
C  C96  1  0.85430000  0.02016000  0.34708000  1.0 -0.2522437062
C  C97  1  0.32466000  0.01674000  0.82930000  1.0 0.1488708464
C  C98  1  0.82930000  0.32466000  0.01674000  1.0 0.1585809994
C  C99  1  0.01674000  0.82930000  0.32466000  1.0 0.1585809994
C  C100  1  0.67534000  0.98326000  0.17070000  1.0 0.1585809994
C  C101  1  0.17070000  0.17070000  0.98326000  1.0 0.1585809994
C  C102  1  0.17070000  0.17070000  0.67534000  1.0 0.1585809994
C  C103  1  0.17070000  0.67534000  0.17070000  1.0 0.1585809994
C  C104  1  0.17070000  0.98326000  0.17070000  1.0 0.1585809994
C  C105  1  0.98326000  0.17070000  0.67534000  1.0 0.1585809994
C  C106  1  0.98326000  0.17070000  0.17070000  1.0 0.1585809994
C  C107  1  0.67534000  0.17070000  0.17070000  1.0 0.1585809994
C  C108  1  0.17070000  0.67534000  0.98326000  1.0 0.1585809994
C  C109  1  0.01674000  0.32466000  0.82930000  1.0 0.1488708464
C  C110  1  0.82930000  0.82930000  0.32466000  1.0 0.1585809994
C  C111  1  0.82930000  0.82930000  0.01674000  1.0 0.1585809994
C  C112  1  0.82930000  0.01674000  0.32466000  1.0 0.1585809994
C  C113  1  0.32466000  0.82930000  0.82930000  1.0 0.1585809994
C  C114  1  0.01674000  0.82930000  0.82930000  1.0 0.1585809994
C  C115  1  0.32466000  0.82930000  0.01674000  1.0 0.1585809994
C  C116  1  0.82930000  0.32466000  0.82930000  1.0 0.1488708464
C  C117  1  0.82930000  0.01674000  0.82930000  1.0 0.1488708464
C  C118  1  0.98326000  0.67534000  0.17070000  1.0 0.1585809994
C  C119  1  0.67534000  0.17070000  0.98326000  1.0 0.1585809994
C  C120  1  0.17070000  0.98326000  0.67534000  1.0 0.1585809994
C  C121  1  0.39600000  0.02760000  0.82520000  1.0 0.1006480153
C  C122  1  0.82520000  0.39600000  0.02760000  1.0 0.1006480153
C  C123  1  0.02760000  0.82520000  0.39600000  1.0 0.1006480153
C  C124  1  0.60400000  0.97240000  0.24880000  1.0 0.1006480153
C  C125  1  0.17480000  0.24880000  0.97240000  1.0 0.1080618818
C  C126  1  0.24880000  0.17480000  0.60400000  1.0 0.1006480153
C  C127  1  0.17480000  0.60400000  0.24880000  1.0 0.1006480153
C  C128  1  0.24880000  0.97240000  0.17480000  1.0 0.1080618818
C  C129  1  0.97240000  0.24880000  0.60400000  1.0 0.1080618818
C  C130  1  0.97240000  0.17480000  0.24880000  1.0 0.1006480153
C  C131  1  0.60400000  0.24880000  0.17480000  1.0 0.1080618818
C  C132  1  0.24880000  0.60400000  0.97240000  1.0 0.1006480153
C  C133  1  0.02760000  0.39600000  0.75120000  1.0 0.1006480153
C  C134  1  0.82520000  0.75120000  0.39600000  1.0 0.1006480153
C  C135  1  0.75120000  0.82520000  0.02760000  1.0 0.1006480153
C  C136  1  0.75120000  0.02760000  0.39600000  1.0 0.1006480153
C  C137  1  0.39600000  0.82520000  0.75120000  1.0 0.1080618818
C  C138  1  0.02760000  0.75120000  0.82520000  1.0 0.1006480153
C  C139  1  0.39600000  0.75120000  0.02760000  1.0 0.1080618818
C  C140  1  0.75120000  0.39600000  0.82520000  1.0 0.1006480153
C  C141  1  0.82520000  0.02760000  0.75120000  1.0 0.1006480153
C  C142  1  0.97240000  0.60400000  0.17480000  1.0 0.1006480153
C  C143  1  0.60400000  0.17480000  0.97240000  1.0 0.1080618818
C  C144  1  0.17480000  0.97240000  0.60400000  1.0 0.0947104926
C  C145  1  0.60400000  0.97240000  0.17480000  1.0 0.1080618818
C  C146  1  0.17480000  0.60400000  0.97240000  1.0 0.1006480153
C  C147  1  0.97240000  0.17480000  0.60400000  1.0 0.1080618818
C  C148  1  0.39600000  0.02760000  0.75120000  1.0 0.1006480153
C  C149  1  0.82520000  0.75120000  0.02760000  1.0 0.1006480153
C  C150  1  0.75120000  0.82520000  0.39600000  1.0 0.1006480153
C  C151  1  0.82520000  0.39600000  0.75120000  1.0 0.1006480153
C  C152  1  0.75120000  0.02760000  0.82520000  1.0 0.1006480153
C  C153  1  0.02760000  0.75120000  0.39600000  1.0 0.1006480153
C  C154  1  0.02760000  0.82520000  0.75120000  1.0 0.1080618818
C  C155  1  0.39600000  0.75120000  0.82520000  1.0 0.1006480153
C  C156  1  0.75120000  0.39600000  0.02760000  1.0 0.1006480153
C  C157  1  0.97240000  0.60400000  0.24880000  1.0 0.1006480153
C  C158  1  0.17480000  0.24880000  0.60400000  1.0 0.1006480153
C  C159  1  0.24880000  0.17480000  0.97240000  1.0 0.1080618818
C  C160  1  0.24880000  0.97240000  0.60400000  1.0 0.1006480153
C  C161  1  0.60400000  0.17480000  0.24880000  1.0 0.1080618818
C  C162  1  0.97240000  0.24880000  0.17480000  1.0 0.1006480153
C  C163  1  0.60400000  0.24880000  0.97240000  1.0 0.1080618818
C  C164  1  0.24880000  0.60400000  0.17480000  1.0 0.1006480153
C  C165  1  0.17480000  0.97240000  0.24880000  1.0 0.1006480153
C  C166  1  0.02760000  0.39600000  0.82520000  1.0 0.1006480153
C  C167  1  0.39600000  0.82520000  0.02760000  1.0 0.1080618818
C  C168  1  0.82520000  0.02760000  0.39600000  1.0 0.1006480153
C  C169  1  0.47596000  0.00000000  0.00000000  1.0 0.0086951693
C  C170  1  0.00000000  0.47596000  0.00000000  1.0 0.0086951693
C  C171  1  0.00000000  0.00000000  0.47596000  1.0 0.0086951693
C  C172  1  0.52404000  0.00000000  0.47596000  1.0 0.0086951693
C  C173  1  0.47596000  0.00000000  0.52404000  1.0 0.0086951693
C  C174  1  0.00000000  0.52404000  0.47596000  1.0 0.0086951693
C  C175  1  0.00000000  0.47596000  0.52404000  1.0 0.0086951693
C  C176  1  0.52404000  0.47596000  0.00000000  1.0 0.0086951693
C  C177  1  0.47596000  0.52404000  0.00000000  1.0 0.0086951693
C  C178  1  0.52404000  0.00000000  0.00000000  1.0 0.0086951693
C  C179  1  0.00000000  0.52404000  0.00000000  1.0 0.0086951693
C  C180  1  0.00000000  0.00000000  0.52404000  1.0 0.0086951693
C  C181  1  0.42990000  0.02590000  0.02590000  1.0 -0.0273453191
C  C182  1  0.02590000  0.42990000  0.02590000  1.0 -0.0221284286
C  C183  1  0.02590000  0.02590000  0.42990000  1.0 -0.0273453191
C  C184  1  0.57010000  0.97410000  0.48170000  1.0 -0.0273453191
C  C185  1  0.97410000  0.48170000  0.97410000  1.0 -0.0273453191
C  C186  1  0.48170000  0.97410000  0.57010000  1.0 -0.0221284286
C  C187  1  0.97410000  0.57010000  0.48170000  1.0 -0.0273453191
C  C188  1  0.48170000  0.97410000  0.97410000  1.0 -0.0273453191
C  C189  1  0.97410000  0.48170000  0.57010000  1.0 -0.0273453191
C  C190  1  0.97410000  0.97410000  0.48170000  1.0 -0.0221284286
C  C191  1  0.57010000  0.48170000  0.97410000  1.0 -0.0273453191
C  C192  1  0.48170000  0.57010000  0.97410000  1.0 -0.0273453191
C  C193  1  0.02590000  0.42990000  0.51830000  1.0 -0.0273453191
C  C194  1  0.02590000  0.51830000  0.42990000  1.0 -0.0273453191
C  C195  1  0.51830000  0.02590000  0.02590000  1.0 -0.0221284286
C  C196  1  0.51830000  0.02590000  0.42990000  1.0 -0.0273453191
C  C197  1  0.42990000  0.02590000  0.51830000  1.0 -0.0273453191
C  C198  1  0.02590000  0.51830000  0.02590000  1.0 -0.0221284286
C  C199  1  0.42990000  0.51830000  0.02590000  1.0 -0.0221284286
C  C200  1  0.51830000  0.42990000  0.02590000  1.0 -0.0221284286
C  C201  1  0.02590000  0.02590000  0.51830000  1.0 -0.0273453191
C  C202  1  0.97410000  0.57010000  0.97410000  1.0 -0.0273453191
C  C203  1  0.57010000  0.97410000  0.97410000  1.0 -0.0273453191
C  C204  1  0.97410000  0.97410000  0.57010000  1.0 -0.0273453191
C  C205  1  0.44310000  0.98410000  0.04370000  1.0 -0.0077424703
C  C206  1  0.04370000  0.44310000  0.98410000  1.0 -0.0077424703
C  C207  1  0.98410000  0.04370000  0.44310000  1.0 -0.0077424703
C  C208  1  0.55690000  0.01590000  0.47090000  1.0 -0.0077424703
C  C209  1  0.95630000  0.47090000  0.01590000  1.0 -0.0077424703
C  C210  1  0.47090000  0.95630000  0.55690000  1.0 -0.0077424703
C  C211  1  0.95630000  0.55690000  0.47090000  1.0 -0.0077424703
C  C212  1  0.47090000  0.01590000  0.95630000  1.0 -0.0077424703
C  C213  1  0.01590000  0.47090000  0.55690000  1.0 -0.0077424703
C  C214  1  0.01590000  0.95630000  0.47090000  1.0 -0.0077424703
C  C215  1  0.55690000  0.47090000  0.95630000  1.0 -0.0077424703
C  C216  1  0.47090000  0.55690000  0.01590000  1.0 -0.0077424703
C  C217  1  0.98410000  0.44310000  0.52910000  1.0 -0.0077424703
C  C218  1  0.04370000  0.52910000  0.44310000  1.0 -0.0077424703
C  C219  1  0.52910000  0.04370000  0.98410000  1.0 -0.0077424703
C  C220  1  0.52910000  0.98410000  0.44310000  1.0 -0.0077424703
C  C221  1  0.44310000  0.04370000  0.52910000  1.0 -0.0077424703
C  C222  1  0.98410000  0.52910000  0.04370000  1.0 -0.0077424703
C  C223  1  0.44310000  0.52910000  0.98410000  1.0 -0.0077424703
C  C224  1  0.52910000  0.44310000  0.04370000  1.0 -0.0077424703
C  C225  1  0.04370000  0.98410000  0.52910000  1.0 -0.0077424703
C  C226  1  0.01590000  0.55690000  0.95630000  1.0 -0.0077424703
C  C227  1  0.55690000  0.95630000  0.01590000  1.0 -0.0077424703
C  C228  1  0.95630000  0.01590000  0.55690000  1.0 -0.0077424703
C  C229  1  0.55690000  0.01590000  0.95630000  1.0 -0.0077424703
C  C230  1  0.95630000  0.55690000  0.01590000  1.0 -0.0077424703
C  C231  1  0.01590000  0.95630000  0.55690000  1.0 -0.0077424703
C  C232  1  0.44310000  0.98410000  0.52910000  1.0 -0.0077424703
C  C233  1  0.04370000  0.52910000  0.98410000  1.0 -0.0077424703
C  C234  1  0.52910000  0.04370000  0.44310000  1.0 -0.0077424703
C  C235  1  0.04370000  0.44310000  0.52910000  1.0 -0.0077424703
C  C236  1  0.52910000  0.98410000  0.04370000  1.0 -0.0077424703
C  C237  1  0.98410000  0.52910000  0.44310000  1.0 -0.0077424703
C  C238  1  0.98410000  0.04370000  0.52910000  1.0 -0.0077424703
C  C239  1  0.44310000  0.52910000  0.04370000  1.0 -0.0077424703
C  C240  1  0.52910000  0.44310000  0.98410000  1.0 -0.0077424703
C  C241  1  0.01590000  0.55690000  0.47090000  1.0 -0.0077424703
C  C242  1  0.95630000  0.47090000  0.55690000  1.0 -0.0077424703
C  C243  1  0.47090000  0.95630000  0.01590000  1.0 -0.0077424703
C  C244  1  0.47090000  0.01590000  0.55690000  1.0 -0.0077424703
C  C245  1  0.55690000  0.95630000  0.47090000  1.0 -0.0077424703
C  C246  1  0.01590000  0.47090000  0.95630000  1.0 -0.0077424703
C  C247  1  0.55690000  0.47090000  0.01590000  1.0 -0.0077424703
C  C248  1  0.47090000  0.55690000  0.95630000  1.0 -0.0077424703
C  C249  1  0.95630000  0.01590000  0.47090000  1.0 -0.0077424703
C  C250  1  0.98410000  0.44310000  0.04370000  1.0 -0.0077424703
C  C251  1  0.44310000  0.04370000  0.98410000  1.0 -0.0077424703
C  C252  1  0.04370000  0.98410000  0.44310000  1.0 -0.0077424703
C  C253  1  0.39030000  0.00990000  0.03630000  1.0 0.0214588299
C  C254  1  0.03630000  0.39030000  0.00990000  1.0 0.0214588299
C  C255  1  0.00990000  0.03630000  0.39030000  1.0 0.0214588299
C  C256  1  0.60970000  0.99010000  0.43650000  1.0 0.0214588299
C  C257  1  0.96370000  0.43650000  0.99010000  1.0 0.0214588299
C  C258  1  0.43650000  0.96370000  0.60970000  1.0 0.0214588299
C  C259  1  0.96370000  0.60970000  0.43650000  1.0 0.0214588299
C  C260  1  0.43650000  0.99010000  0.96370000  1.0 0.0214588299
C  C261  1  0.99010000  0.43650000  0.60970000  1.0 0.0214588299
C  C262  1  0.99010000  0.96370000  0.43650000  1.0 0.0214588299
C  C263  1  0.60970000  0.43650000  0.96370000  1.0 0.0214588299
C  C264  1  0.43650000  0.60970000  0.99010000  1.0 0.0214588299
C  C265  1  0.00990000  0.39030000  0.56350000  1.0 0.0214588299
C  C266  1  0.03630000  0.56350000  0.39030000  1.0 0.0214588299
C  C267  1  0.56350000  0.03630000  0.00990000  1.0 0.0214588299
C  C268  1  0.56350000  0.00990000  0.39030000  1.0 0.0214588299
C  C269  1  0.39030000  0.03630000  0.56350000  1.0 0.0214588299
C  C270  1  0.00990000  0.56350000  0.03630000  1.0 0.0214588299
C  C271  1  0.39030000  0.56350000  0.00990000  1.0 0.0214588299
C  C272  1  0.56350000  0.39030000  0.03630000  1.0 0.0214588299
C  C273  1  0.03630000  0.00990000  0.56350000  1.0 0.0214588299
C  C274  1  0.99010000  0.60970000  0.96370000  1.0 0.0214588299
C  C275  1  0.60970000  0.96370000  0.99010000  1.0 0.0214588299
C  C276  1  0.96370000  0.99010000  0.60970000  1.0 0.0214588299
C  C277  1  0.60970000  0.99010000  0.96370000  1.0 0.0214588299
C  C278  1  0.96370000  0.60970000  0.99010000  1.0 0.0214588299
C  C279  1  0.99010000  0.96370000  0.60970000  1.0 0.0214588299
C  C280  1  0.39030000  0.00990000  0.56350000  1.0 0.0214588299
C  C281  1  0.03630000  0.56350000  0.00990000  1.0 0.0214588299
C  C282  1  0.56350000  0.03630000  0.39030000  1.0 0.0214588299
C  C283  1  0.03630000  0.39030000  0.56350000  1.0 0.0214588299
C  C284  1  0.56350000  0.00990000  0.03630000  1.0 0.0214588299
C  C285  1  0.00990000  0.56350000  0.39030000  1.0 0.0214588299
C  C286  1  0.00990000  0.03630000  0.56350000  1.0 0.0214588299
C  C287  1  0.39030000  0.56350000  0.03630000  1.0 0.0214588299
C  C288  1  0.56350000  0.39030000  0.00990000  1.0 0.0214588299
C  C289  1  0.99010000  0.60970000  0.43650000  1.0 0.0214588299
C  C290  1  0.96370000  0.43650000  0.60970000  1.0 0.0214588299
C  C291  1  0.43650000  0.96370000  0.99010000  1.0 0.0214588299
C  C292  1  0.43650000  0.99010000  0.60970000  1.0 0.0214588299
C  C293  1  0.60970000  0.96370000  0.43650000  1.0 0.0214588299
C  C294  1  0.99010000  0.43650000  0.96370000  1.0 0.0214588299
C  C295  1  0.60970000  0.43650000  0.99010000  1.0 0.0214588299
C  C296  1  0.43650000  0.60970000  0.96370000  1.0 0.0214588299
C  C297  1  0.96370000  0.99010000  0.43650000  1.0 0.0214588299
C  C298  1  0.00990000  0.39030000  0.03630000  1.0 0.0214588299
C  C299  1  0.39030000  0.03630000  0.00990000  1.0 0.0214588299
C  C300  1  0.03630000  0.00990000  0.39030000  1.0 0.0214588299
C  C301  1  0.42700000  0.00860000  0.78220000  1.0 0.1423968364
C  C302  1  0.78220000  0.42700000  0.00860000  1.0 0.1585809994
C  C303  1  0.00860000  0.78220000  0.42700000  1.0 0.1423968364
C  C304  1  0.57300000  0.99140000  0.21780000  1.0 0.1488708464
C  C305  1  0.21780000  0.21780000  0.99140000  1.0 0.1488708464
C  C306  1  0.21780000  0.21780000  0.57300000  1.0 0.1585809994
C  C307  1  0.21780000  0.57300000  0.21780000  1.0 0.1488708464
C  C308  1  0.21780000  0.99140000  0.21780000  1.0 0.1423968364
C  C309  1  0.99140000  0.21780000  0.57300000  1.0 0.1423968364
C  C310  1  0.99140000  0.21780000  0.21780000  1.0 0.1585809994
C  C311  1  0.57300000  0.21780000  0.21780000  1.0 0.1488708464
C  C312  1  0.21780000  0.57300000  0.99140000  1.0 0.1585809994
C  C313  1  0.00860000  0.42700000  0.78220000  1.0 0.1423968364
C  C314  1  0.78220000  0.78220000  0.42700000  1.0 0.1423968364
C  C315  1  0.78220000  0.78220000  0.00860000  1.0 0.1423968364
C  C316  1  0.78220000  0.00860000  0.42700000  1.0 0.1423968364
C  C317  1  0.42700000  0.78220000  0.78220000  1.0 0.1488708464
C  C318  1  0.00860000  0.78220000  0.78220000  1.0 0.1488708464
C  C319  1  0.42700000  0.78220000  0.00860000  1.0 0.1671483601
C  C320  1  0.78220000  0.42700000  0.78220000  1.0 0.1423968364
C  C321  1  0.78220000  0.00860000  0.78220000  1.0 0.1423968364
C  C322  1  0.99140000  0.57300000  0.21780000  1.0 0.1488708464
C  C323  1  0.57300000  0.21780000  0.99140000  1.0 0.1423968364
C  C324  1  0.21780000  0.99140000  0.57300000  1.0 0.1585809994
C  C325  1  0.40580000  0.97620000  0.04100000  1.0 0.0086951693
C  C326  1  0.04100000  0.40580000  0.97620000  1.0 0.0036265085
C  C327  1  0.97620000  0.04100000  0.40580000  1.0 0.0086951693
C  C328  1  0.59420000  0.02380000  0.42300000  1.0 0.0036265085
C  C329  1  0.95900000  0.42300000  0.02380000  1.0 0.0086951693
C  C330  1  0.42300000  0.95900000  0.59420000  1.0 0.0086951693
C  C331  1  0.95900000  0.59420000  0.42300000  1.0 0.0086951693
C  C332  1  0.42300000  0.02380000  0.95900000  1.0 0.0086951693
C  C333  1  0.02380000  0.42300000  0.59420000  1.0 0.0086951693
C  C334  1  0.02380000  0.95900000  0.42300000  1.0 0.0086951693
C  C335  1  0.59420000  0.42300000  0.95900000  1.0 0.0086951693
C  C336  1  0.42300000  0.59420000  0.02380000  1.0 0.0086951693
C  C337  1  0.97620000  0.40580000  0.57700000  1.0 0.0086951693
C  C338  1  0.04100000  0.57700000  0.40580000  1.0 0.0086951693
C  C339  1  0.57700000  0.04100000  0.97620000  1.0 0.0036265085
C  C340  1  0.57700000  0.97620000  0.40580000  1.0 0.0086951693
C  C341  1  0.40580000  0.04100000  0.57700000  1.0 0.0036265085
C  C342  1  0.97620000  0.57700000  0.04100000  1.0 0.0086951693
C  C343  1  0.40580000  0.57700000  0.97620000  1.0 0.0036265085
C  C344  1  0.57700000  0.40580000  0.04100000  1.0 0.0086951693
C  C345  1  0.04100000  0.97620000  0.57700000  1.0 0.0036265085
C  C346  1  0.02380000  0.59420000  0.95900000  1.0 0.0086951693
C  C347  1  0.59420000  0.95900000  0.02380000  1.0 0.0086951693
C  C348  1  0.95900000  0.02380000  0.59420000  1.0 0.0086951693
C  C349  1  0.59420000  0.02380000  0.95900000  1.0 0.0086951693
C  C350  1  0.95900000  0.59420000  0.02380000  1.0 0.0086951693
C  C351  1  0.02380000  0.95900000  0.59420000  1.0 0.0086951693
C  C352  1  0.40580000  0.97620000  0.57700000  1.0 0.0036265085
C  C353  1  0.04100000  0.57700000  0.97620000  1.0 0.0036265085
C  C354  1  0.57700000  0.04100000  0.40580000  1.0 0.0036265085
C  C355  1  0.04100000  0.40580000  0.57700000  1.0 0.0036265085
C  C356  1  0.57700000  0.97620000  0.04100000  1.0 0.0086951693
C  C357  1  0.97620000  0.57700000  0.40580000  1.0 0.0086951693
C  C358  1  0.97620000  0.04100000  0.57700000  1.0 0.0086951693
C  C359  1  0.40580000  0.57700000  0.04100000  1.0 0.0086951693
C  C360  1  0.57700000  0.40580000  0.97620000  1.0 0.0036265085
C  C361  1  0.02380000  0.59420000  0.42300000  1.0 0.0086951693
C  C362  1  0.95900000  0.42300000  0.59420000  1.0 0.0086951693
C  C363  1  0.42300000  0.95900000  0.02380000  1.0 0.0086951693
C  C364  1  0.42300000  0.02380000  0.59420000  1.0 0.0086951693
C  C365  1  0.59420000  0.95900000  0.42300000  1.0 0.0086951693
C  C366  1  0.02380000  0.42300000  0.95900000  1.0 0.0086951693
C  C367  1  0.59420000  0.42300000  0.02380000  1.0 0.0086951693
C  C368  1  0.42300000  0.59420000  0.95900000  1.0 0.0086951693
C  C369  1  0.95900000  0.02380000  0.42300000  1.0 0.0086951693
C  C370  1  0.97620000  0.40580000  0.04100000  1.0 0.0086951693
C  C371  1  0.40580000  0.04100000  0.97620000  1.0 0.0086951693
C  C372  1  0.04100000  0.97620000  0.40580000  1.0 0.0086951693
C  C373  1  0.40810000  0.04810000  0.77190000  1.0 0.1006480153
C  C374  1  0.77190000  0.40810000  0.04810000  1.0 0.1178633432
C  C375  1  0.04810000  0.77190000  0.40810000  1.0 0.1006480153
C  C376  1  0.59190000  0.95190000  0.22810000  1.0 0.1006480153
C  C377  1  0.22810000  0.22810000  0.95190000  1.0 0.1006480153
C  C378  1  0.22810000  0.22810000  0.59190000  1.0 0.1006480153
C  C379  1  0.22810000  0.59190000  0.22810000  1.0 0.1006480153
C  C380  1  0.22810000  0.95190000  0.22810000  1.0 0.1178633432
C  C381  1  0.95190000  0.22810000  0.59190000  1.0 0.1178633432
C  C382  1  0.95190000  0.22810000  0.22810000  1.0 0.1006480153
C  C383  1  0.59190000  0.22810000  0.22810000  1.0 0.1178633432
C  C384  1  0.22810000  0.59190000  0.95190000  1.0 0.1006480153
C  C385  1  0.04810000  0.40810000  0.77190000  1.0 0.1006480153
C  C386  1  0.77190000  0.77190000  0.40810000  1.0 0.1006480153
C  C387  1  0.77190000  0.77190000  0.04810000  1.0 0.1080618818
C  C388  1  0.77190000  0.04810000  0.40810000  1.0 0.1080618818
C  C389  1  0.40810000  0.77190000  0.77190000  1.0 0.1178633432
C  C390  1  0.04810000  0.77190000  0.77190000  1.0 0.1006480153
C  C391  1  0.40810000  0.77190000  0.04810000  1.0 0.1006480153
C  C392  1  0.77190000  0.40810000  0.77190000  1.0 0.1006480153
C  C393  1  0.77190000  0.04810000  0.77190000  1.0 0.1006480153
C  C394  1  0.95190000  0.59190000  0.22810000  1.0 0.1006480153
C  C395  1  0.59190000  0.22810000  0.95190000  1.0 0.1178633432
C  C396  1  0.22810000  0.95190000  0.59190000  1.0 0.1178633432
N  N1  1  0.39256000  0.00000000  0.00000000  1.0 -0.089908244
N  N2  1  0.00000000  0.39256000  0.00000000  1.0 -0.089908244
N  N3  1  0.00000000  0.00000000  0.39256000  1.0 -0.0961165679
N  N4  1  0.60744000  0.00000000  0.39256000  1.0 -0.089908244
N  N5  1  0.39256000  0.00000000  0.60744000  1.0 -0.089908244
N  N6  1  0.00000000  0.60744000  0.39256000  1.0 -0.089908244
N  N7  1  0.00000000  0.39256000  0.60744000  1.0 -0.0961165679
N  N8  1  0.60744000  0.39256000  0.00000000  1.0 -0.089908244
N  N9  1  0.39256000  0.60744000  0.00000000  1.0 -0.0836517652
N  N10  1  0.60744000  0.00000000  0.00000000  1.0 -0.089908244
N  N11  1  0.00000000  0.60744000  0.00000000  1.0 -0.0836517652
N  N12  1  0.00000000  0.00000000  0.60744000  1.0 -0.089908244
N  N13  1  0.47880000  0.00400000  0.75860000  1.0 -0.1404248942
N  N14  1  0.75860000  0.47880000  0.00400000  1.0 -0.1404248942
N  N15  1  0.00400000  0.75860000  0.47880000  1.0 -0.1482684363
N  N16  1  0.52120000  0.99600000  0.24140000  1.0 -0.1482684363
N  N17  1  0.24140000  0.24140000  0.99600000  1.0 -0.1482684363
N  N18  1  0.24140000  0.24140000  0.52120000  1.0 -0.1404248942
N  N19  1  0.24140000  0.52120000  0.24140000  1.0 -0.1404248942
N  N20  1  0.24140000  0.99600000  0.24140000  1.0 -0.1404248942
N  N21  1  0.99600000  0.24140000  0.52120000  1.0 -0.1404248942
N  N22  1  0.99600000  0.24140000  0.24140000  1.0 -0.1327463826
N  N23  1  0.52120000  0.24140000  0.24140000  1.0 -0.1404248942
N  N24  1  0.24140000  0.52120000  0.99600000  1.0 -0.1482684363
N  N25  1  0.00400000  0.47880000  0.75860000  1.0 -0.1482684363
N  N26  1  0.75860000  0.75860000  0.47880000  1.0 -0.1482684363
N  N27  1  0.75860000  0.75860000  0.00400000  1.0 -0.1327463826
N  N28  1  0.75860000  0.00400000  0.47880000  1.0 -0.1404248942
N  N29  1  0.47880000  0.75860000  0.75860000  1.0 -0.1404248942
N  N30  1  0.00400000  0.75860000  0.75860000  1.0 -0.1482684363
N  N31  1  0.47880000  0.75860000  0.00400000  1.0 -0.1404248942
N  N32  1  0.75860000  0.47880000  0.75860000  1.0 -0.1482684363
N  N33  1  0.75860000  0.00400000  0.75860000  1.0 -0.1404248942
N  N34  1  0.99600000  0.52120000  0.24140000  1.0 -0.1404248942
N  N35  1  0.52120000  0.24140000  0.99600000  1.0 -0.1482684363
N  N36  1  0.24140000  0.99600000  0.52120000  1.0 -0.1404248942
N  N37  1  0.45160000  0.06320000  0.74260000  1.0 -0.0221284286
N  N38  1  0.74260000  0.45160000  0.06320000  1.0 -0.0394193931
N  N39  1  0.06320000  0.74260000  0.45160000  1.0 -0.0221284286
N  N40  1  0.54840000  0.93680000  0.25740000  1.0 -0.0530198065
N  N41  1  0.25740000  0.25740000  0.93680000  1.0 -0.0566264618
N  N42  1  0.25740000  0.25740000  0.54840000  1.0 -0.0273453191
N  N43  1  0.25740000  0.54840000  0.25740000  1.0 -0.0530198065
N  N44  1  0.25740000  0.93680000  0.25740000  1.0 -0.0566264618
N  N45  1  0.93680000  0.25740000  0.54840000  1.0 -0.0530198065
N  N46  1  0.93680000  0.25740000  0.25740000  1.0 -0.0273453191
N  N47  1  0.54840000  0.25740000  0.25740000  1.0 -0.0566264618
N  N48  1  0.25740000  0.54840000  0.93680000  1.0 -0.0273453191
N  N49  1  0.06320000  0.45160000  0.74260000  1.0 -0.0221284286
N  N50  1  0.74260000  0.74260000  0.45160000  1.0 -0.0221284286
N  N51  1  0.74260000  0.74260000  0.06320000  1.0 -0.0273453191
N  N52  1  0.74260000  0.06320000  0.45160000  1.0 -0.0273453191
N  N53  1  0.45160000  0.74260000  0.74260000  1.0 -0.0566264618
N  N54  1  0.06320000  0.74260000  0.74260000  1.0 -0.0566264618
N  N55  1  0.45160000  0.74260000  0.06320000  1.0 -0.0530198065
N  N56  1  0.74260000  0.45160000  0.74260000  1.0 -0.0221284286
N  N57  1  0.74260000  0.06320000  0.74260000  1.0 -0.0221284286
N  N58  1  0.93680000  0.54840000  0.25740000  1.0 -0.0530198065
N  N59  1  0.54840000  0.25740000  0.93680000  1.0 -0.0566264618
N  N60  1  0.25740000  0.93680000  0.54840000  1.0 -0.0394193931
O  O1  1  0.28068000  0.01166000  0.92850000  1.0 -0.448565046
O  O2  1  0.92850000  0.28068000  0.01166000  1.0 -0.448565046
O  O3  1  0.01166000  0.92850000  0.28068000  1.0 -0.448565046
O  O4  1  0.71932000  0.98834000  0.22084000  1.0 -0.448565046
O  O5  1  0.07150000  0.22084000  0.98834000  1.0 -0.448565046
O  O6  1  0.22084000  0.07150000  0.71932000  1.0 -0.448565046
O  O7  1  0.07150000  0.71932000  0.22084000  1.0 -0.448565046
O  O8  1  0.22084000  0.98834000  0.07150000  1.0 -0.448565046
O  O9  1  0.98834000  0.22084000  0.71932000  1.0 -0.448565046
O  O10  1  0.98834000  0.07150000  0.22084000  1.0 -0.4438253855
O  O11  1  0.71932000  0.22084000  0.07150000  1.0 -0.448565046
O  O12  1  0.22084000  0.71932000  0.98834000  1.0 -0.448565046
O  O13  1  0.01166000  0.28068000  0.77916000  1.0 -0.448565046
O  O14  1  0.92850000  0.77916000  0.28068000  1.0 -0.448565046
O  O15  1  0.77916000  0.92850000  0.01166000  1.0 -0.448565046
O  O16  1  0.77916000  0.01166000  0.28068000  1.0 -0.448565046
O  O17  1  0.28068000  0.92850000  0.77916000  1.0 -0.448565046
O  O18  1  0.01166000  0.77916000  0.92850000  1.0 -0.448565046
O  O19  1  0.28068000  0.77916000  0.01166000  1.0 -0.448565046
O  O20  1  0.77916000  0.28068000  0.92850000  1.0 -0.448565046
O  O21  1  0.92850000  0.01166000  0.77916000  1.0 -0.448565046
O  O22  1  0.98834000  0.71932000  0.07150000  1.0 -0.448565046
O  O23  1  0.71932000  0.07150000  0.98834000  1.0 -0.448565046
O  O24  1  0.07150000  0.98834000  0.71932000  1.0 -0.448565046
O  O25  1  0.71932000  0.98834000  0.07150000  1.0 -0.448565046
O  O26  1  0.07150000  0.71932000  0.98834000  1.0 -0.448565046
O  O27  1  0.98834000  0.07150000  0.71932000  1.0 -0.448565046
O  O28  1  0.28068000  0.01166000  0.77916000  1.0 -0.448565046
O  O29  1  0.92850000  0.77916000  0.01166000  1.0 -0.448565046
O  O30  1  0.77916000  0.92850000  0.28068000  1.0 -0.448565046
O  O31  1  0.92850000  0.28068000  0.77916000  1.0 -0.448565046
O  O32  1  0.77916000  0.01166000  0.92850000  1.0 -0.448565046
O  O33  1  0.01166000  0.77916000  0.28068000  1.0 -0.448565046
O  O34  1  0.01166000  0.92850000  0.77916000  1.0 -0.448565046
O  O35  1  0.28068000  0.77916000  0.92850000  1.0 -0.448565046
O  O36  1  0.77916000  0.28068000  0.01166000  1.0 -0.448565046
O  O37  1  0.98834000  0.71932000  0.22084000  1.0 -0.448565046
O  O38  1  0.07150000  0.22084000  0.71932000  1.0 -0.448565046
O  O39  1  0.22084000  0.07150000  0.98834000  1.0 -0.448565046
O  O40  1  0.22084000  0.98834000  0.71932000  1.0 -0.448565046
O  O41  1  0.71932000  0.07150000  0.22084000  1.0 -0.448565046
O  O42  1  0.98834000  0.22084000  0.07150000  1.0 -0.448565046
O  O43  1  0.71932000  0.22084000  0.98834000  1.0 -0.448565046
O  O44  1  0.22084000  0.71932000  0.07150000  1.0 -0.448565046
O  O45  1  0.07150000  0.98834000  0.22084000  1.0 -0.448565046
O  O46  1  0.01166000  0.28068000  0.92850000  1.0 -0.448565046
O  O47  1  0.28068000  0.92850000  0.01166000  1.0 -0.448565046
O  O48  1  0.92850000  0.01166000  0.28068000  1.0 -0.448565046
O  O49  1  0.34933000  0.01145000  0.92803000  1.0 -0.5054897284
O  O50  1  0.92803000  0.34933000  0.01145000  1.0 -0.5016035794
O  O51  1  0.01145000  0.92803000  0.34933000  1.0 -0.5016035794
O  O52  1  0.65067000  0.98855000  0.28881000  1.0 -0.5016035794
O  O53  1  0.07197000  0.28881000  0.98855000  1.0 -0.5016035794
O  O54  1  0.28881000  0.07197000  0.65067000  1.0 -0.5016035794
O  O55  1  0.07197000  0.65067000  0.28881000  1.0 -0.5016035794
O  O56  1  0.28881000  0.98855000  0.07197000  1.0 -0.5016035794
O  O57  1  0.98855000  0.28881000  0.65067000  1.0 -0.5016035794
O  O58  1  0.98855000  0.07197000  0.28881000  1.0 -0.5016035794
O  O59  1  0.65067000  0.28881000  0.07197000  1.0 -0.5016035794
O  O60  1  0.28881000  0.65067000  0.98855000  1.0 -0.5016035794
O  O61  1  0.01145000  0.34933000  0.71119000  1.0 -0.5016035794
O  O62  1  0.92803000  0.71119000  0.34933000  1.0 -0.5016035794
O  O63  1  0.71119000  0.92803000  0.01145000  1.0 -0.5016035794
O  O64  1  0.71119000  0.01145000  0.34933000  1.0 -0.5016035794
O  O65  1  0.34933000  0.92803000  0.71119000  1.0 -0.5016035794
O  O66  1  0.01145000  0.71119000  0.92803000  1.0 -0.5016035794
O  O67  1  0.34933000  0.71119000  0.01145000  1.0 -0.5016035794
O  O68  1  0.71119000  0.34933000  0.92803000  1.0 -0.5016035794
O  O69  1  0.92803000  0.01145000  0.71119000  1.0 -0.5016035794
O  O70  1  0.98855000  0.65067000  0.07197000  1.0 -0.5016035794
O  O71  1  0.65067000  0.07197000  0.98855000  1.0 -0.5016035794
O  O72  1  0.07197000  0.98855000  0.65067000  1.0 -0.5016035794
O  O73  1  0.65067000  0.98855000  0.07197000  1.0 -0.5016035794
O  O74  1  0.07197000  0.65067000  0.98855000  1.0 -0.5016035794
O  O75  1  0.98855000  0.07197000  0.65067000  1.0 -0.5016035794
O  O76  1  0.34933000  0.01145000  0.71119000  1.0 -0.5016035794
O  O77  1  0.92803000  0.71119000  0.01145000  1.0 -0.5016035794
O  O78  1  0.71119000  0.92803000  0.34933000  1.0 -0.5016035794
O  O79  1  0.92803000  0.34933000  0.71119000  1.0 -0.5054897284
O  O80  1  0.71119000  0.01145000  0.92803000  1.0 -0.5016035794
O  O81  1  0.01145000  0.71119000  0.34933000  1.0 -0.5016035794
O  O82  1  0.01145000  0.92803000  0.71119000  1.0 -0.5016035794
O  O83  1  0.34933000  0.71119000  0.92803000  1.0 -0.5016035794
O  O84  1  0.71119000  0.34933000  0.01145000  1.0 -0.5016035794
O  O85  1  0.98855000  0.65067000  0.28881000  1.0 -0.5016035794
O  O86  1  0.07197000  0.28881000  0.65067000  1.0 -0.5016035794
O  O87  1  0.28881000  0.07197000  0.98855000  1.0 -0.5016035794
O  O88  1  0.28881000  0.98855000  0.65067000  1.0 -0.5016035794
O  O89  1  0.65067000  0.07197000  0.28881000  1.0 -0.5016035794
O  O90  1  0.98855000  0.28881000  0.07197000  1.0 -0.5016035794
O  O91  1  0.65067000  0.28881000  0.98855000  1.0 -0.5016035794
O  O92  1  0.28881000  0.65067000  0.07197000  1.0 -0.5016035794
O  O93  1  0.07197000  0.98855000  0.28881000  1.0 -0.5016035794
O  O94  1  0.01145000  0.34933000  0.92803000  1.0 -0.5016035794
O  O95  1  0.34933000  0.92803000  0.01145000  1.0 -0.5016035794
O  O96  1  0.92803000  0.01145000  0.34933000  1.0 -0.5016035794
