# DDEC6 charges by PACMAN v1.1 (https://github.com/mtap-research/PACMAN-charge/)
data_IVILEG_ASR_pacman
_symmetry_space_group_name_H-M   'P 1'
_cell_length_a   10.98080000
_cell_length_b   32.14460000
_cell_length_c   32.14460000
_cell_angle_alpha   90.00000000
_cell_angle_beta   90.00000000
_cell_angle_gamma   90.00000000
_symmetry_Int_Tables_number   1
_chemical_formula_structural   Zn8H80C108N20O17
_chemical_formula_sum   'Zn16 H160 C216 N40 O34'
_cell_volume   11346.18951482
_cell_formula_units_Z   2
loop_
 _symmetry_equiv_pos_site_id
 _symmetry_equiv_pos_as_xyz
  1  'x, y, z'
loop_
 _atom_site_type_symbol
 _atom_site_label
 _atom_site_symmetry_multiplicity
 _atom_site_fract_x
 _atom_site_fract_y
 _atom_site_fract_z
 _atom_site_occupancy
 _atom_site_charge
Zn  Zn1  1  0.00000000  0.00000000  0.64931000  1.0 0.4868138943
Zn  Zn2  1  0.00000000  0.00000000  0.35069000  1.0 0.4868138943
Zn  Zn3  1  0.00000000  0.50000000  0.85069000  1.0 0.4868138943
Zn  Zn4  1  0.00000000  0.50000000  0.14931000  1.0 0.4868138943
Zn  Zn5  1  0.00000000  0.14930000  0.50000000  1.0 0.8081701015
Zn  Zn6  1  0.00000000  0.85070000  0.50000000  1.0 0.8081701015
Zn  Zn7  1  0.00000000  0.35070000  0.00000000  1.0 0.8081701015
Zn  Zn8  1  0.00000000  0.64930000  0.00000000  1.0 0.8081701015
Zn  Zn9  1  0.60755000  0.03384000  0.46609000  1.0 0.7752740149
Zn  Zn10  1  0.60755000  0.96616000  0.53391000  1.0 0.7745342616
Zn  Zn11  1  0.39245000  0.03384000  0.53391000  1.0 0.7745342616
Zn  Zn12  1  0.39245000  0.96616000  0.46609000  1.0 0.7745342616
Zn  Zn13  1  0.39245000  0.46616000  0.03391000  1.0 0.7745342616
Zn  Zn14  1  0.39245000  0.53384000  0.96609000  1.0 0.7745342616
Zn  Zn15  1  0.60755000  0.46616000  0.96609000  1.0 0.7745342616
Zn  Zn16  1  0.60755000  0.53384000  0.03391000  1.0 0.7745342616
H  H1  1  0.02320000  0.07750000  0.61470000  1.0 0.2870927368
H  H2  1  0.02320000  0.92250000  0.38530000  1.0 0.2870927368
H  H3  1  0.97680000  0.07750000  0.38530000  1.0 0.2870927368
H  H4  1  0.97680000  0.92250000  0.61470000  1.0 0.2870927368
H  H5  1  0.97680000  0.42250000  0.88530000  1.0 0.2870927368
H  H6  1  0.97680000  0.57750000  0.11470000  1.0 0.2870927368
H  H7  1  0.02320000  0.42250000  0.11470000  1.0 0.2870927368
H  H8  1  0.02320000  0.57750000  0.88530000  1.0 0.2870927368
H  H9  1  0.06510000  0.11500000  0.59170000  1.0 0.3297179517
H  H10  1  0.06510000  0.88500000  0.40830000  1.0 0.3297179517
H  H11  1  0.93490000  0.11500000  0.40830000  1.0 0.3297179517
H  H12  1  0.93490000  0.88500000  0.59170000  1.0 0.3297179517
H  H13  1  0.93490000  0.38500000  0.90830000  1.0 0.3297179517
H  H14  1  0.93490000  0.61500000  0.09170000  1.0 0.3297179517
H  H15  1  0.06510000  0.38500000  0.09170000  1.0 0.3297179517
H  H16  1  0.06510000  0.61500000  0.90830000  1.0 0.3297179517
H  H17  1  0.76390000  0.97250000  0.61460000  1.0 0.1303779865
H  H18  1  0.76390000  0.02750000  0.38540000  1.0 0.1303779865
H  H19  1  0.23610000  0.97250000  0.38540000  1.0 0.1303779865
H  H20  1  0.23610000  0.02750000  0.61460000  1.0 0.1303779865
H  H21  1  0.23610000  0.52750000  0.88540000  1.0 0.1303779865
H  H22  1  0.23610000  0.47250000  0.11460000  1.0 0.1303779865
H  H23  1  0.76390000  0.52750000  0.11460000  1.0 0.1303779865
H  H24  1  0.76390000  0.47250000  0.88540000  1.0 0.1303779865
H  H25  1  0.77160000  0.10980000  0.47600000  1.0 0.1201436558
H  H26  1  0.77160000  0.89020000  0.52400000  1.0 0.1201436558
H  H27  1  0.22840000  0.10980000  0.52400000  1.0 0.1201436558
H  H28  1  0.22840000  0.89020000  0.47600000  1.0 0.1201436558
H  H29  1  0.22840000  0.39020000  0.02400000  1.0 0.1201436558
H  H30  1  0.22840000  0.60980000  0.97600000  1.0 0.1201436558
H  H31  1  0.77160000  0.39020000  0.97600000  1.0 0.1201436558
H  H32  1  0.77160000  0.60980000  0.02400000  1.0 0.1201436558
H  H33  1  0.60890000  0.33880000  0.87410000  1.0 0.113769126
H  H34  1  0.60890000  0.66120000  0.12590000  1.0 0.113769126
H  H35  1  0.39110000  0.33880000  0.12590000  1.0 0.113769126
H  H36  1  0.39110000  0.66120000  0.87410000  1.0 0.113769126
H  H37  1  0.39110000  0.16120000  0.62590000  1.0 0.113769126
H  H38  1  0.39110000  0.83880000  0.37410000  1.0 0.113769126
H  H39  1  0.60890000  0.16120000  0.37410000  1.0 0.113769126
H  H40  1  0.60890000  0.83880000  0.62590000  1.0 0.113769126
H  H41  1  0.50410000  0.29920000  0.82550000  1.0 0.1303779865
H  H42  1  0.50410000  0.70080000  0.17450000  1.0 0.1303779865
H  H43  1  0.49590000  0.29920000  0.17450000  1.0 0.1303779865
H  H44  1  0.49590000  0.70080000  0.82550000  1.0 0.1303779865
H  H45  1  0.49590000  0.20080000  0.67450000  1.0 0.1303779865
H  H46  1  0.49590000  0.79920000  0.32550000  1.0 0.1303779865
H  H47  1  0.50410000  0.20080000  0.32550000  1.0 0.1303779865
H  H48  1  0.50410000  0.79920000  0.67450000  1.0 0.1303779865
H  H49  1  0.26540000  0.39260000  0.80950000  1.0 0.1201436558
H  H50  1  0.26540000  0.60740000  0.19050000  1.0 0.1201436558
H  H51  1  0.73460000  0.39260000  0.19050000  1.0 0.1201436558
H  H52  1  0.73460000  0.60740000  0.80950000  1.0 0.1201436558
H  H53  1  0.73460000  0.10740000  0.69050000  1.0 0.1201436558
H  H54  1  0.73460000  0.89260000  0.30950000  1.0 0.1201436558
H  H55  1  0.26540000  0.10740000  0.30950000  1.0 0.1201436558
H  H56  1  0.26540000  0.89260000  0.69050000  1.0 0.1201436558
H  H57  1  0.37020000  0.43220000  0.85810000  1.0 0.1201436558
H  H58  1  0.37020000  0.56780000  0.14190000  1.0 0.1201436558
H  H59  1  0.62980000  0.43220000  0.14190000  1.0 0.1201436558
H  H60  1  0.62980000  0.56780000  0.85810000  1.0 0.1201436558
H  H61  1  0.62980000  0.06780000  0.64190000  1.0 0.1201436558
H  H62  1  0.62980000  0.93220000  0.35810000  1.0 0.1201436558
H  H63  1  0.37020000  0.06780000  0.35810000  1.0 0.1201436558
H  H64  1  0.37020000  0.93220000  0.64190000  1.0 0.1201436558
H  H65  1  0.24160000  0.19300000  0.60130000  1.0 0.1201436558
H  H66  1  0.24160000  0.80700000  0.39870000  1.0 0.1201436558
H  H67  1  0.75840000  0.19300000  0.39870000  1.0 0.1201436558
H  H68  1  0.75840000  0.80700000  0.60130000  1.0 0.1201436558
H  H69  1  0.75840000  0.30700000  0.89870000  1.0 0.1201436558
H  H70  1  0.75840000  0.69300000  0.10130000  1.0 0.1201436558
H  H71  1  0.24160000  0.30700000  0.10130000  1.0 0.1201436558
H  H72  1  0.24160000  0.69300000  0.89870000  1.0 0.1201436558
H  H73  1  0.31700000  0.22890000  0.65830000  1.0 0.113769126
H  H74  1  0.31700000  0.77110000  0.34170000  1.0 0.113769126
H  H75  1  0.68300000  0.22890000  0.34170000  1.0 0.113769126
H  H76  1  0.68300000  0.77110000  0.65830000  1.0 0.113769126
H  H77  1  0.68300000  0.27110000  0.84170000  1.0 0.113769126
H  H78  1  0.68300000  0.72890000  0.15830000  1.0 0.113769126
H  H79  1  0.31700000  0.27110000  0.15830000  1.0 0.113769126
H  H80  1  0.31700000  0.72890000  0.84170000  1.0 0.113769126
H  H81  1  0.01280000  0.29830000  0.66150000  1.0 0.1303779865
H  H82  1  0.01280000  0.70170000  0.33850000  1.0 0.1303779865
H  H83  1  0.98720000  0.29830000  0.33850000  1.0 0.1303779865
H  H84  1  0.98720000  0.70170000  0.66150000  1.0 0.1303779865
H  H85  1  0.98720000  0.20170000  0.83850000  1.0 0.1303779865
H  H86  1  0.98720000  0.79830000  0.16150000  1.0 0.1303779865
H  H87  1  0.01280000  0.20170000  0.16150000  1.0 0.1303779865
H  H88  1  0.01280000  0.79830000  0.83850000  1.0 0.1303779865
H  H89  1  0.93740000  0.26240000  0.60450000  1.0 0.1303779865
H  H90  1  0.93740000  0.73760000  0.39550000  1.0 0.1303779865
H  H91  1  0.06260000  0.26240000  0.39550000  1.0 0.1303779865
H  H92  1  0.06260000  0.73760000  0.60450000  1.0 0.1303779865
H  H93  1  0.06260000  0.23760000  0.89550000  1.0 0.1303779865
H  H94  1  0.06260000  0.76240000  0.10450000  1.0 0.1303779865
H  H95  1  0.93740000  0.23760000  0.10450000  1.0 0.1303779865
H  H96  1  0.93740000  0.76240000  0.89550000  1.0 0.1303779865
H  H97  1  0.48440000  0.31260000  0.75000000  1.0 0.1201436558
H  H98  1  0.48440000  0.68740000  0.25000000  1.0 0.1201436558
H  H99  1  0.51560000  0.31260000  0.25000000  1.0 0.1201436558
H  H100  1  0.51560000  0.68740000  0.75000000  1.0 0.1201436558
H  H101  1  0.51560000  0.18740000  0.75000000  1.0 0.1201436558
H  H102  1  0.51560000  0.81260000  0.25000000  1.0 0.1201436558
H  H103  1  0.48440000  0.18740000  0.25000000  1.0 0.1201436558
H  H104  1  0.48440000  0.81260000  0.75000000  1.0 0.1201436558
H  H105  1  0.08440000  0.27780000  0.74220000  1.0 0.1201436558
H  H106  1  0.08440000  0.72220000  0.25780000  1.0 0.1201436558
H  H107  1  0.91560000  0.27780000  0.25780000  1.0 0.1201436558
H  H108  1  0.91560000  0.72220000  0.74220000  1.0 0.1201436558
H  H109  1  0.91560000  0.22220000  0.75780000  1.0 0.1201436558
H  H110  1  0.91560000  0.77780000  0.24220000  1.0 0.1201436558
H  H111  1  0.08440000  0.22220000  0.24220000  1.0 0.1201436558
H  H112  1  0.08440000  0.77780000  0.75780000  1.0 0.1201436558
H  H113  1  0.09250000  0.35340000  0.81420000  1.0 0.1303779865
H  H114  1  0.09250000  0.64660000  0.18580000  1.0 0.1303779865
H  H115  1  0.90750000  0.35340000  0.18580000  1.0 0.1303779865
H  H116  1  0.90750000  0.64660000  0.81420000  1.0 0.1303779865
H  H117  1  0.90750000  0.14660000  0.68580000  1.0 0.1303779865
H  H118  1  0.90750000  0.85340000  0.31420000  1.0 0.1303779865
H  H119  1  0.09250000  0.14660000  0.31420000  1.0 0.1303779865
H  H120  1  0.09250000  0.85340000  0.68580000  1.0 0.1303779865
H  H121  1  0.02140000  0.31180000  0.80660000  1.0 0.1385106915
H  H122  1  0.02140000  0.68820000  0.19340000  1.0 0.1385106915
H  H123  1  0.97860000  0.31180000  0.19340000  1.0 0.1385106915
H  H124  1  0.97860000  0.68820000  0.80660000  1.0 0.1385106915
H  H125  1  0.97860000  0.18820000  0.69340000  1.0 0.1385106915
H  H126  1  0.97860000  0.81180000  0.30660000  1.0 0.1385106915
H  H127  1  0.02140000  0.18820000  0.30660000  1.0 0.1385106915
H  H128  1  0.02140000  0.81180000  0.69340000  1.0 0.1385106915
H  H129  1  0.12290000  0.31380000  0.84080000  1.0 0.1385106915
H  H130  1  0.12290000  0.68620000  0.15920000  1.0 0.1385106915
H  H131  1  0.87710000  0.31380000  0.15920000  1.0 0.1385106915
H  H132  1  0.87710000  0.68620000  0.84080000  1.0 0.1385106915
H  H133  1  0.87710000  0.18620000  0.65920000  1.0 0.1385106915
H  H134  1  0.87710000  0.81380000  0.34080000  1.0 0.1303779865
H  H135  1  0.12290000  0.18620000  0.34080000  1.0 0.1385106915
H  H136  1  0.12290000  0.81380000  0.65920000  1.0 0.1303779865
H  H137  1  0.47260000  0.28630000  0.68180000  1.0 0.1201436558
H  H138  1  0.47260000  0.71370000  0.31820000  1.0 0.1201436558
H  H139  1  0.52740000  0.28630000  0.31820000  1.0 0.1201436558
H  H140  1  0.52740000  0.71370000  0.68180000  1.0 0.1201436558
H  H141  1  0.52740000  0.21370000  0.81820000  1.0 0.1201436558
H  H142  1  0.52740000  0.78630000  0.18180000  1.0 0.1201436558
H  H143  1  0.47260000  0.21370000  0.18180000  1.0 0.1201436558
H  H144  1  0.47260000  0.78630000  0.81820000  1.0 0.1201436558
H  H145  1  0.42720000  0.33120000  0.67090000  1.0 0.1303779865
H  H146  1  0.42720000  0.66880000  0.32910000  1.0 0.1303779865
H  H147  1  0.57280000  0.33120000  0.32910000  1.0 0.1303779865
H  H148  1  0.57280000  0.66880000  0.67090000  1.0 0.1303779865
H  H149  1  0.57280000  0.16880000  0.82910000  1.0 0.1303779865
H  H150  1  0.57280000  0.83120000  0.17090000  1.0 0.1303779865
H  H151  1  0.42720000  0.16880000  0.17090000  1.0 0.1303779865
H  H152  1  0.42720000  0.83120000  0.82910000  1.0 0.1303779865
H  H153  1  0.36030000  0.29240000  0.65230000  1.0 0.0971325355
H  H154  1  0.36030000  0.70760000  0.34770000  1.0 0.0971325355
H  H155  1  0.63970000  0.29240000  0.34770000  1.0 0.0971325355
H  H156  1  0.63970000  0.70760000  0.65230000  1.0 0.0971325355
H  H157  1  0.63970000  0.20760000  0.84770000  1.0 0.0971325355
H  H158  1  0.63970000  0.79240000  0.15230000  1.0 0.0971325355
H  H159  1  0.36030000  0.20760000  0.15230000  1.0 0.0971325355
H  H160  1  0.36030000  0.79240000  0.84770000  1.0 0.0971325355
C  C1  1  0.78260000  0.99520000  0.59790000  1.0 0.0790962678
C  C2  1  0.78260000  0.00480000  0.40210000  1.0 0.0790962678
C  C3  1  0.21740000  0.99520000  0.40210000  1.0 0.0790962678
C  C4  1  0.21740000  0.00480000  0.59790000  1.0 0.0790962678
C  C5  1  0.21740000  0.50480000  0.90210000  1.0 0.0790962678
C  C6  1  0.21740000  0.49520000  0.09790000  1.0 0.0790962678
C  C7  1  0.78260000  0.50480000  0.09790000  1.0 0.0790962678
C  C8  1  0.78260000  0.49520000  0.90210000  1.0 0.0790962678
C  C9  1  0.56750000  0.40880000  0.90560000  1.0 0.5487878125
C  C10  1  0.56750000  0.59120000  0.09440000  1.0 0.5487878125
C  C11  1  0.43250000  0.40880000  0.09440000  1.0 0.5487878125
C  C12  1  0.43250000  0.59120000  0.90560000  1.0 0.5487878125
C  C13  1  0.43250000  0.09120000  0.59440000  1.0 0.5487878125
C  C14  1  0.43250000  0.90880000  0.40560000  1.0 0.5487878125
C  C15  1  0.56750000  0.09120000  0.40560000  1.0 0.5487878125
C  C16  1  0.56750000  0.90880000  0.59440000  1.0 0.5487878125
C  C17  1  0.92210000  0.08529000  0.55943000  1.0 0.3541476194
C  C18  1  0.92210000  0.91471000  0.44057000  1.0 0.3541476194
C  C19  1  0.07790000  0.08529000  0.44057000  1.0 0.3541476194
C  C20  1  0.07790000  0.91471000  0.55943000  1.0 0.3541476194
C  C21  1  0.07790000  0.41471000  0.94057000  1.0 0.3541476194
C  C22  1  0.07790000  0.58529000  0.05943000  1.0 0.3541476194
C  C23  1  0.92210000  0.41471000  0.05943000  1.0 0.3541476194
C  C24  1  0.92210000  0.58529000  0.94057000  1.0 0.3541476194
C  C25  1  0.85760000  0.04962000  0.57003000  1.0 -0.0313150611
C  C26  1  0.85760000  0.95038000  0.42997000  1.0 -0.0313150611
C  C27  1  0.14240000  0.04962000  0.42997000  1.0 -0.0313150611
C  C28  1  0.14240000  0.95038000  0.57003000  1.0 -0.0313150611
C  C29  1  0.14240000  0.45038000  0.92997000  1.0 -0.0313150611
C  C30  1  0.14240000  0.54962000  0.07003000  1.0 -0.0313150611
C  C31  1  0.85760000  0.45038000  0.07003000  1.0 -0.0313150611
C  C32  1  0.85760000  0.54962000  0.92997000  1.0 -0.0313150611
C  C33  1  0.76090000  0.03648000  0.54541000  1.0 0.3297179517
C  C34  1  0.76090000  0.96352000  0.45459000  1.0 0.3297179517
C  C35  1  0.23910000  0.03648000  0.45459000  1.0 0.3297179517
C  C36  1  0.23910000  0.96352000  0.54541000  1.0 0.3297179517
C  C37  1  0.23910000  0.46352000  0.95459000  1.0 0.3297179517
C  C38  1  0.23910000  0.53648000  0.04541000  1.0 0.3297179517
C  C39  1  0.76090000  0.46352000  0.04541000  1.0 0.3297179517
C  C40  1  0.76090000  0.53648000  0.95459000  1.0 0.3297179517
C  C41  1  0.79320000  0.09468000  0.49957000  1.0 0.2247788374
C  C42  1  0.79320000  0.90532000  0.50043000  1.0 0.2247788374
C  C43  1  0.20680000  0.09468000  0.50043000  1.0 0.2254208509
C  C44  1  0.20680000  0.90532000  0.49957000  1.0 0.2254208509
C  C45  1  0.20680000  0.40532000  0.00043000  1.0 0.2254208509
C  C46  1  0.20680000  0.59468000  0.99957000  1.0 0.2254208509
C  C47  1  0.79320000  0.40532000  0.99957000  1.0 0.2254208509
C  C48  1  0.79320000  0.59468000  0.00043000  1.0 0.2247788374
C  C49  1  0.54010000  0.34960000  0.86110000  1.0 -0.1000892414
C  C50  1  0.54010000  0.65040000  0.13890000  1.0 -0.1000892414
C  C51  1  0.45990000  0.34960000  0.13890000  1.0 -0.1000892414
C  C52  1  0.45990000  0.65040000  0.86110000  1.0 -0.1000892414
C  C53  1  0.45990000  0.15040000  0.63890000  1.0 -0.1000892414
C  C54  1  0.45990000  0.84960000  0.36110000  1.0 -0.1000892414
C  C55  1  0.54010000  0.15040000  0.36110000  1.0 -0.1000892414
C  C56  1  0.54010000  0.84960000  0.63890000  1.0 -0.1000892414
C  C57  1  0.47730000  0.32590000  0.83200000  1.0 -0.1407553751
C  C58  1  0.47730000  0.67410000  0.16800000  1.0 -0.1407553751
C  C59  1  0.52270000  0.32590000  0.16800000  1.0 -0.1407553751
C  C60  1  0.52270000  0.67410000  0.83200000  1.0 -0.1407553751
C  C61  1  0.52270000  0.17410000  0.66800000  1.0 -0.1407553751
C  C62  1  0.52270000  0.82590000  0.33200000  1.0 -0.1407553751
C  C63  1  0.47730000  0.17410000  0.33200000  1.0 -0.1407553751
C  C64  1  0.47730000  0.82590000  0.66800000  1.0 -0.1407553751
C  C65  1  0.37440000  0.34200000  0.81270000  1.0 0.0891918343
C  C66  1  0.37440000  0.65800000  0.18730000  1.0 0.0891918343
C  C67  1  0.62560000  0.34200000  0.18730000  1.0 0.0891918343
C  C68  1  0.62560000  0.65800000  0.81270000  1.0 0.0891918343
C  C69  1  0.62560000  0.15800000  0.68730000  1.0 0.0891918343
C  C70  1  0.62560000  0.84200000  0.31270000  1.0 0.0891918343
C  C71  1  0.37440000  0.15800000  0.31270000  1.0 0.0891918343
C  C72  1  0.37440000  0.84200000  0.68730000  1.0 0.0891918343
C  C73  1  0.33430000  0.38180000  0.82240000  1.0 -0.1329524379
C  C74  1  0.33430000  0.61820000  0.17760000  1.0 -0.1329524379
C  C75  1  0.66570000  0.38180000  0.17760000  1.0 -0.1329524379
C  C76  1  0.66570000  0.61820000  0.82240000  1.0 -0.1329524379
C  C77  1  0.66570000  0.11820000  0.67760000  1.0 -0.1329524379
C  C78  1  0.66570000  0.88180000  0.32240000  1.0 -0.1329524379
C  C79  1  0.33430000  0.11820000  0.32240000  1.0 -0.1329524379
C  C80  1  0.33430000  0.88180000  0.67760000  1.0 -0.1329524379
C  C81  1  0.39700000  0.40550000  0.85150000  1.0 -0.1000892414
C  C82  1  0.39700000  0.59450000  0.14850000  1.0 -0.1000892414
C  C83  1  0.60300000  0.40550000  0.14850000  1.0 -0.1000892414
C  C84  1  0.60300000  0.59450000  0.85150000  1.0 -0.1000892414
C  C85  1  0.60300000  0.09450000  0.64850000  1.0 -0.1000892414
C  C86  1  0.60300000  0.90550000  0.35150000  1.0 -0.1000892414
C  C87  1  0.39700000  0.09450000  0.35150000  1.0 -0.1000892414
C  C88  1  0.39700000  0.90550000  0.64850000  1.0 -0.1000892414
C  C89  1  0.50000000  0.38940000  0.87090000  1.0 -0.0313150611
C  C90  1  0.50000000  0.61060000  0.12910000  1.0 -0.0313150611
C  C91  1  0.50000000  0.38940000  0.12910000  1.0 -0.0313150611
C  C92  1  0.50000000  0.61060000  0.87090000  1.0 -0.0313150611
C  C93  1  0.50000000  0.11060000  0.62910000  1.0 -0.0313150611
C  C94  1  0.50000000  0.88940000  0.37090000  1.0 -0.0313150611
C  C95  1  0.50000000  0.11060000  0.37090000  1.0 -0.0313150611
C  C96  1  0.50000000  0.88940000  0.62910000  1.0 -0.0313150611
C  C97  1  0.02900000  0.20000000  0.56420000  1.0 0.5487878125
C  C98  1  0.02900000  0.80000000  0.43580000  1.0 0.5487878125
C  C99  1  0.97100000  0.20000000  0.43580000  1.0 0.5487878125
C  C100  1  0.97100000  0.80000000  0.56420000  1.0 0.5487878125
C  C101  1  0.97100000  0.30000000  0.93580000  1.0 0.5487878125
C  C102  1  0.97100000  0.70000000  0.06420000  1.0 0.5487878125
C  C103  1  0.02900000  0.30000000  0.06420000  1.0 0.5487878125
C  C104  1  0.02900000  0.70000000  0.93580000  1.0 0.5487878125
C  C105  1  0.08200000  0.22410000  0.59720000  1.0 -0.0638902198
C  C106  1  0.08200000  0.77590000  0.40280000  1.0 -0.0638902198
C  C107  1  0.91800000  0.22410000  0.40280000  1.0 -0.0638902198
C  C108  1  0.91800000  0.77590000  0.59720000  1.0 -0.0638902198
C  C109  1  0.91800000  0.27590000  0.90280000  1.0 -0.0638902198
C  C110  1  0.91800000  0.72410000  0.09720000  1.0 -0.0638902198
C  C111  1  0.08200000  0.27590000  0.09720000  1.0 -0.0638902198
C  C112  1  0.08200000  0.72410000  0.90280000  1.0 -0.0638902198
C  C113  1  0.19570000  0.21410000  0.61330000  1.0 -0.0854834403
C  C114  1  0.19570000  0.78590000  0.38670000  1.0 -0.0854834403
C  C115  1  0.80430000  0.21410000  0.38670000  1.0 -0.0854834403
C  C116  1  0.80430000  0.78590000  0.61330000  1.0 -0.0854834403
C  C117  1  0.80430000  0.28590000  0.88670000  1.0 -0.0854834403
C  C118  1  0.80430000  0.71410000  0.11330000  1.0 -0.0854834403
C  C119  1  0.19570000  0.28590000  0.11330000  1.0 -0.0854834403
C  C120  1  0.19570000  0.71410000  0.88670000  1.0 -0.0854834403
C  C121  1  0.24100000  0.23560000  0.64750000  1.0 -0.1464933764
C  C122  1  0.24100000  0.76440000  0.35250000  1.0 -0.1464933764
C  C123  1  0.75900000  0.23560000  0.35250000  1.0 -0.1464933764
C  C124  1  0.75900000  0.76440000  0.64750000  1.0 -0.1464933764
C  C125  1  0.75900000  0.26440000  0.85250000  1.0 -0.1464933764
C  C126  1  0.75900000  0.73560000  0.14750000  1.0 -0.1464933764
C  C127  1  0.24100000  0.26440000  0.14750000  1.0 -0.1464933764
C  C128  1  0.24100000  0.73560000  0.85250000  1.0 -0.1464933764
C  C129  1  0.17240000  0.26720000  0.66550000  1.0 0.0891918343
C  C130  1  0.17240000  0.73280000  0.33450000  1.0 0.0891918343
C  C131  1  0.82760000  0.26720000  0.33450000  1.0 0.0891918343
C  C132  1  0.82760000  0.73280000  0.66550000  1.0 0.0891918343
C  C133  1  0.82760000  0.23280000  0.83450000  1.0 0.0891918343
C  C134  1  0.82760000  0.76720000  0.16550000  1.0 0.0891918343
C  C135  1  0.17240000  0.23280000  0.16550000  1.0 0.0891918343
C  C136  1  0.17240000  0.76720000  0.83450000  1.0 0.0891918343
C  C137  1  0.05870000  0.27720000  0.64940000  1.0 -0.1464933764
C  C138  1  0.05870000  0.72280000  0.35060000  1.0 -0.1464933764
C  C139  1  0.94130000  0.27720000  0.35060000  1.0 -0.1464933764
C  C140  1  0.94130000  0.72280000  0.64940000  1.0 -0.1464933764
C  C141  1  0.94130000  0.22280000  0.85060000  1.0 -0.1464933764
C  C142  1  0.94130000  0.77720000  0.14940000  1.0 -0.1464933764
C  C143  1  0.05870000  0.22280000  0.14940000  1.0 -0.1464933764
C  C144  1  0.05870000  0.77720000  0.85060000  1.0 -0.1464933764
C  C145  1  0.01350000  0.25570000  0.61530000  1.0 -0.0794874701
C  C146  1  0.01350000  0.74430000  0.38470000  1.0 -0.0794874701
C  C147  1  0.98650000  0.25570000  0.38470000  1.0 -0.0794874701
C  C148  1  0.98650000  0.74430000  0.61530000  1.0 -0.0794874701
C  C149  1  0.98650000  0.24430000  0.88470000  1.0 -0.0794874701
C  C150  1  0.98650000  0.75570000  0.11530000  1.0 -0.0794874701
C  C151  1  0.01350000  0.24430000  0.11530000  1.0 -0.0794874701
C  C152  1  0.01350000  0.75570000  0.88470000  1.0 -0.0794874701
C  C153  1  0.31420000  0.31840000  0.77920000  1.0 -0.0313150611
C  C154  1  0.31420000  0.68160000  0.22080000  1.0 -0.0313150611
C  C155  1  0.68580000  0.31840000  0.22080000  1.0 -0.0313150611
C  C156  1  0.68580000  0.68160000  0.77920000  1.0 -0.0313150611
C  C157  1  0.68580000  0.18160000  0.72080000  1.0 -0.0313150611
C  C158  1  0.68580000  0.81840000  0.27920000  1.0 -0.0313150611
C  C159  1  0.31420000  0.18160000  0.27920000  1.0 -0.0313150611
C  C160  1  0.31420000  0.81840000  0.72080000  1.0 -0.0313150611
C  C161  1  0.21400000  0.29130000  0.70100000  1.0 -0.0090168041
C  C162  1  0.21400000  0.70870000  0.29900000  1.0 -0.0090168041
C  C163  1  0.78600000  0.29130000  0.29900000  1.0 -0.0090168041
C  C164  1  0.78600000  0.70870000  0.70100000  1.0 -0.0090168041
C  C165  1  0.78600000  0.20870000  0.79900000  1.0 -0.0090168041
C  C166  1  0.78600000  0.79130000  0.20100000  1.0 -0.0090168041
C  C167  1  0.21400000  0.20870000  0.20100000  1.0 -0.0090168041
C  C168  1  0.21400000  0.79130000  0.79900000  1.0 -0.0090168041
C  C169  1  0.33400000  0.29960000  0.71180000  1.0 0.0702531718
C  C170  1  0.33400000  0.70040000  0.28820000  1.0 0.0702531718
C  C171  1  0.66600000  0.29960000  0.28820000  1.0 0.0702531718
C  C172  1  0.66600000  0.70040000  0.71180000  1.0 0.0702531718
C  C173  1  0.66600000  0.20040000  0.78820000  1.0 0.0702531718
C  C174  1  0.66600000  0.79960000  0.21180000  1.0 0.0702531718
C  C175  1  0.33400000  0.20040000  0.21180000  1.0 0.0702531718
C  C176  1  0.33400000  0.79960000  0.78820000  1.0 0.0702531718
C  C177  1  0.18700000  0.31250000  0.77880000  1.0 0.1385106915
C  C178  1  0.18700000  0.68750000  0.22120000  1.0 0.1385106915
C  C179  1  0.81300000  0.31250000  0.22120000  1.0 0.1385106915
C  C180  1  0.81300000  0.68750000  0.77880000  1.0 0.1385106915
C  C181  1  0.81300000  0.18750000  0.72120000  1.0 0.1385106915
C  C182  1  0.81300000  0.81250000  0.27880000  1.0 0.1385106915
C  C183  1  0.18700000  0.18750000  0.27880000  1.0 0.1385106915
C  C184  1  0.18700000  0.81250000  0.72120000  1.0 0.1385106915
C  C185  1  0.40000000  0.31070000  0.74760000  1.0 -0.1919703718
C  C186  1  0.40000000  0.68930000  0.25240000  1.0 -0.1919703718
C  C187  1  0.60000000  0.31070000  0.25240000  1.0 -0.1919703718
C  C188  1  0.60000000  0.68930000  0.74760000  1.0 -0.1919703718
C  C189  1  0.60000000  0.18930000  0.75240000  1.0 -0.1919703718
C  C190  1  0.60000000  0.81070000  0.24760000  1.0 -0.1919703718
C  C191  1  0.40000000  0.18930000  0.24760000  1.0 -0.1919703718
C  C192  1  0.40000000  0.81070000  0.75240000  1.0 -0.1919703718
C  C193  1  0.15700000  0.29280000  0.74090000  1.0 -0.2677546378
C  C194  1  0.15700000  0.70720000  0.25910000  1.0 -0.2677546378
C  C195  1  0.84300000  0.29280000  0.25910000  1.0 -0.2677546378
C  C196  1  0.84300000  0.70720000  0.74090000  1.0 -0.2677546378
C  C197  1  0.84300000  0.20720000  0.75910000  1.0 -0.2677546378
C  C198  1  0.84300000  0.79280000  0.24090000  1.0 -0.2677546378
C  C199  1  0.15700000  0.20720000  0.24090000  1.0 -0.2677546378
C  C200  1  0.15700000  0.79280000  0.75910000  1.0 -0.2677546378
C  C201  1  0.09900000  0.32360000  0.81380000  1.0 -0.4459536863
C  C202  1  0.09900000  0.67640000  0.18620000  1.0 -0.4459536863
C  C203  1  0.90100000  0.32360000  0.18620000  1.0 -0.4459536863
C  C204  1  0.90100000  0.67640000  0.81380000  1.0 -0.4459536863
C  C205  1  0.90100000  0.17640000  0.68620000  1.0 -0.4449185069
C  C206  1  0.90100000  0.82360000  0.31380000  1.0 -0.4459536863
C  C207  1  0.09900000  0.17640000  0.31380000  1.0 -0.4459536863
C  C208  1  0.09900000  0.82360000  0.68620000  1.0 -0.4459536863
C  C209  1  0.40200000  0.30310000  0.67620000  1.0 -0.4117959935
C  C210  1  0.40200000  0.69690000  0.32380000  1.0 -0.4117959935
C  C211  1  0.59800000  0.30310000  0.32380000  1.0 -0.4117959935
C  C212  1  0.59800000  0.69690000  0.67620000  1.0 -0.4117959935
C  C213  1  0.59800000  0.19690000  0.82380000  1.0 -0.4117959935
C  C214  1  0.59800000  0.80310000  0.17620000  1.0 -0.4117959935
C  C215  1  0.40200000  0.19690000  0.17620000  1.0 -0.4117959935
C  C216  1  0.40200000  0.80310000  0.82380000  1.0 -0.4117959935
N  N1  1  0.88010000  0.02538000  0.60586000  1.0 -0.333337258
N  N2  1  0.88010000  0.97462000  0.39414000  1.0 -0.333337258
N  N3  1  0.11990000  0.02538000  0.39414000  1.0 -0.333337258
N  N4  1  0.11990000  0.97462000  0.60586000  1.0 -0.3350259598
N  N5  1  0.11990000  0.47462000  0.89414000  1.0 -0.333337258
N  N6  1  0.11990000  0.52538000  0.10586000  1.0 -0.333337258
N  N7  1  0.88010000  0.47462000  0.10586000  1.0 -0.333337258
N  N8  1  0.88010000  0.52538000  0.89414000  1.0 -0.333337258
N  N9  1  0.72140000  0.00632000  0.56067000  1.0 -0.2254440274
N  N10  1  0.72140000  0.99368000  0.43933000  1.0 -0.224653789
N  N11  1  0.27860000  0.00632000  0.43933000  1.0 -0.2254440274
N  N12  1  0.27860000  0.99368000  0.56067000  1.0 -0.2254440274
N  N13  1  0.27860000  0.49368000  0.93933000  1.0 -0.2254440274
N  N14  1  0.27860000  0.50632000  0.06067000  1.0 -0.2254440274
N  N15  1  0.72140000  0.49368000  0.06067000  1.0 -0.2254440274
N  N16  1  0.72140000  0.50632000  0.93933000  1.0 -0.2254440274
N  N17  1  0.01760000  0.09388000  0.59370000  1.0 -0.5980814036
N  N18  1  0.01760000  0.90612000  0.40630000  1.0 -0.5980814036
N  N19  1  0.98240000  0.09388000  0.40630000  1.0 -0.5980814036
N  N20  1  0.98240000  0.90612000  0.59370000  1.0 -0.5980814036
N  N21  1  0.98240000  0.40612000  0.90630000  1.0 -0.5980814036
N  N22  1  0.98240000  0.59388000  0.09370000  1.0 -0.5980814036
N  N23  1  0.01760000  0.40612000  0.09370000  1.0 -0.5980814036
N  N24  1  0.01760000  0.59388000  0.90630000  1.0 -0.5980814036
N  N25  1  0.72870000  0.05901000  0.51018000  1.0 -0.4183675956
N  N26  1  0.72870000  0.94099000  0.48982000  1.0 -0.4183675956
N  N27  1  0.27130000  0.05901000  0.48982000  1.0 -0.4183675956
N  N28  1  0.27130000  0.94099000  0.51018000  1.0 -0.4183675956
N  N29  1  0.27130000  0.44099000  0.98982000  1.0 -0.4183675956
N  N30  1  0.27130000  0.55901000  0.01018000  1.0 -0.4183675956
N  N31  1  0.72870000  0.44099000  0.01018000  1.0 -0.4183675956
N  N32  1  0.72870000  0.55901000  0.98982000  1.0 -0.4183675956
N  N33  1  0.88980000  0.10782000  0.52420000  1.0 -0.3744926389
N  N34  1  0.88980000  0.89218000  0.47580000  1.0 -0.3753595885
N  N35  1  0.11020000  0.10782000  0.47580000  1.0 -0.3744926389
N  N36  1  0.11020000  0.89218000  0.52420000  1.0 -0.3753595885
N  N37  1  0.11020000  0.39218000  0.97580000  1.0 -0.3753595885
N  N38  1  0.11020000  0.60782000  0.02420000  1.0 -0.3753595885
N  N39  1  0.88980000  0.39218000  0.02420000  1.0 -0.3744926389
N  N40  1  0.88980000  0.60782000  0.97580000  1.0 -0.3753595885
O  O1  1  0.50000000  0.00000000  0.50000000  1.0 -0.8551547166
O  O2  1  0.50000000  0.50000000  0.00000000  1.0 -0.8551547166
O  O3  1  0.08810000  0.16850000  0.54995000  1.0 -0.5514682766
O  O4  1  0.08810000  0.83150000  0.45005000  1.0 -0.5514682766
O  O5  1  0.91190000  0.16850000  0.45005000  1.0 -0.5514682766
O  O6  1  0.91190000  0.83150000  0.54995000  1.0 -0.5514682766
O  O7  1  0.91190000  0.33150000  0.95005000  1.0 -0.5514682766
O  O8  1  0.91190000  0.66850000  0.04995000  1.0 -0.5514682766
O  O9  1  0.08810000  0.33150000  0.04995000  1.0 -0.5514682766
O  O10  1  0.08810000  0.66850000  0.95005000  1.0 -0.5514682766
O  O11  1  0.67910000  0.40682000  0.90720000  1.0 -0.5397934701
O  O12  1  0.67910000  0.59318000  0.09280000  1.0 -0.5397934701
O  O13  1  0.32090000  0.40682000  0.09280000  1.0 -0.5397934701
O  O14  1  0.32090000  0.59318000  0.90720000  1.0 -0.5397934701
O  O15  1  0.32090000  0.09318000  0.59280000  1.0 -0.5397934701
O  O16  1  0.32090000  0.90682000  0.40720000  1.0 -0.5397934701
O  O17  1  0.67910000  0.09318000  0.40720000  1.0 -0.5397934701
O  O18  1  0.67910000  0.90682000  0.59280000  1.0 -0.5397934701
O  O19  1  0.50450000  0.43120000  0.93160000  1.0 -0.5397934701
O  O20  1  0.50450000  0.56880000  0.06840000  1.0 -0.5397934701
O  O21  1  0.49550000  0.43120000  0.06840000  1.0 -0.5397934701
O  O22  1  0.49550000  0.56880000  0.93160000  1.0 -0.5397934701
O  O23  1  0.49550000  0.06880000  0.56840000  1.0 -0.5397934701
O  O24  1  0.49550000  0.93120000  0.43160000  1.0 -0.5397934701
O  O25  1  0.50450000  0.06880000  0.43160000  1.0 -0.5397934701
O  O26  1  0.50450000  0.93120000  0.56840000  1.0 -0.5397934701
O  O27  1  0.92860000  0.20870000  0.54590000  1.0 -0.5234645839
O  O28  1  0.92860000  0.79130000  0.45410000  1.0 -0.5234645839
O  O29  1  0.07140000  0.20870000  0.45410000  1.0 -0.5234645839
O  O30  1  0.07140000  0.79130000  0.54590000  1.0 -0.5234645839
O  O31  1  0.07140000  0.29130000  0.95410000  1.0 -0.5234645839
O  O32  1  0.07140000  0.70870000  0.04590000  1.0 -0.5234645839
O  O33  1  0.92860000  0.29130000  0.04590000  1.0 -0.5234645839
O  O34  1  0.92860000  0.70870000  0.95410000  1.0 -0.5234645839
