# DDEC6 charges by PACMAN v1.1 (https://github.com/mtap-research/PACMAN-charge/)
data_IVIXIW01_ASR_pacman
_symmetry_space_group_name_H-M   'P 1'
_cell_length_a   3.80830000
_cell_length_b   12.47600000
_cell_length_c   13.09000000
_cell_angle_alpha   76.75700000
_cell_angle_beta   84.64900000
_cell_angle_gamma   86.80900000
_symmetry_Int_Tables_number   1
_chemical_formula_structural   AgH9C13(NO)2
_chemical_formula_sum   'Ag2 H18 C26 N4 O4'
_cell_volume   602.38175801
_cell_formula_units_Z   2
loop_
 _symmetry_equiv_pos_site_id
 _symmetry_equiv_pos_as_xyz
  1  'x, y, z'
loop_
 _atom_site_type_symbol
 _atom_site_label
 _atom_site_symmetry_multiplicity
 _atom_site_fract_x
 _atom_site_fract_y
 _atom_site_fract_z
 _atom_site_occupancy
 _atom_site_charge
Ag  Ag1  1  0.16163000  0.91879000  0.59540000  1.0 0.4335318758
Ag  Ag2  1  0.83837000  0.08121000  0.40460000  1.0 0.4335318758
H  H1  1  0.61540000  0.99460000  0.22220000  1.0 0.1219328651
H  H2  1  0.13660000  0.79440000  0.05400000  1.0 0.1080813249
H  H3  1  0.03130000  0.64720000  0.19250000  1.0 0.1012044502
H  H4  1  0.72170000  0.67050000  0.34800000  1.0 0.1219328651
H  H5  1  0.92490000  0.84830000  0.84220000  1.0 0.1012044502
H  H6  1  0.71200000  0.70440000  0.96830000  1.0 0.1277856482
H  H7  1  0.57590000  0.54770000  0.74050000  1.0 0.1383564128
H  H8  1  0.79770000  0.69730000  0.62010000  1.0 0.1219328651
H  H9  1  0.40130000  0.45410000  0.92260000  1.0 0.1219328651
H  H10  1  0.38460000  0.00540000  0.77780000  1.0 0.1219328651
H  H11  1  0.86340000  0.20560000  0.94600000  1.0 0.1080813249
H  H12  1  0.96870000  0.35280000  0.80750000  1.0 0.1012044502
H  H13  1  0.27830000  0.32950000  0.65200000  1.0 0.1219328651
H  H14  1  0.07510000  0.15170000  0.15780000  1.0 0.1012044502
H  H15  1  0.28800000  0.29560000  0.03170000  1.0 0.1277856482
H  H16  1  0.42410000  0.45230000  0.25950000  1.0 0.1383564128
H  H17  1  0.20230000  0.30270000  0.37990000  1.0 0.1219328651
H  H18  1  0.59870000  0.54590000  0.07740000  1.0 0.1219328651
C  C1  1  0.63690000  0.83510000  0.30190000  1.0 -0.0027954679
C  C2  1  0.69790000  0.92440000  0.21660000  1.0 -0.1719714896
C  C3  1  0.87990000  0.90950000  0.12390000  1.0 0.1593310898
C  C4  1  0.00970000  0.80450000  0.11550000  1.0 -0.1719714896
C  C5  1  0.94810000  0.71720000  0.19830000  1.0 -0.0969917398
C  C6  1  0.76170000  0.73100000  0.29230000  1.0 -0.0946614416
C  C7  1  0.44290000  0.85210000  0.40260000  1.0 0.5597462012
C  C8  1  0.85540000  0.78670000  0.82150000  1.0 0.0591040356
C  C9  1  0.72880000  0.70030000  0.89800000  1.0 -0.1926513361
C  C10  1  0.62490000  0.60600000  0.87040000  1.0 0.1593310898
C  C11  1  0.64860000  0.60750000  0.76340000  1.0 -0.2034525024
C  C12  1  0.78090000  0.69860000  0.69110000  1.0 0.0937622516
C  C13  1  0.49650000  0.50870000  0.94840000  1.0 -0.1601086454
C  C14  1  0.36310000  0.16490000  0.69810000  1.0 -0.0027954679
C  C15  1  0.30210000  0.07560000  0.78340000  1.0 -0.1719714896
C  C16  1  0.12010000  0.09050000  0.87610000  1.0 0.1593310898
C  C17  1  0.99030000  0.19550000  0.88450000  1.0 -0.1719714896
C  C18  1  0.05190000  0.28280000  0.80170000  1.0 -0.0969917398
C  C19  1  0.23830000  0.26900000  0.70770000  1.0 -0.0969917398
C  C20  1  0.55710000  0.14790000  0.59740000  1.0 0.5597462012
C  C21  1  0.14460000  0.21330000  0.17850000  1.0 0.0591040356
C  C22  1  0.27120000  0.29970000  0.10200000  1.0 -0.1926513361
C  C23  1  0.37510000  0.39400000  0.12960000  1.0 0.1593310898
C  C24  1  0.35140000  0.39250000  0.23660000  1.0 -0.2034525024
C  C25  1  0.21910000  0.30140000  0.30890000  1.0 0.0937622516
C  C26  1  0.50350000  0.49130000  0.05160000  1.0 -0.1601086454
N  N1  1  0.92700000  0.00770000  0.04240000  1.0 -0.1270301016
N  N2  1  0.88500000  0.78760000  0.71790000  1.0 -0.2230538176
N  N3  1  0.07300000  0.99230000  0.95760000  1.0 -0.1270301016
N  N4  1  0.11500000  0.21240000  0.28210000  1.0 -0.2230538176
O  O1  1  0.39780000  0.95120000  0.41340000  1.0 -0.5534083889
O  O2  1  0.33480000  0.77180000  0.47070000  1.0 -0.5299087213
O  O3  1  0.60220000  0.04880000  0.58660000  1.0 -0.5534083889
O  O4  1  0.66520000  0.22820000  0.52930000  1.0 -0.5299087213
