# DDEC6 charges by PACMAN v1.1 (https://github.com/mtap-research/PACMAN-charge/)
data_IVOTAR_ASR_pacman
_symmetry_space_group_name_H-M   'P 1'
_cell_length_a   29.00460000
_cell_length_b   29.00460000
_cell_length_c   29.00460000
_cell_angle_alpha   109.47100000
_cell_angle_beta   109.47100000
_cell_angle_gamma   109.47100000
_symmetry_Int_Tables_number   1
_chemical_formula_structural   Cu2H25C41NO8
_chemical_formula_sum   'Cu24 H300 C492 N12 O96'
_cell_volume   18783.74995735
_cell_formula_units_Z   12
loop_
 _symmetry_equiv_pos_site_id
 _symmetry_equiv_pos_as_xyz
  1  'x, y, z'
loop_
 _atom_site_type_symbol
 _atom_site_label
 _atom_site_symmetry_multiplicity
 _atom_site_fract_x
 _atom_site_fract_y
 _atom_site_fract_z
 _atom_site_occupancy
 _atom_site_charge
Cu  Cu1  1  0.77684000  0.77684000  0.55368000  1.0 0.7559287458
Cu  Cu2  1  0.22316000  0.22316000  0.44632000  1.0 0.7559287458
Cu  Cu3  1  0.77684000  0.22316000  0.00000000  1.0 0.7559287458
Cu  Cu4  1  0.22316000  0.77684000  0.00000000  1.0 0.7559287458
Cu  Cu5  1  0.55368000  0.77684000  0.77684000  1.0 0.7559287458
Cu  Cu6  1  0.44632000  0.22316000  0.22316000  1.0 0.7559287458
Cu  Cu7  1  0.00000000  0.77684000  0.22316000  1.0 0.7559287458
Cu  Cu8  1  0.00000000  0.22316000  0.77684000  1.0 0.7559287458
Cu  Cu9  1  0.77684000  0.55368000  0.77684000  1.0 0.7559287458
Cu  Cu10  1  0.22316000  0.44632000  0.22316000  1.0 0.7559287458
Cu  Cu11  1  0.22316000  0.00000000  0.77684000  1.0 0.7559287458
Cu  Cu12  1  0.77684000  0.00000000  0.22316000  1.0 0.7559287458
Cu  Cu13  1  0.83352000  0.00000000  0.16648000  1.0 0.8522214452
Cu  Cu14  1  0.83352000  0.66704000  0.83352000  1.0 0.8522214452
Cu  Cu15  1  0.16648000  0.00000000  0.83352000  1.0 0.8522214452
Cu  Cu16  1  0.16648000  0.33296000  0.16648000  1.0 0.8522214452
Cu  Cu17  1  0.16648000  0.83352000  0.00000000  1.0 0.8522214452
Cu  Cu18  1  0.83352000  0.83352000  0.66704000  1.0 0.8522214452
Cu  Cu19  1  0.83352000  0.16648000  0.00000000  1.0 0.8522214452
Cu  Cu20  1  0.16648000  0.16648000  0.33296000  1.0 0.8522214452
Cu  Cu21  1  0.00000000  0.16648000  0.83352000  1.0 0.8522214452
Cu  Cu22  1  0.66704000  0.83352000  0.83352000  1.0 0.8522214452
Cu  Cu23  1  0.00000000  0.83352000  0.16648000  1.0 0.8522214452
Cu  Cu24  1  0.33296000  0.16648000  0.16648000  1.0 0.8522214452
H  H1  1  0.67244000  0.73320000  0.29004000  1.0 0.1023941246
H  H2  1  0.71310000  0.77386000  0.24576000  1.0 0.1023941246
H  H3  1  0.86665000  0.80588000  0.35453000  1.0 0.1023941246
H  H4  1  0.82598000  0.76522000  0.39880000  1.0 0.1023941246
H  H5  1  0.78198000  0.86791000  0.26109000  1.0 0.1284313081
H  H6  1  0.44316000  0.38240000  0.70996000  1.0 0.1023941246
H  H7  1  0.52810000  0.46734000  0.75424000  1.0 0.1023941246
H  H8  1  0.45135000  0.51212000  0.64547000  1.0 0.1023941246
H  H9  1  0.36642000  0.42718000  0.60120000  1.0 0.1023941246
H  H10  1  0.60682000  0.52089000  0.73891000  1.0 0.1284313081
H  H11  1  0.55684000  0.26680000  0.93924000  1.0 0.1023941246
H  H12  1  0.47190000  0.22614000  0.93924000  1.0 0.1023941246
H  H13  1  0.54865000  0.19412000  0.06077000  1.0 0.1023941246
H  H14  1  0.63358000  0.23478000  0.06076000  1.0 0.1023941246
H  H15  1  0.39318000  0.13209000  0.91407000  1.0 0.1284313081
H  H16  1  0.32756000  0.61760000  0.06076000  1.0 0.1023941246
H  H17  1  0.28690000  0.53266000  0.06076000  1.0 0.1023941246
H  H18  1  0.13335000  0.48788000  0.93923000  1.0 0.1023941246
H  H19  1  0.17402000  0.57282000  0.93924000  1.0 0.1023941246
H  H20  1  0.21802000  0.47911000  0.08593000  1.0 0.1284313081
H  H21  1  0.29004000  0.67244000  0.73320000  1.0 0.1023941246
H  H22  1  0.24576000  0.71310000  0.77386000  1.0 0.1023941246
H  H23  1  0.35453000  0.86665000  0.80588000  1.0 0.1023941246
H  H24  1  0.39880000  0.82598000  0.76522000  1.0 0.1023941246
H  H25  1  0.26109000  0.78198000  0.86791000  1.0 0.1284313081
H  H26  1  0.70996000  0.44316000  0.38240000  1.0 0.1023941246
H  H27  1  0.75424000  0.52810000  0.46734000  1.0 0.1023941246
H  H28  1  0.64547000  0.45135000  0.51212000  1.0 0.1023941246
H  H29  1  0.60120000  0.36642000  0.42718000  1.0 0.1023941246
H  H30  1  0.73891000  0.60682000  0.52089000  1.0 0.1284313081
H  H31  1  0.93924000  0.55684000  0.26680000  1.0 0.1023941246
H  H32  1  0.93924000  0.47190000  0.22614000  1.0 0.1023941246
H  H33  1  0.06077000  0.54865000  0.19412000  1.0 0.1023941246
H  H34  1  0.06076000  0.63358000  0.23478000  1.0 0.1023941246
H  H35  1  0.91407000  0.39318000  0.13209000  1.0 0.1284313081
H  H36  1  0.06076000  0.32756000  0.61760000  1.0 0.1023941246
H  H37  1  0.06076000  0.28690000  0.53266000  1.0 0.1023941246
H  H38  1  0.93923000  0.13335000  0.48788000  1.0 0.1023941246
H  H39  1  0.93924000  0.17402000  0.57282000  1.0 0.1023941246
H  H40  1  0.08593000  0.21802000  0.47911000  1.0 0.1284313081
H  H41  1  0.73320000  0.29004000  0.67244000  1.0 0.1023941246
H  H42  1  0.77386000  0.24576000  0.71310000  1.0 0.1023941246
H  H43  1  0.80588000  0.35453000  0.86665000  1.0 0.1023941246
H  H44  1  0.76522000  0.39880000  0.82598000  1.0 0.1023941246
H  H45  1  0.86791000  0.26109000  0.78198000  1.0 0.1284313081
H  H46  1  0.38240000  0.70996000  0.44316000  1.0 0.1023941246
H  H47  1  0.46734000  0.75424000  0.52810000  1.0 0.1023941246
H  H48  1  0.51212000  0.64547000  0.45135000  1.0 0.1023941246
H  H49  1  0.42718000  0.60120000  0.36642000  1.0 0.1023941246
H  H50  1  0.52089000  0.73891000  0.60682000  1.0 0.1284313081
H  H51  1  0.26680000  0.93924000  0.55684000  1.0 0.1023941246
H  H52  1  0.22614000  0.93924000  0.47190000  1.0 0.1023941246
H  H53  1  0.19412000  0.06077000  0.54865000  1.0 0.1023941246
H  H54  1  0.23478000  0.06076000  0.63358000  1.0 0.1023941246
H  H55  1  0.13209000  0.91407000  0.39318000  1.0 0.1284313081
H  H56  1  0.61760000  0.06076000  0.32756000  1.0 0.1023941246
H  H57  1  0.53266000  0.06076000  0.28690000  1.0 0.1023941246
H  H58  1  0.48788000  0.93923000  0.13335000  1.0 0.1023941246
H  H59  1  0.57282000  0.93924000  0.17402000  1.0 0.1023941246
H  H60  1  0.47911000  0.08593000  0.21802000  1.0 0.1284313081
H  H61  1  0.61760000  0.55684000  0.29004000  1.0 0.1023941246
H  H62  1  0.53266000  0.47190000  0.24576000  1.0 0.1023941246
H  H63  1  0.48788000  0.54865000  0.35453000  1.0 0.1023941246
H  H64  1  0.57282000  0.63358000  0.39880000  1.0 0.1023941246
H  H65  1  0.47911000  0.39318000  0.26109000  1.0 0.1284313081
H  H66  1  0.26680000  0.32756000  0.70996000  1.0 0.1023941246
H  H67  1  0.22614000  0.28690000  0.75424000  1.0 0.1023941246
H  H68  1  0.19412000  0.13335000  0.64547000  1.0 0.1023941246
H  H69  1  0.23478000  0.17402000  0.60120000  1.0 0.1023941246
H  H70  1  0.13209000  0.21802000  0.73891000  1.0 0.1284313081
H  H71  1  0.38240000  0.67244000  0.93924000  1.0 0.1023941246
H  H72  1  0.46734000  0.71310000  0.93924000  1.0 0.1023941246
H  H73  1  0.51212000  0.86665000  0.06077000  1.0 0.1023941246
H  H74  1  0.42718000  0.82598000  0.06076000  1.0 0.1023941246
H  H75  1  0.52089000  0.78198000  0.91407000  1.0 0.1284313081
H  H76  1  0.73320000  0.44316000  0.06076000  1.0 0.1023941246
H  H77  1  0.77386000  0.52810000  0.06076000  1.0 0.1023941246
H  H78  1  0.80588000  0.45135000  0.93923000  1.0 0.1023941246
H  H79  1  0.76522000  0.36642000  0.93924000  1.0 0.1023941246
H  H80  1  0.86791000  0.60682000  0.08593000  1.0 0.1284313081
H  H81  1  0.44316000  0.06076000  0.73320000  1.0 0.1023941246
H  H82  1  0.52810000  0.06076000  0.77386000  1.0 0.1023941246
H  H83  1  0.45135000  0.93923000  0.80588000  1.0 0.1023941246
H  H84  1  0.36642000  0.93924000  0.76522000  1.0 0.1023941246
H  H85  1  0.60682000  0.08593000  0.86791000  1.0 0.1284313081
H  H86  1  0.67244000  0.93924000  0.38240000  1.0 0.1023941246
H  H87  1  0.71310000  0.93924000  0.46734000  1.0 0.1023941246
H  H88  1  0.86665000  0.06077000  0.51212000  1.0 0.1023941246
H  H89  1  0.82598000  0.06076000  0.42718000  1.0 0.1023941246
H  H90  1  0.78198000  0.91407000  0.52089000  1.0 0.1284313081
H  H91  1  0.32756000  0.70996000  0.26680000  1.0 0.1023941246
H  H92  1  0.28690000  0.75424000  0.22614000  1.0 0.1023941246
H  H93  1  0.13335000  0.64547000  0.19412000  1.0 0.1023941246
H  H94  1  0.17402000  0.60120000  0.23478000  1.0 0.1023941246
H  H95  1  0.21802000  0.73891000  0.13209000  1.0 0.1284313081
H  H96  1  0.55684000  0.29004000  0.61760000  1.0 0.1023941246
H  H97  1  0.47190000  0.24576000  0.53266000  1.0 0.1023941246
H  H98  1  0.54865000  0.35453000  0.48788000  1.0 0.1023941246
H  H99  1  0.63358000  0.39880000  0.57282000  1.0 0.1023941246
H  H100  1  0.39318000  0.26109000  0.47911000  1.0 0.1284313081
H  H101  1  0.93924000  0.38240000  0.67244000  1.0 0.1023941246
H  H102  1  0.93924000  0.46734000  0.71310000  1.0 0.1023941246
H  H103  1  0.06077000  0.51212000  0.86665000  1.0 0.1023941246
H  H104  1  0.06076000  0.42718000  0.82598000  1.0 0.1023941246
H  H105  1  0.91407000  0.52089000  0.78198000  1.0 0.1284313081
H  H106  1  0.06076000  0.73320000  0.44316000  1.0 0.1023941246
H  H107  1  0.06076000  0.77386000  0.52810000  1.0 0.1023941246
H  H108  1  0.93923000  0.80588000  0.45135000  1.0 0.1023941246
H  H109  1  0.93924000  0.76522000  0.36642000  1.0 0.1023941246
H  H110  1  0.08593000  0.86791000  0.60682000  1.0 0.1284313081
H  H111  1  0.29004000  0.61760000  0.55684000  1.0 0.1023941246
H  H112  1  0.24576000  0.53266000  0.47190000  1.0 0.1023941246
H  H113  1  0.35453000  0.48788000  0.54865000  1.0 0.1023941246
H  H114  1  0.39880000  0.57282000  0.63358000  1.0 0.1023941246
H  H115  1  0.26109000  0.47911000  0.39318000  1.0 0.1284313081
H  H116  1  0.70996000  0.26680000  0.32756000  1.0 0.1023941246
H  H117  1  0.75424000  0.22614000  0.28690000  1.0 0.1023941246
H  H118  1  0.64547000  0.19412000  0.13335000  1.0 0.1023941246
H  H119  1  0.60120000  0.23478000  0.17402000  1.0 0.1023941246
H  H120  1  0.73891000  0.13209000  0.21802000  1.0 0.1284313081
H  H121  1  0.32756000  0.26680000  0.70996000  1.0 0.1023941246
H  H122  1  0.28690000  0.22614000  0.75424000  1.0 0.1023941246
H  H123  1  0.13335000  0.19412000  0.64547000  1.0 0.1023941246
H  H124  1  0.17402000  0.23478000  0.60120000  1.0 0.1023941246
H  H125  1  0.21802000  0.13209000  0.73891000  1.0 0.1284313081
H  H126  1  0.55684000  0.61760000  0.29004000  1.0 0.1023941246
H  H127  1  0.47190000  0.53266000  0.24576000  1.0 0.1023941246
H  H128  1  0.54865000  0.48788000  0.35453000  1.0 0.1023941246
H  H129  1  0.63358000  0.57282000  0.39880000  1.0 0.1023941246
H  H130  1  0.39318000  0.47911000  0.26109000  1.0 0.1284313081
H  H131  1  0.44316000  0.73320000  0.06076000  1.0 0.1023941246
H  H132  1  0.52810000  0.77386000  0.06076000  1.0 0.1023941246
H  H133  1  0.45135000  0.80588000  0.93923000  1.0 0.1023941246
H  H134  1  0.36642000  0.76522000  0.93924000  1.0 0.1023941246
H  H135  1  0.60682000  0.86791000  0.08593000  1.0 0.1284313081
H  H136  1  0.67244000  0.38240000  0.93924000  1.0 0.1023941246
H  H137  1  0.71310000  0.46734000  0.93924000  1.0 0.1023941246
H  H138  1  0.86665000  0.51212000  0.06077000  1.0 0.1023941246
H  H139  1  0.82598000  0.42718000  0.06076000  1.0 0.1023941246
H  H140  1  0.78198000  0.52089000  0.91407000  1.0 0.1284313081
H  H141  1  0.70996000  0.32756000  0.26680000  1.0 0.1023941246
H  H142  1  0.75424000  0.28690000  0.22614000  1.0 0.1023941246
H  H143  1  0.64547000  0.13335000  0.19412000  1.0 0.1023941246
H  H144  1  0.60120000  0.17402000  0.23478000  1.0 0.1023941246
H  H145  1  0.73891000  0.21802000  0.13209000  1.0 0.1284313081
H  H146  1  0.29004000  0.55684000  0.61760000  1.0 0.1023941246
H  H147  1  0.24576000  0.47190000  0.53266000  1.0 0.1023941246
H  H148  1  0.35453000  0.54865000  0.48788000  1.0 0.1023941246
H  H149  1  0.39880000  0.63358000  0.57282000  1.0 0.1023941246
H  H150  1  0.26109000  0.39318000  0.47911000  1.0 0.1284313081
H  H151  1  0.06076000  0.44316000  0.73320000  1.0 0.1023941246
H  H152  1  0.06076000  0.52810000  0.77386000  1.0 0.1023941246
H  H153  1  0.93923000  0.45135000  0.80588000  1.0 0.1023941246
H  H154  1  0.93924000  0.36642000  0.76522000  1.0 0.1023941246
H  H155  1  0.08593000  0.60682000  0.86791000  1.0 0.1284313081
H  H156  1  0.93924000  0.67244000  0.38240000  1.0 0.1023941246
H  H157  1  0.93924000  0.71310000  0.46734000  1.0 0.1023941246
H  H158  1  0.06077000  0.86665000  0.51212000  1.0 0.1023941246
H  H159  1  0.06076000  0.82598000  0.42718000  1.0 0.1023941246
H  H160  1  0.91407000  0.78198000  0.52089000  1.0 0.1284313081
H  H161  1  0.26680000  0.70996000  0.32756000  1.0 0.1023941246
H  H162  1  0.22614000  0.75424000  0.28690000  1.0 0.1023941246
H  H163  1  0.19412000  0.64547000  0.13335000  1.0 0.1023941246
H  H164  1  0.23478000  0.60120000  0.17402000  1.0 0.1023941246
H  H165  1  0.13209000  0.73891000  0.21802000  1.0 0.1284313081
H  H166  1  0.61760000  0.29004000  0.55684000  1.0 0.1023941246
H  H167  1  0.53266000  0.24576000  0.47190000  1.0 0.1023941246
H  H168  1  0.48788000  0.35453000  0.54865000  1.0 0.1023941246
H  H169  1  0.57282000  0.39880000  0.63358000  1.0 0.1023941246
H  H170  1  0.47911000  0.26109000  0.39318000  1.0 0.1284313081
H  H171  1  0.73320000  0.06076000  0.44316000  1.0 0.1023941246
H  H172  1  0.77386000  0.06076000  0.52810000  1.0 0.1023941246
H  H173  1  0.80588000  0.93923000  0.45135000  1.0 0.1023941246
H  H174  1  0.76522000  0.93924000  0.36642000  1.0 0.1023941246
H  H175  1  0.86791000  0.08593000  0.60682000  1.0 0.1284313081
H  H176  1  0.38240000  0.93924000  0.67244000  1.0 0.1023941246
H  H177  1  0.46734000  0.93924000  0.71310000  1.0 0.1023941246
H  H178  1  0.51212000  0.06077000  0.86665000  1.0 0.1023941246
H  H179  1  0.42718000  0.06076000  0.82598000  1.0 0.1023941246
H  H180  1  0.52089000  0.91407000  0.78198000  1.0 0.1284313081
H  H181  1  0.38240000  0.44316000  0.70996000  1.0 0.1023941246
H  H182  1  0.46734000  0.52810000  0.75424000  1.0 0.1023941246
H  H183  1  0.51212000  0.45135000  0.64547000  1.0 0.1023941246
H  H184  1  0.42718000  0.36642000  0.60120000  1.0 0.1023941246
H  H185  1  0.52089000  0.60682000  0.73891000  1.0 0.1284313081
H  H186  1  0.73320000  0.67244000  0.29004000  1.0 0.1023941246
H  H187  1  0.77386000  0.71310000  0.24576000  1.0 0.1023941246
H  H188  1  0.80588000  0.86665000  0.35453000  1.0 0.1023941246
H  H189  1  0.76522000  0.82598000  0.39880000  1.0 0.1023941246
H  H190  1  0.86791000  0.78198000  0.26109000  1.0 0.1284313081
H  H191  1  0.61760000  0.32756000  0.06076000  1.0 0.1023941246
H  H192  1  0.53266000  0.28690000  0.06076000  1.0 0.1023941246
H  H193  1  0.48788000  0.13335000  0.93923000  1.0 0.1023941246
H  H194  1  0.57282000  0.17402000  0.93924000  1.0 0.1023941246
H  H195  1  0.47911000  0.21802000  0.08593000  1.0 0.1284313081
H  H196  1  0.26680000  0.55684000  0.93924000  1.0 0.1023941246
H  H197  1  0.22614000  0.47190000  0.93924000  1.0 0.1023941246
H  H198  1  0.19412000  0.54865000  0.06077000  1.0 0.1023941246
H  H199  1  0.23478000  0.63358000  0.06076000  1.0 0.1023941246
H  H200  1  0.13209000  0.39318000  0.91407000  1.0 0.1284313081
H  H201  1  0.55684000  0.93924000  0.26680000  1.0 0.1023941246
H  H202  1  0.47190000  0.93924000  0.22614000  1.0 0.1023941246
H  H203  1  0.54865000  0.06077000  0.19412000  1.0 0.1023941246
H  H204  1  0.63358000  0.06076000  0.23478000  1.0 0.1023941246
H  H205  1  0.39318000  0.91407000  0.13209000  1.0 0.1284313081
H  H206  1  0.32756000  0.06076000  0.61760000  1.0 0.1023941246
H  H207  1  0.28690000  0.06076000  0.53266000  1.0 0.1023941246
H  H208  1  0.13335000  0.93923000  0.48788000  1.0 0.1023941246
H  H209  1  0.17402000  0.93924000  0.57282000  1.0 0.1023941246
H  H210  1  0.21802000  0.08593000  0.47911000  1.0 0.1284313081
H  H211  1  0.67244000  0.29004000  0.73320000  1.0 0.1023941246
H  H212  1  0.71310000  0.24576000  0.77386000  1.0 0.1023941246
H  H213  1  0.86665000  0.35453000  0.80588000  1.0 0.1023941246
H  H214  1  0.82598000  0.39880000  0.76522000  1.0 0.1023941246
H  H215  1  0.78198000  0.26109000  0.86791000  1.0 0.1284313081
H  H216  1  0.44316000  0.70996000  0.38240000  1.0 0.1023941246
H  H217  1  0.52810000  0.75424000  0.46734000  1.0 0.1023941246
H  H218  1  0.45135000  0.64547000  0.51212000  1.0 0.1023941246
H  H219  1  0.36642000  0.60120000  0.42718000  1.0 0.1023941246
H  H220  1  0.60682000  0.73891000  0.52089000  1.0 0.1284313081
H  H221  1  0.06076000  0.61760000  0.32756000  1.0 0.1023941246
H  H222  1  0.06076000  0.53266000  0.28690000  1.0 0.1023941246
H  H223  1  0.93923000  0.48788000  0.13335000  1.0 0.1023941246
H  H224  1  0.93924000  0.57282000  0.17402000  1.0 0.1023941246
H  H225  1  0.08593000  0.47911000  0.21802000  1.0 0.1284313081
H  H226  1  0.93924000  0.26680000  0.55684000  1.0 0.1023941246
H  H227  1  0.93924000  0.22614000  0.47190000  1.0 0.1023941246
H  H228  1  0.06077000  0.19412000  0.54865000  1.0 0.1023941246
H  H229  1  0.06076000  0.23478000  0.63358000  1.0 0.1023941246
H  H230  1  0.91407000  0.13209000  0.39318000  1.0 0.1284313081
H  H231  1  0.70996000  0.38240000  0.44316000  1.0 0.1023941246
H  H232  1  0.75424000  0.46734000  0.52810000  1.0 0.1023941246
H  H233  1  0.64547000  0.51212000  0.45135000  1.0 0.1023941246
H  H234  1  0.60120000  0.42718000  0.36642000  1.0 0.1023941246
H  H235  1  0.73891000  0.52089000  0.60682000  1.0 0.1284313081
H  H236  1  0.29004000  0.73320000  0.67244000  1.0 0.1023941246
H  H237  1  0.24576000  0.77386000  0.71310000  1.0 0.1023941246
H  H238  1  0.35453000  0.80588000  0.86665000  1.0 0.1023941246
H  H239  1  0.39880000  0.76522000  0.82598000  1.0 0.1023941246
H  H240  1  0.26109000  0.86791000  0.78198000  1.0 0.1284313081
H  H241  1  0.65176000  0.65176000  0.30352000  1.0 0.1175047225
H  H242  1  0.34824000  0.34824000  0.69648000  1.0 0.1175047225
H  H243  1  0.65176000  0.34824000  0.00000000  1.0 0.1175047225
H  H244  1  0.34824000  0.65176000  0.00000000  1.0 0.1175047225
H  H245  1  0.30352000  0.65176000  0.65176000  1.0 0.1175047225
H  H246  1  0.69648000  0.34824000  0.34824000  1.0 0.1175047225
H  H247  1  0.00000000  0.65176000  0.34824000  1.0 0.1175047225
H  H248  1  0.00000000  0.34824000  0.65176000  1.0 0.1175047225
H  H249  1  0.65176000  0.30352000  0.65176000  1.0 0.1175047225
H  H250  1  0.34824000  0.69648000  0.34824000  1.0 0.1175047225
H  H251  1  0.34824000  0.00000000  0.65176000  1.0 0.1175047225
H  H252  1  0.65176000  0.00000000  0.34824000  1.0 0.1175047225
H  H253  1  0.78695000  0.78695000  0.45236000  1.0 0.1175047225
H  H254  1  0.88635000  0.88635000  0.19510000  1.0 0.1398097957
H  H255  1  0.33459000  0.33459000  0.54764000  1.0 0.1175047225
H  H256  1  0.69125000  0.69125000  0.80490000  1.0 0.1398097957
H  H257  1  0.66541000  0.21305000  0.00000000  1.0 0.1175047225
H  H258  1  0.30875000  0.11365000  0.00000000  1.0 0.1398097957
H  H259  1  0.21305000  0.66541000  0.00000000  1.0 0.1175047225
H  H260  1  0.11365000  0.30875000  0.00000000  1.0 0.1398097957
H  H261  1  0.45236000  0.78695000  0.78695000  1.0 0.1175047225
H  H262  1  0.19510000  0.88635000  0.88635000  1.0 0.1398097957
H  H263  1  0.54764000  0.33459000  0.33459000  1.0 0.1175047225
H  H264  1  0.80490000  0.69125000  0.69125000  1.0 0.1398097957
H  H265  1  0.00000000  0.66541000  0.21305000  1.0 0.1175047225
H  H266  1  0.00000000  0.30875000  0.11365000  1.0 0.1398097957
H  H267  1  0.00000000  0.21305000  0.66541000  1.0 0.1175047225
H  H268  1  0.00000000  0.11365000  0.30875000  1.0 0.1398097957
H  H269  1  0.78695000  0.45236000  0.78695000  1.0 0.1175047225
H  H270  1  0.88635000  0.19510000  0.88635000  1.0 0.1398097957
H  H271  1  0.33459000  0.54764000  0.33459000  1.0 0.1175047225
H  H272  1  0.69125000  0.80490000  0.69125000  1.0 0.1398097957
H  H273  1  0.21305000  0.00000000  0.66541000  1.0 0.1175047225
H  H274  1  0.11365000  0.00000000  0.30875000  1.0 0.1398097957
H  H275  1  0.66541000  0.00000000  0.21305000  1.0 0.1175047225
H  H276  1  0.30875000  0.00000000  0.11365000  1.0 0.1398097957
H  H277  1  0.66541000  0.66541000  0.45236000  1.0 0.1175047225
H  H278  1  0.30875000  0.30875000  0.19510000  1.0 0.1398097957
H  H279  1  0.21305000  0.21305000  0.54764000  1.0 0.1175047225
H  H280  1  0.11365000  0.11365000  0.80490000  1.0 0.1398097957
H  H281  1  0.33459000  0.78695000  0.00000000  1.0 0.1175047225
H  H282  1  0.69125000  0.88635000  0.00000000  1.0 0.1398097957
H  H283  1  0.78695000  0.33459000  0.00000000  1.0 0.1175047225
H  H284  1  0.88635000  0.69125000  0.00000000  1.0 0.1398097957
H  H285  1  0.33459000  0.00000000  0.78695000  1.0 0.1175047225
H  H286  1  0.69125000  0.00000000  0.88635000  1.0 0.1398097957
H  H287  1  0.78695000  0.00000000  0.33459000  1.0 0.1175047225
H  H288  1  0.88635000  0.00000000  0.69125000  1.0 0.1398097957
H  H289  1  0.21305000  0.54764000  0.21305000  1.0 0.1175047225
H  H290  1  0.11365000  0.80490000  0.11365000  1.0 0.1398097957
H  H291  1  0.66541000  0.45236000  0.66541000  1.0 0.1175047225
H  H292  1  0.30875000  0.19510000  0.30875000  1.0 0.1398097957
H  H293  1  0.00000000  0.33459000  0.78695000  1.0 0.1175047225
H  H294  1  0.00000000  0.69125000  0.88635000  1.0 0.1398097957
H  H295  1  0.00000000  0.78695000  0.33459000  1.0 0.1175047225
H  H296  1  0.00000000  0.88635000  0.69125000  1.0 0.1398097957
H  H297  1  0.45236000  0.66541000  0.66541000  1.0 0.1175047225
H  H298  1  0.19510000  0.30875000  0.30875000  1.0 0.1398097957
H  H299  1  0.54764000  0.21305000  0.21305000  1.0 0.1175047225
H  H300  1  0.80490000  0.11365000  0.11365000  1.0 0.1398097957
C  C1  1  0.71174000  0.74794000  0.30308000  1.0 -0.0898427317
C  C2  1  0.73595000  0.77215000  0.27670000  1.0 -0.0898427317
C  C3  1  0.82735000  0.79114000  0.34149000  1.0 -0.0994826176
C  C4  1  0.80313000  0.76693000  0.36786000  1.0 -0.0994826176
C  C5  1  0.80776000  0.85895000  0.25231000  1.0 -0.1483657118
C  C6  1  0.83197000  0.88317000  0.22594000  1.0 -0.0668032538
C  C7  1  0.81816000  0.92101000  0.21237000  1.0 0.56272516
C  C8  1  0.44486000  0.40866000  0.69692000  1.0 -0.0898427317
C  C9  1  0.49545000  0.45925000  0.72330000  1.0 -0.0898427317
C  C10  1  0.44965000  0.48586000  0.65851000  1.0 -0.0994826176
C  C11  1  0.39907000  0.43527000  0.63214000  1.0 -0.0994826176
C  C12  1  0.60664000  0.55545000  0.74769000  1.0 -0.1483657118
C  C13  1  0.65723000  0.60603000  0.77406000  1.0 -0.0668032538
C  C14  1  0.70864000  0.60579000  0.78763000  1.0 0.56272516
C  C15  1  0.55514000  0.25206000  0.96380000  1.0 -0.0898427317
C  C16  1  0.50455000  0.22785000  0.96380000  1.0 -0.0898427317
C  C17  1  0.55035000  0.20886000  0.03621000  1.0 -0.0994826176
C  C18  1  0.60093000  0.23307000  0.03620000  1.0 -0.0994826176
C  C19  1  0.39336000  0.14105000  0.94881000  1.0 -0.1483657118
C  C20  1  0.34277000  0.11683000  0.94880000  1.0 -0.0668032538
C  C21  1  0.29136000  0.07899000  0.89715000  1.0 0.56272516
C  C22  1  0.28826000  0.59134000  0.03620000  1.0 -0.0898427317
C  C23  1  0.26405000  0.54075000  0.03620000  1.0 -0.0898427317
C  C24  1  0.17265000  0.51414000  0.96379000  1.0 -0.0994826176
C  C25  1  0.19687000  0.56473000  0.96380000  1.0 -0.0994826176
C  C26  1  0.19224000  0.44455000  0.05119000  1.0 -0.1483657118
C  C27  1  0.16803000  0.39397000  0.05120000  1.0 -0.0668032538
C  C28  1  0.18184000  0.39421000  0.10285000  1.0 0.56272516
C  C29  1  0.30308000  0.71174000  0.74794000  1.0 -0.0898427317
C  C30  1  0.27670000  0.73595000  0.77215000  1.0 -0.0898427317
C  C31  1  0.34149000  0.82735000  0.79114000  1.0 -0.0994826176
C  C32  1  0.36786000  0.80313000  0.76693000  1.0 -0.0994826176
C  C33  1  0.25231000  0.80776000  0.85895000  1.0 -0.1483657118
C  C34  1  0.22594000  0.83197000  0.88317000  1.0 -0.0668032538
C  C35  1  0.21237000  0.81816000  0.92101000  1.0 0.56272516
C  C36  1  0.69692000  0.44486000  0.40866000  1.0 -0.0898427317
C  C37  1  0.72330000  0.49545000  0.45925000  1.0 -0.0898427317
C  C38  1  0.65851000  0.44965000  0.48586000  1.0 -0.0994826176
C  C39  1  0.63214000  0.39907000  0.43527000  1.0 -0.0994826176
C  C40  1  0.74769000  0.60664000  0.55545000  1.0 -0.1483657118
C  C41  1  0.77406000  0.65723000  0.60603000  1.0 -0.0668032538
C  C42  1  0.78763000  0.70864000  0.60579000  1.0 0.56272516
C  C43  1  0.96380000  0.55514000  0.25206000  1.0 -0.0898427317
C  C44  1  0.96380000  0.50455000  0.22785000  1.0 -0.0898427317
C  C45  1  0.03621000  0.55035000  0.20886000  1.0 -0.0994826176
C  C46  1  0.03620000  0.60093000  0.23307000  1.0 -0.0994826176
C  C47  1  0.94881000  0.39336000  0.14105000  1.0 -0.1483657118
C  C48  1  0.94880000  0.34277000  0.11683000  1.0 -0.0668032538
C  C49  1  0.89715000  0.29136000  0.07899000  1.0 0.56272516
C  C50  1  0.03620000  0.28826000  0.59134000  1.0 -0.0898427317
C  C51  1  0.03620000  0.26405000  0.54075000  1.0 -0.0898427317
C  C52  1  0.96379000  0.17265000  0.51414000  1.0 -0.0994826176
C  C53  1  0.96380000  0.19687000  0.56473000  1.0 -0.0994826176
C  C54  1  0.05119000  0.19224000  0.44455000  1.0 -0.1483657118
C  C55  1  0.05120000  0.16803000  0.39397000  1.0 -0.0668032538
C  C56  1  0.10285000  0.18184000  0.39421000  1.0 0.56272516
C  C57  1  0.74794000  0.30308000  0.71174000  1.0 -0.0898427317
C  C58  1  0.77215000  0.27670000  0.73595000  1.0 -0.0898427317
C  C59  1  0.79114000  0.34149000  0.82735000  1.0 -0.0994826176
C  C60  1  0.76693000  0.36786000  0.80313000  1.0 -0.0994826176
C  C61  1  0.85895000  0.25231000  0.80776000  1.0 -0.1483657118
C  C62  1  0.88317000  0.22594000  0.83197000  1.0 -0.0668032538
C  C63  1  0.92101000  0.21237000  0.81816000  1.0 0.56272516
C  C64  1  0.40866000  0.69692000  0.44486000  1.0 -0.0898427317
C  C65  1  0.45925000  0.72330000  0.49545000  1.0 -0.0898427317
C  C66  1  0.48586000  0.65851000  0.44965000  1.0 -0.0994826176
C  C67  1  0.43527000  0.63214000  0.39907000  1.0 -0.0994826176
C  C68  1  0.55545000  0.74769000  0.60664000  1.0 -0.1483657118
C  C69  1  0.60603000  0.77406000  0.65723000  1.0 -0.0668032538
C  C70  1  0.60579000  0.78763000  0.70864000  1.0 0.56272516
C  C71  1  0.25206000  0.96380000  0.55514000  1.0 -0.0898427317
C  C72  1  0.22785000  0.96380000  0.50455000  1.0 -0.0898427317
C  C73  1  0.20886000  0.03621000  0.55035000  1.0 -0.0994826176
C  C74  1  0.23307000  0.03620000  0.60093000  1.0 -0.0994826176
C  C75  1  0.14105000  0.94881000  0.39336000  1.0 -0.1483657118
C  C76  1  0.11683000  0.94880000  0.34277000  1.0 -0.0668032538
C  C77  1  0.07899000  0.89715000  0.29136000  1.0 0.56272516
C  C78  1  0.59134000  0.03620000  0.28826000  1.0 -0.0898427317
C  C79  1  0.54075000  0.03620000  0.26405000  1.0 -0.0898427317
C  C80  1  0.51414000  0.96379000  0.17265000  1.0 -0.0994826176
C  C81  1  0.56473000  0.96380000  0.19687000  1.0 -0.0994826176
C  C82  1  0.44455000  0.05119000  0.19224000  1.0 -0.1483657118
C  C83  1  0.39397000  0.05120000  0.16803000  1.0 -0.0668032538
C  C84  1  0.39421000  0.10285000  0.18184000  1.0 0.56272516
C  C85  1  0.59134000  0.55514000  0.30308000  1.0 -0.0898427317
C  C86  1  0.54075000  0.50455000  0.27670000  1.0 -0.0898427317
C  C87  1  0.51414000  0.55035000  0.34149000  1.0 -0.0994826176
C  C88  1  0.56473000  0.60093000  0.36786000  1.0 -0.0994826176
C  C89  1  0.44455000  0.39336000  0.25231000  1.0 -0.1483657118
C  C90  1  0.39397000  0.34277000  0.22594000  1.0 -0.0668032538
C  C91  1  0.39421000  0.29136000  0.21237000  1.0 0.56272516
C  C92  1  0.25206000  0.28826000  0.69692000  1.0 -0.0898427317
C  C93  1  0.22785000  0.26405000  0.72330000  1.0 -0.0898427317
C  C94  1  0.20886000  0.17265000  0.65851000  1.0 -0.0994826176
C  C95  1  0.23307000  0.19687000  0.63214000  1.0 -0.0994826176
C  C96  1  0.14105000  0.19224000  0.74769000  1.0 -0.1483657118
C  C97  1  0.11683000  0.16803000  0.77406000  1.0 -0.0668032538
C  C98  1  0.07899000  0.18184000  0.78763000  1.0 0.56272516
C  C99  1  0.40866000  0.71174000  0.96380000  1.0 -0.0898427317
C  C100  1  0.45925000  0.73595000  0.96380000  1.0 -0.0898427317
C  C101  1  0.48586000  0.82735000  0.03621000  1.0 -0.0994826176
C  C102  1  0.43527000  0.80313000  0.03620000  1.0 -0.0994826176
C  C103  1  0.55545000  0.80776000  0.94881000  1.0 -0.1483657118
C  C104  1  0.60603000  0.83197000  0.94880000  1.0 -0.0668032538
C  C105  1  0.60579000  0.81816000  0.89715000  1.0 0.56272516
C  C106  1  0.74794000  0.44486000  0.03620000  1.0 -0.0898427317
C  C107  1  0.77215000  0.49545000  0.03620000  1.0 -0.0898427317
C  C108  1  0.79114000  0.44965000  0.96379000  1.0 -0.0994826176
C  C109  1  0.76693000  0.39907000  0.96380000  1.0 -0.0994826176
C  C110  1  0.85895000  0.60664000  0.05119000  1.0 -0.1483657118
C  C111  1  0.88317000  0.65723000  0.05120000  1.0 -0.0668032538
C  C112  1  0.92101000  0.70864000  0.10285000  1.0 0.56272516
C  C113  1  0.44486000  0.03620000  0.74794000  1.0 -0.0898427317
C  C114  1  0.49545000  0.03620000  0.77215000  1.0 -0.0898427317
C  C115  1  0.44965000  0.96379000  0.79114000  1.0 -0.0994826176
C  C116  1  0.39907000  0.96380000  0.76693000  1.0 -0.0994826176
C  C117  1  0.60664000  0.05119000  0.85895000  1.0 -0.1483657118
C  C118  1  0.65723000  0.05120000  0.88317000  1.0 -0.0668032538
C  C119  1  0.70864000  0.10285000  0.92101000  1.0 0.56272516
C  C120  1  0.71174000  0.96380000  0.40866000  1.0 -0.0898427317
C  C121  1  0.73595000  0.96380000  0.45925000  1.0 -0.0898427317
C  C122  1  0.82735000  0.03621000  0.48586000  1.0 -0.0994826176
C  C123  1  0.80313000  0.03620000  0.43527000  1.0 -0.0994826176
C  C124  1  0.80776000  0.94881000  0.55545000  1.0 -0.1483657118
C  C125  1  0.83197000  0.94880000  0.60603000  1.0 -0.0668032538
C  C126  1  0.81816000  0.89715000  0.60579000  1.0 0.56272516
C  C127  1  0.28826000  0.69692000  0.25206000  1.0 -0.0898427317
C  C128  1  0.26405000  0.72330000  0.22785000  1.0 -0.0898427317
C  C129  1  0.17265000  0.65851000  0.20886000  1.0 -0.0994826176
C  C130  1  0.19687000  0.63214000  0.23307000  1.0 -0.0994826176
C  C131  1  0.19224000  0.74769000  0.14105000  1.0 -0.1483657118
C  C132  1  0.16803000  0.77406000  0.11683000  1.0 -0.0668032538
C  C133  1  0.18184000  0.78763000  0.07899000  1.0 0.56272516
C  C134  1  0.55514000  0.30308000  0.59134000  1.0 -0.0898427317
C  C135  1  0.50455000  0.27670000  0.54075000  1.0 -0.0898427317
C  C136  1  0.55035000  0.34149000  0.51414000  1.0 -0.0994826176
C  C137  1  0.60093000  0.36786000  0.56473000  1.0 -0.0994826176
C  C138  1  0.39336000  0.25231000  0.44455000  1.0 -0.1483657118
C  C139  1  0.34277000  0.22594000  0.39397000  1.0 -0.0668032538
C  C140  1  0.29136000  0.21237000  0.39421000  1.0 0.56272516
C  C141  1  0.96380000  0.40866000  0.71174000  1.0 -0.0898427317
C  C142  1  0.96380000  0.45925000  0.73595000  1.0 -0.0898427317
C  C143  1  0.03621000  0.48586000  0.82735000  1.0 -0.0994826176
C  C144  1  0.03620000  0.43527000  0.80313000  1.0 -0.0994826176
C  C145  1  0.94881000  0.55545000  0.80776000  1.0 -0.1483657118
C  C146  1  0.94880000  0.60603000  0.83197000  1.0 -0.0668032538
C  C147  1  0.89715000  0.60579000  0.81816000  1.0 0.56272516
C  C148  1  0.03620000  0.74794000  0.44486000  1.0 -0.0898427317
C  C149  1  0.03620000  0.77215000  0.49545000  1.0 -0.0898427317
C  C150  1  0.96379000  0.79114000  0.44965000  1.0 -0.0994826176
C  C151  1  0.96380000  0.76693000  0.39907000  1.0 -0.0994826176
C  C152  1  0.05119000  0.85895000  0.60664000  1.0 -0.1483657118
C  C153  1  0.05120000  0.88317000  0.65723000  1.0 -0.0668032538
C  C154  1  0.10285000  0.92101000  0.70864000  1.0 0.56272516
C  C155  1  0.30308000  0.59134000  0.55514000  1.0 -0.0898427317
C  C156  1  0.27670000  0.54075000  0.50455000  1.0 -0.0898427317
C  C157  1  0.34149000  0.51414000  0.55035000  1.0 -0.0994826176
C  C158  1  0.36786000  0.56473000  0.60093000  1.0 -0.0994826176
C  C159  1  0.25231000  0.44455000  0.39336000  1.0 -0.1483657118
C  C160  1  0.22594000  0.39397000  0.34277000  1.0 -0.0668032538
C  C161  1  0.21237000  0.39421000  0.29136000  1.0 0.56272516
C  C162  1  0.69692000  0.25206000  0.28826000  1.0 -0.0898427317
C  C163  1  0.72330000  0.22785000  0.26405000  1.0 -0.0898427317
C  C164  1  0.65851000  0.20886000  0.17265000  1.0 -0.0994826176
C  C165  1  0.63214000  0.23307000  0.19687000  1.0 -0.0994826176
C  C166  1  0.74769000  0.14105000  0.19224000  1.0 -0.1483657118
C  C167  1  0.77406000  0.11683000  0.16803000  1.0 -0.0668032538
C  C168  1  0.78763000  0.07899000  0.18184000  1.0 0.56272516
C  C169  1  0.28826000  0.25206000  0.69692000  1.0 -0.0898427317
C  C170  1  0.26405000  0.22785000  0.72330000  1.0 -0.0898427317
C  C171  1  0.17265000  0.20886000  0.65851000  1.0 -0.0994826176
C  C172  1  0.19687000  0.23307000  0.63214000  1.0 -0.0994826176
C  C173  1  0.19224000  0.14105000  0.74769000  1.0 -0.1483657118
C  C174  1  0.16803000  0.11683000  0.77406000  1.0 -0.0668032538
C  C175  1  0.18184000  0.07899000  0.78763000  1.0 0.56272516
C  C176  1  0.55514000  0.59134000  0.30308000  1.0 -0.0898427317
C  C177  1  0.50455000  0.54075000  0.27670000  1.0 -0.0898427317
C  C178  1  0.55035000  0.51414000  0.34149000  1.0 -0.0994826176
C  C179  1  0.60093000  0.56473000  0.36786000  1.0 -0.0994826176
C  C180  1  0.39336000  0.44455000  0.25231000  1.0 -0.1483657118
C  C181  1  0.34277000  0.39397000  0.22594000  1.0 -0.0668032538
C  C182  1  0.29136000  0.39421000  0.21237000  1.0 0.56272516
C  C183  1  0.44486000  0.74794000  0.03620000  1.0 -0.0898427317
C  C184  1  0.49545000  0.77215000  0.03620000  1.0 -0.0898427317
C  C185  1  0.44965000  0.79114000  0.96379000  1.0 -0.0994826176
C  C186  1  0.39907000  0.76693000  0.96380000  1.0 -0.0994826176
C  C187  1  0.60664000  0.85895000  0.05119000  1.0 -0.1483657118
C  C188  1  0.65723000  0.88317000  0.05120000  1.0 -0.0668032538
C  C189  1  0.70864000  0.92101000  0.10285000  1.0 0.56272516
C  C190  1  0.71174000  0.40866000  0.96380000  1.0 -0.0898427317
C  C191  1  0.73595000  0.45925000  0.96380000  1.0 -0.0898427317
C  C192  1  0.82735000  0.48586000  0.03621000  1.0 -0.0994826176
C  C193  1  0.80313000  0.43527000  0.03620000  1.0 -0.0994826176
C  C194  1  0.80776000  0.55545000  0.94881000  1.0 -0.1483657118
C  C195  1  0.83197000  0.60603000  0.94880000  1.0 -0.0668032538
C  C196  1  0.81816000  0.60579000  0.89715000  1.0 0.56272516
C  C197  1  0.69692000  0.28826000  0.25206000  1.0 -0.0898427317
C  C198  1  0.72330000  0.26405000  0.22785000  1.0 -0.0898427317
C  C199  1  0.65851000  0.17265000  0.20886000  1.0 -0.0994826176
C  C200  1  0.63214000  0.19687000  0.23307000  1.0 -0.0994826176
C  C201  1  0.74769000  0.19224000  0.14105000  1.0 -0.1483657118
C  C202  1  0.77406000  0.16803000  0.11683000  1.0 -0.0668032538
C  C203  1  0.78763000  0.18184000  0.07899000  1.0 0.56272516
C  C204  1  0.30308000  0.55514000  0.59134000  1.0 -0.0898427317
C  C205  1  0.27670000  0.50455000  0.54075000  1.0 -0.0898427317
C  C206  1  0.34149000  0.55035000  0.51414000  1.0 -0.0994826176
C  C207  1  0.36786000  0.60093000  0.56473000  1.0 -0.0994826176
C  C208  1  0.25231000  0.39336000  0.44455000  1.0 -0.1483657118
C  C209  1  0.22594000  0.34277000  0.39397000  1.0 -0.0668032538
C  C210  1  0.21237000  0.29136000  0.39421000  1.0 0.56272516
C  C211  1  0.03620000  0.44486000  0.74794000  1.0 -0.0898427317
C  C212  1  0.03620000  0.49545000  0.77215000  1.0 -0.0898427317
C  C213  1  0.96379000  0.44965000  0.79114000  1.0 -0.0994826176
C  C214  1  0.96380000  0.39907000  0.76693000  1.0 -0.0994826176
C  C215  1  0.05119000  0.60664000  0.85895000  1.0 -0.1483657118
C  C216  1  0.05120000  0.65723000  0.88317000  1.0 -0.0668032538
C  C217  1  0.10285000  0.70864000  0.92101000  1.0 0.56272516
C  C218  1  0.96380000  0.71174000  0.40866000  1.0 -0.0898427317
C  C219  1  0.96380000  0.73595000  0.45925000  1.0 -0.0898427317
C  C220  1  0.03621000  0.82735000  0.48586000  1.0 -0.0994826176
C  C221  1  0.03620000  0.80313000  0.43527000  1.0 -0.0994826176
C  C222  1  0.94881000  0.80776000  0.55545000  1.0 -0.1483657118
C  C223  1  0.94880000  0.83197000  0.60603000  1.0 -0.0668032538
C  C224  1  0.89715000  0.81816000  0.60579000  1.0 0.56272516
C  C225  1  0.25206000  0.69692000  0.28826000  1.0 -0.0898427317
C  C226  1  0.22785000  0.72330000  0.26405000  1.0 -0.0898427317
C  C227  1  0.20886000  0.65851000  0.17265000  1.0 -0.0994826176
C  C228  1  0.23307000  0.63214000  0.19687000  1.0 -0.0994826176
C  C229  1  0.14105000  0.74769000  0.19224000  1.0 -0.1483657118
C  C230  1  0.11683000  0.77406000  0.16803000  1.0 -0.0668032538
C  C231  1  0.07899000  0.78763000  0.18184000  1.0 0.56272516
C  C232  1  0.59134000  0.30308000  0.55514000  1.0 -0.0898427317
C  C233  1  0.54075000  0.27670000  0.50455000  1.0 -0.0898427317
C  C234  1  0.51414000  0.34149000  0.55035000  1.0 -0.0994826176
C  C235  1  0.56473000  0.36786000  0.60093000  1.0 -0.0994826176
C  C236  1  0.44455000  0.25231000  0.39336000  1.0 -0.1483657118
C  C237  1  0.39397000  0.22594000  0.34277000  1.0 -0.0668032538
C  C238  1  0.39421000  0.21237000  0.29136000  1.0 0.56272516
C  C239  1  0.74794000  0.03620000  0.44486000  1.0 -0.0898427317
C  C240  1  0.77215000  0.03620000  0.49545000  1.0 -0.0898427317
C  C241  1  0.79114000  0.96379000  0.44965000  1.0 -0.0994826176
C  C242  1  0.76693000  0.96380000  0.39907000  1.0 -0.0994826176
C  C243  1  0.85895000  0.05119000  0.60664000  1.0 -0.1483657118
C  C244  1  0.88317000  0.05120000  0.65723000  1.0 -0.0668032538
C  C245  1  0.92101000  0.10285000  0.70864000  1.0 0.56272516
C  C246  1  0.40866000  0.96380000  0.71174000  1.0 -0.0898427317
C  C247  1  0.45925000  0.96380000  0.73595000  1.0 -0.0898427317
C  C248  1  0.48586000  0.03621000  0.82735000  1.0 -0.0994826176
C  C249  1  0.43527000  0.03620000  0.80313000  1.0 -0.0994826176
C  C250  1  0.55545000  0.94881000  0.80776000  1.0 -0.1483657118
C  C251  1  0.60603000  0.94880000  0.83197000  1.0 -0.0668032538
C  C252  1  0.60579000  0.89715000  0.81816000  1.0 0.56272516
C  C253  1  0.40866000  0.44486000  0.69692000  1.0 -0.0898427317
C  C254  1  0.45925000  0.49545000  0.72330000  1.0 -0.0898427317
C  C255  1  0.48586000  0.44965000  0.65851000  1.0 -0.0994826176
C  C256  1  0.43527000  0.39907000  0.63214000  1.0 -0.0994826176
C  C257  1  0.55545000  0.60664000  0.74769000  1.0 -0.1483657118
C  C258  1  0.60603000  0.65723000  0.77406000  1.0 -0.0668032538
C  C259  1  0.60579000  0.70864000  0.78763000  1.0 0.56272516
C  C260  1  0.74794000  0.71174000  0.30308000  1.0 -0.0898427317
C  C261  1  0.77215000  0.73595000  0.27670000  1.0 -0.0898427317
C  C262  1  0.79114000  0.82735000  0.34149000  1.0 -0.0994826176
C  C263  1  0.76693000  0.80313000  0.36786000  1.0 -0.0994826176
C  C264  1  0.85895000  0.80776000  0.25231000  1.0 -0.1483657118
C  C265  1  0.88317000  0.83197000  0.22594000  1.0 -0.0668032538
C  C266  1  0.92101000  0.81816000  0.21237000  1.0 0.56272516
C  C267  1  0.59134000  0.28826000  0.03620000  1.0 -0.0898427317
C  C268  1  0.54075000  0.26405000  0.03620000  1.0 -0.0898427317
C  C269  1  0.51414000  0.17265000  0.96379000  1.0 -0.0994826176
C  C270  1  0.56473000  0.19687000  0.96380000  1.0 -0.0994826176
C  C271  1  0.44455000  0.19224000  0.05119000  1.0 -0.1483657118
C  C272  1  0.39397000  0.16803000  0.05120000  1.0 -0.0668032538
C  C273  1  0.39421000  0.18184000  0.10285000  1.0 0.56272516
C  C274  1  0.25206000  0.55514000  0.96380000  1.0 -0.0898427317
C  C275  1  0.22785000  0.50455000  0.96380000  1.0 -0.0898427317
C  C276  1  0.20886000  0.55035000  0.03621000  1.0 -0.0994826176
C  C277  1  0.23307000  0.60093000  0.03620000  1.0 -0.0994826176
C  C278  1  0.14105000  0.39336000  0.94881000  1.0 -0.1483657118
C  C279  1  0.11683000  0.34277000  0.94880000  1.0 -0.0668032538
C  C280  1  0.07899000  0.29136000  0.89715000  1.0 0.56272516
C  C281  1  0.55514000  0.96380000  0.25206000  1.0 -0.0898427317
C  C282  1  0.50455000  0.96380000  0.22785000  1.0 -0.0898427317
C  C283  1  0.55035000  0.03621000  0.20886000  1.0 -0.0994826176
C  C284  1  0.60093000  0.03620000  0.23307000  1.0 -0.0994826176
C  C285  1  0.39336000  0.94881000  0.14105000  1.0 -0.1483657118
C  C286  1  0.34277000  0.94880000  0.11683000  1.0 -0.0668032538
C  C287  1  0.29136000  0.89715000  0.07899000  1.0 0.56272516
C  C288  1  0.28826000  0.03620000  0.59134000  1.0 -0.0898427317
C  C289  1  0.26405000  0.03620000  0.54075000  1.0 -0.0898427317
C  C290  1  0.17265000  0.96379000  0.51414000  1.0 -0.0994826176
C  C291  1  0.19687000  0.96380000  0.56473000  1.0 -0.0994826176
C  C292  1  0.19224000  0.05119000  0.44455000  1.0 -0.1483657118
C  C293  1  0.16803000  0.05120000  0.39397000  1.0 -0.0668032538
C  C294  1  0.18184000  0.10285000  0.39421000  1.0 0.56272516
C  C295  1  0.71174000  0.30308000  0.74794000  1.0 -0.0898427317
C  C296  1  0.73595000  0.27670000  0.77215000  1.0 -0.0898427317
C  C297  1  0.82735000  0.34149000  0.79114000  1.0 -0.0994826176
C  C298  1  0.80313000  0.36786000  0.76693000  1.0 -0.0994826176
C  C299  1  0.80776000  0.25231000  0.85895000  1.0 -0.1483657118
C  C300  1  0.83197000  0.22594000  0.88317000  1.0 -0.0668032538
C  C301  1  0.81816000  0.21237000  0.92101000  1.0 0.56272516
C  C302  1  0.44486000  0.69692000  0.40866000  1.0 -0.0898427317
C  C303  1  0.49545000  0.72330000  0.45925000  1.0 -0.0898427317
C  C304  1  0.44965000  0.65851000  0.48586000  1.0 -0.0994826176
C  C305  1  0.39907000  0.63214000  0.43527000  1.0 -0.0994826176
C  C306  1  0.60664000  0.74769000  0.55545000  1.0 -0.1483657118
C  C307  1  0.65723000  0.77406000  0.60603000  1.0 -0.0668032538
C  C308  1  0.70864000  0.78763000  0.60579000  1.0 0.56272516
C  C309  1  0.03620000  0.59134000  0.28826000  1.0 -0.0898427317
C  C310  1  0.03620000  0.54075000  0.26405000  1.0 -0.0898427317
C  C311  1  0.96379000  0.51414000  0.17265000  1.0 -0.0994826176
C  C312  1  0.96380000  0.56473000  0.19687000  1.0 -0.0994826176
C  C313  1  0.05119000  0.44455000  0.19224000  1.0 -0.1483657118
C  C314  1  0.05120000  0.39397000  0.16803000  1.0 -0.0668032538
C  C315  1  0.10285000  0.39421000  0.18184000  1.0 0.56272516
C  C316  1  0.96380000  0.25206000  0.55514000  1.0 -0.0898427317
C  C317  1  0.96380000  0.22785000  0.50455000  1.0 -0.0898427317
C  C318  1  0.03621000  0.20886000  0.55035000  1.0 -0.0994826176
C  C319  1  0.03620000  0.23307000  0.60093000  1.0 -0.0994826176
C  C320  1  0.94881000  0.14105000  0.39336000  1.0 -0.1483657118
C  C321  1  0.94880000  0.11683000  0.34277000  1.0 -0.0668032538
C  C322  1  0.89715000  0.07899000  0.29136000  1.0 0.56272516
C  C323  1  0.69692000  0.40866000  0.44486000  1.0 -0.0898427317
C  C324  1  0.72330000  0.45925000  0.49545000  1.0 -0.0898427317
C  C325  1  0.65851000  0.48586000  0.44965000  1.0 -0.0994826176
C  C326  1  0.63214000  0.43527000  0.39907000  1.0 -0.0994826176
C  C327  1  0.74769000  0.55545000  0.60664000  1.0 -0.1483657118
C  C328  1  0.77406000  0.60603000  0.65723000  1.0 -0.0668032538
C  C329  1  0.78763000  0.60579000  0.70864000  1.0 0.56272516
C  C330  1  0.30308000  0.74794000  0.71174000  1.0 -0.0898427317
C  C331  1  0.27670000  0.77215000  0.73595000  1.0 -0.0898427317
C  C332  1  0.34149000  0.79114000  0.82735000  1.0 -0.0994826176
C  C333  1  0.36786000  0.76693000  0.80313000  1.0 -0.0994826176
C  C334  1  0.25231000  0.85895000  0.80776000  1.0 -0.1483657118
C  C335  1  0.22594000  0.88317000  0.83197000  1.0 -0.0668032538
C  C336  1  0.21237000  0.92101000  0.81816000  1.0 0.56272516
C  C337  1  0.67181000  0.67181000  0.34362000  1.0 -0.1682527105
C  C338  1  0.32819000  0.32819000  0.65638000  1.0 -0.1682527105
C  C339  1  0.67181000  0.32819000  0.00000000  1.0 -0.1682527105
C  C340  1  0.32819000  0.67181000  0.00000000  1.0 -0.1682527105
C  C341  1  0.34362000  0.67181000  0.67181000  1.0 -0.1682527105
C  C342  1  0.65638000  0.32819000  0.32819000  1.0 -0.1682527105
C  C343  1  0.00000000  0.67181000  0.32819000  1.0 -0.1682527105
C  C344  1  0.00000000  0.32819000  0.67181000  1.0 -0.1682527105
C  C345  1  0.67181000  0.34362000  0.67181000  1.0 -0.1682527105
C  C346  1  0.32819000  0.65638000  0.32819000  1.0 -0.1682527105
C  C347  1  0.32819000  0.00000000  0.67181000  1.0 -0.1682527105
C  C348  1  0.67181000  0.00000000  0.32819000  1.0 -0.1682527105
C  C349  1  0.75235000  0.75235000  0.43230000  1.0 -0.0077980906
C  C350  1  0.72279000  0.72279000  0.37318000  1.0 0.006882145
C  C351  1  0.74533000  0.74533000  0.34866000  1.0 0.058849472
C  C352  1  0.79375000  0.79375000  0.29590000  1.0 0.0526649899
C  C353  1  0.82148000  0.82148000  0.26576000  1.0 0.0713821846
C  C354  1  0.86990000  0.86990000  0.21300000  1.0 -0.063842535
C  C355  1  0.32005000  0.32005000  0.56770000  1.0 -0.0077980906
C  C356  1  0.34961000  0.34961000  0.62682000  1.0 0.006882145
C  C357  1  0.39667000  0.39667000  0.65134000  1.0 0.058849472
C  C358  1  0.49785000  0.49785000  0.70410000  1.0 0.0526649899
C  C359  1  0.55572000  0.55572000  0.73424000  1.0 0.0713821846
C  C360  1  0.65690000  0.65690000  0.78700000  1.0 -0.063842535
C  C361  1  0.67995000  0.24765000  0.00000000  1.0 -0.0077980906
C  C362  1  0.65039000  0.27721000  0.00000000  1.0 0.006882145
C  C363  1  0.60333000  0.25467000  0.00000000  1.0 0.058849472
C  C364  1  0.50215000  0.20625000  0.00000000  1.0 0.0526649899
C  C365  1  0.44428000  0.17852000  0.00000000  1.0 0.0713821846
C  C366  1  0.34310000  0.13010000  0.00000000  1.0 -0.063842535
C  C367  1  0.24765000  0.67995000  0.00000000  1.0 -0.0077980906
C  C368  1  0.27721000  0.65039000  0.00000000  1.0 0.006882145
C  C369  1  0.25467000  0.60333000  0.00000000  1.0 0.058849472
C  C370  1  0.20625000  0.50215000  0.00000000  1.0 0.0526649899
C  C371  1  0.17852000  0.44428000  0.00000000  1.0 0.0713821846
C  C372  1  0.13010000  0.34310000  0.00000000  1.0 -0.063842535
C  C373  1  0.43230000  0.75235000  0.75235000  1.0 -0.0077980906
C  C374  1  0.37318000  0.72279000  0.72279000  1.0 0.006882145
C  C375  1  0.34866000  0.74533000  0.74533000  1.0 0.058849472
C  C376  1  0.29590000  0.79375000  0.79375000  1.0 0.0526649899
C  C377  1  0.26576000  0.82148000  0.82148000  1.0 0.0713821846
C  C378  1  0.21300000  0.86990000  0.86990000  1.0 -0.063842535
C  C379  1  0.56770000  0.32005000  0.32005000  1.0 -0.0077980906
C  C380  1  0.62682000  0.34961000  0.34961000  1.0 0.006882145
C  C381  1  0.65134000  0.39667000  0.39667000  1.0 0.058849472
C  C382  1  0.70410000  0.49785000  0.49785000  1.0 0.0526649899
C  C383  1  0.73424000  0.55572000  0.55572000  1.0 0.0713821846
C  C384  1  0.78700000  0.65690000  0.65690000  1.0 -0.063842535
C  C385  1  0.00000000  0.67995000  0.24765000  1.0 -0.0077980906
C  C386  1  0.00000000  0.65039000  0.27721000  1.0 0.006882145
C  C387  1  0.00000000  0.60333000  0.25467000  1.0 0.058849472
C  C388  1  0.00000000  0.50215000  0.20625000  1.0 0.0526649899
C  C389  1  0.00000000  0.44428000  0.17852000  1.0 0.0713821846
C  C390  1  0.00000000  0.34310000  0.13010000  1.0 -0.063842535
C  C391  1  0.00000000  0.24765000  0.67995000  1.0 -0.0077980906
C  C392  1  0.00000000  0.27721000  0.65039000  1.0 0.006882145
C  C393  1  0.00000000  0.25467000  0.60333000  1.0 0.058849472
C  C394  1  0.00000000  0.20625000  0.50215000  1.0 0.0526649899
C  C395  1  0.00000000  0.17852000  0.44428000  1.0 0.0713821846
C  C396  1  0.00000000  0.13010000  0.34310000  1.0 -0.063842535
C  C397  1  0.75235000  0.43230000  0.75235000  1.0 -0.0077980906
C  C398  1  0.72279000  0.37318000  0.72279000  1.0 0.006882145
C  C399  1  0.74533000  0.34866000  0.74533000  1.0 0.058849472
C  C400  1  0.79375000  0.29590000  0.79375000  1.0 0.0526649899
C  C401  1  0.82148000  0.26576000  0.82148000  1.0 0.0713821846
C  C402  1  0.86990000  0.21300000  0.86990000  1.0 -0.063842535
C  C403  1  0.32005000  0.56770000  0.32005000  1.0 -0.0077980906
C  C404  1  0.34961000  0.62682000  0.34961000  1.0 0.006882145
C  C405  1  0.39667000  0.65134000  0.39667000  1.0 0.058849472
C  C406  1  0.49785000  0.70410000  0.49785000  1.0 0.0526649899
C  C407  1  0.55572000  0.73424000  0.55572000  1.0 0.0713821846
C  C408  1  0.65690000  0.78700000  0.65690000  1.0 -0.063842535
C  C409  1  0.24765000  0.00000000  0.67995000  1.0 -0.0077980906
C  C410  1  0.27721000  0.00000000  0.65039000  1.0 0.006882145
C  C411  1  0.25467000  0.00000000  0.60333000  1.0 0.058849472
C  C412  1  0.20625000  0.00000000  0.50215000  1.0 0.0526649899
C  C413  1  0.17852000  0.00000000  0.44428000  1.0 0.0713821846
C  C414  1  0.13010000  0.00000000  0.34310000  1.0 -0.063842535
C  C415  1  0.67995000  0.00000000  0.24765000  1.0 -0.0077980906
C  C416  1  0.65039000  0.00000000  0.27721000  1.0 0.006882145
C  C417  1  0.60333000  0.00000000  0.25467000  1.0 0.058849472
C  C418  1  0.50215000  0.00000000  0.20625000  1.0 0.0526649899
C  C419  1  0.44428000  0.00000000  0.17852000  1.0 0.0713821846
C  C420  1  0.34310000  0.00000000  0.13010000  1.0 -0.063842535
C  C421  1  0.67995000  0.67995000  0.43230000  1.0 -0.0077980906
C  C422  1  0.65039000  0.65039000  0.37318000  1.0 0.006882145
C  C423  1  0.60333000  0.60333000  0.34866000  1.0 0.058849472
C  C424  1  0.50215000  0.50215000  0.29590000  1.0 0.0526649899
C  C425  1  0.44428000  0.44428000  0.26576000  1.0 0.0713821846
C  C426  1  0.34310000  0.34310000  0.21300000  1.0 -0.063842535
C  C427  1  0.24765000  0.24765000  0.56770000  1.0 -0.0077980906
C  C428  1  0.27721000  0.27721000  0.62682000  1.0 0.006882145
C  C429  1  0.25467000  0.25467000  0.65134000  1.0 0.058849472
C  C430  1  0.20625000  0.20625000  0.70410000  1.0 0.0526649899
C  C431  1  0.17852000  0.17852000  0.73424000  1.0 0.0713821846
C  C432  1  0.13010000  0.13010000  0.78700000  1.0 -0.063842535
C  C433  1  0.32005000  0.75235000  0.00000000  1.0 -0.0077980906
C  C434  1  0.34961000  0.72279000  0.00000000  1.0 0.006882145
C  C435  1  0.39667000  0.74533000  0.00000000  1.0 0.058849472
C  C436  1  0.49785000  0.79375000  0.00000000  1.0 0.0526649899
C  C437  1  0.55572000  0.82148000  0.00000000  1.0 0.0713821846
C  C438  1  0.65690000  0.86990000  0.00000000  1.0 -0.063842535
C  C439  1  0.75235000  0.32005000  0.00000000  1.0 -0.0077980906
C  C440  1  0.72279000  0.34961000  0.00000000  1.0 0.006882145
C  C441  1  0.74533000  0.39667000  0.00000000  1.0 0.058849472
C  C442  1  0.79375000  0.49785000  0.00000000  1.0 0.0526649899
C  C443  1  0.82148000  0.55572000  0.00000000  1.0 0.0713821846
C  C444  1  0.86990000  0.65690000  0.00000000  1.0 -0.063842535
C  C445  1  0.32005000  0.00000000  0.75235000  1.0 -0.0077980906
C  C446  1  0.34961000  0.00000000  0.72279000  1.0 0.006882145
C  C447  1  0.39667000  0.00000000  0.74533000  1.0 0.058849472
C  C448  1  0.49785000  0.00000000  0.79375000  1.0 0.0526649899
C  C449  1  0.55572000  0.00000000  0.82148000  1.0 0.0713821846
C  C450  1  0.65690000  0.00000000  0.86990000  1.0 -0.063842535
C  C451  1  0.75235000  0.00000000  0.32005000  1.0 -0.0077980906
C  C452  1  0.72279000  0.00000000  0.34961000  1.0 0.006882145
C  C453  1  0.74533000  0.00000000  0.39667000  1.0 0.058849472
C  C454  1  0.79375000  0.00000000  0.49785000  1.0 0.0526649899
C  C455  1  0.82148000  0.00000000  0.55572000  1.0 0.0713821846
C  C456  1  0.86990000  0.00000000  0.65690000  1.0 -0.063842535
C  C457  1  0.24765000  0.56770000  0.24765000  1.0 -0.0077980906
C  C458  1  0.27721000  0.62682000  0.27721000  1.0 0.006882145
C  C459  1  0.25467000  0.65134000  0.25467000  1.0 0.058849472
C  C460  1  0.20625000  0.70410000  0.20625000  1.0 0.0526649899
C  C461  1  0.17852000  0.73424000  0.17852000  1.0 0.0713821846
C  C462  1  0.13010000  0.78700000  0.13010000  1.0 -0.063842535
C  C463  1  0.67995000  0.43230000  0.67995000  1.0 -0.0077980906
C  C464  1  0.65039000  0.37318000  0.65039000  1.0 0.006882145
C  C465  1  0.60333000  0.34866000  0.60333000  1.0 0.058849472
C  C466  1  0.50215000  0.29590000  0.50215000  1.0 0.0526649899
C  C467  1  0.44428000  0.26576000  0.44428000  1.0 0.0713821846
C  C468  1  0.34310000  0.21300000  0.34310000  1.0 -0.063842535
C  C469  1  0.00000000  0.32005000  0.75235000  1.0 -0.0077980906
C  C470  1  0.00000000  0.34961000  0.72279000  1.0 0.006882145
C  C471  1  0.00000000  0.39667000  0.74533000  1.0 0.058849472
C  C472  1  0.00000000  0.49785000  0.79375000  1.0 0.0526649899
C  C473  1  0.00000000  0.55572000  0.82148000  1.0 0.0713821846
C  C474  1  0.00000000  0.65690000  0.86990000  1.0 -0.063842535
C  C475  1  0.00000000  0.75235000  0.32005000  1.0 -0.0077980906
C  C476  1  0.00000000  0.72279000  0.34961000  1.0 0.006882145
C  C477  1  0.00000000  0.74533000  0.39667000  1.0 0.058849472
C  C478  1  0.00000000  0.79375000  0.49785000  1.0 0.0526649899
C  C479  1  0.00000000  0.82148000  0.55572000  1.0 0.0713821846
C  C480  1  0.00000000  0.86990000  0.65690000  1.0 -0.063842535
C  C481  1  0.43230000  0.67995000  0.67995000  1.0 -0.0077980906
C  C482  1  0.37318000  0.65039000  0.65039000  1.0 0.006882145
C  C483  1  0.34866000  0.60333000  0.60333000  1.0 0.058849472
C  C484  1  0.29590000  0.50215000  0.50215000  1.0 0.0526649899
C  C485  1  0.26576000  0.44428000  0.44428000  1.0 0.0713821846
C  C486  1  0.21300000  0.34310000  0.34310000  1.0 -0.063842535
C  C487  1  0.56770000  0.24765000  0.24765000  1.0 -0.0077980906
C  C488  1  0.62682000  0.27721000  0.27721000  1.0 0.006882145
C  C489  1  0.65134000  0.25467000  0.25467000  1.0 0.058849472
C  C490  1  0.70410000  0.20625000  0.20625000  1.0 0.0526649899
C  C491  1  0.73424000  0.17852000  0.17852000  1.0 0.0713821846
C  C492  1  0.78700000  0.13010000  0.13010000  1.0 -0.063842535
N  N1  1  0.73093000  0.73093000  0.46186000  1.0 -0.2417134558
N  N2  1  0.26907000  0.26907000  0.53814000  1.0 -0.2417134558
N  N3  1  0.73093000  0.26907000  0.00000000  1.0 -0.2417134558
N  N4  1  0.26907000  0.73093000  0.00000000  1.0 -0.2417134558
N  N5  1  0.46186000  0.73093000  0.73093000  1.0 -0.2417134558
N  N6  1  0.53814000  0.26907000  0.26907000  1.0 -0.2417134558
N  N7  1  0.00000000  0.73093000  0.26907000  1.0 -0.2417134558
N  N8  1  0.00000000  0.26907000  0.73093000  1.0 -0.2417134558
N  N9  1  0.73093000  0.46186000  0.73093000  1.0 -0.2417134558
N  N10  1  0.26907000  0.53814000  0.26907000  1.0 -0.2417134558
N  N11  1  0.26907000  0.00000000  0.73093000  1.0 -0.2417134558
N  N12  1  0.73093000  0.00000000  0.26907000  1.0 -0.2417134558
O  O1  1  0.83880000  0.93890000  0.18610000  1.0 -0.5164880234
O  O2  1  0.78630000  0.93360000  0.22770000  1.0 -0.5070738075
O  O3  1  0.75280000  0.65270000  0.81390000  1.0 -0.5164880234
O  O4  1  0.70590000  0.55860000  0.77230000  1.0 -0.5070738075
O  O5  1  0.24720000  0.06110000  0.89990000  1.0 -0.5164880234
O  O6  1  0.29410000  0.06640000  0.85270000  1.0 -0.5070738075
O  O7  1  0.16120000  0.34730000  0.10010000  1.0 -0.5164880234
O  O8  1  0.21370000  0.44140000  0.14730000  1.0 -0.5070738075
O  O9  1  0.18610000  0.83880000  0.93890000  1.0 -0.5164880234
O  O10  1  0.22770000  0.78630000  0.93360000  1.0 -0.5070738075
O  O11  1  0.81390000  0.75280000  0.65270000  1.0 -0.5164880234
O  O12  1  0.77230000  0.70590000  0.55860000  1.0 -0.5070738075
O  O13  1  0.89990000  0.24720000  0.06110000  1.0 -0.5164880234
O  O14  1  0.85270000  0.29410000  0.06640000  1.0 -0.5070738075
O  O15  1  0.10010000  0.16120000  0.34730000  1.0 -0.5164880234
O  O16  1  0.14730000  0.21370000  0.44140000  1.0 -0.5070738075
O  O17  1  0.93890000  0.18610000  0.83880000  1.0 -0.5164880234
O  O18  1  0.93360000  0.22770000  0.78630000  1.0 -0.5070738075
O  O19  1  0.65270000  0.81390000  0.75280000  1.0 -0.5164880234
O  O20  1  0.55860000  0.77230000  0.70590000  1.0 -0.5070738075
O  O21  1  0.06110000  0.89990000  0.24720000  1.0 -0.5164880234
O  O22  1  0.06640000  0.85270000  0.29410000  1.0 -0.5070738075
O  O23  1  0.34730000  0.10010000  0.16120000  1.0 -0.5164880234
O  O24  1  0.44140000  0.14730000  0.21370000  1.0 -0.5070738075
O  O25  1  0.34730000  0.24720000  0.18610000  1.0 -0.5164880234
O  O26  1  0.44140000  0.29410000  0.22770000  1.0 -0.5070738075
O  O27  1  0.06110000  0.16120000  0.81390000  1.0 -0.5164880234
O  O28  1  0.06640000  0.21370000  0.77230000  1.0 -0.5070738075
O  O29  1  0.65270000  0.83880000  0.89990000  1.0 -0.5164880234
O  O30  1  0.55860000  0.78630000  0.85270000  1.0 -0.5070738075
O  O31  1  0.93890000  0.75280000  0.10010000  1.0 -0.5164880234
O  O32  1  0.93360000  0.70590000  0.14730000  1.0 -0.5070738075
O  O33  1  0.75280000  0.10010000  0.93890000  1.0 -0.5164880234
O  O34  1  0.70590000  0.14730000  0.93360000  1.0 -0.5070738075
O  O35  1  0.83880000  0.89990000  0.65270000  1.0 -0.5164880234
O  O36  1  0.78630000  0.85270000  0.55860000  1.0 -0.5070738075
O  O37  1  0.16120000  0.81390000  0.06110000  1.0 -0.5164880234
O  O38  1  0.21370000  0.77230000  0.06640000  1.0 -0.5070738075
O  O39  1  0.24720000  0.18610000  0.34730000  1.0 -0.5164880234
O  O40  1  0.29410000  0.22770000  0.44140000  1.0 -0.5070738075
O  O41  1  0.89990000  0.65270000  0.83880000  1.0 -0.5164880234
O  O42  1  0.85270000  0.55860000  0.78630000  1.0 -0.5070738075
O  O43  1  0.10010000  0.93890000  0.75280000  1.0 -0.5164880234
O  O44  1  0.14730000  0.93360000  0.70590000  1.0 -0.5070738075
O  O45  1  0.18610000  0.34730000  0.24720000  1.0 -0.5164880234
O  O46  1  0.22770000  0.44140000  0.29410000  1.0 -0.5070738075
O  O47  1  0.81390000  0.06110000  0.16120000  1.0 -0.5164880234
O  O48  1  0.77230000  0.06640000  0.21370000  1.0 -0.5070738075
O  O49  1  0.16120000  0.06110000  0.81390000  1.0 -0.5164880234
O  O50  1  0.21370000  0.06640000  0.77230000  1.0 -0.5070738075
O  O51  1  0.24720000  0.34730000  0.18610000  1.0 -0.5164880234
O  O52  1  0.29410000  0.44140000  0.22770000  1.0 -0.5070738075
O  O53  1  0.75280000  0.93890000  0.10010000  1.0 -0.5164880234
O  O54  1  0.70590000  0.93360000  0.14730000  1.0 -0.5070738075
O  O55  1  0.83880000  0.65270000  0.89990000  1.0 -0.5164880234
O  O56  1  0.78630000  0.55860000  0.85270000  1.0 -0.5070738075
O  O57  1  0.81390000  0.16120000  0.06110000  1.0 -0.5164880234
O  O58  1  0.77230000  0.21370000  0.06640000  1.0 -0.5070738075
O  O59  1  0.18610000  0.24720000  0.34730000  1.0 -0.5164880234
O  O60  1  0.22770000  0.29410000  0.44140000  1.0 -0.5070738075
O  O61  1  0.10010000  0.75280000  0.93890000  1.0 -0.5164880234
O  O62  1  0.14730000  0.70590000  0.93360000  1.0 -0.5070738075
O  O63  1  0.89990000  0.83880000  0.65270000  1.0 -0.5164880234
O  O64  1  0.85270000  0.78630000  0.55860000  1.0 -0.5070738075
O  O65  1  0.06110000  0.81390000  0.16120000  1.0 -0.5164880234
O  O66  1  0.06640000  0.77230000  0.21370000  1.0 -0.5070738075
O  O67  1  0.34730000  0.18610000  0.24720000  1.0 -0.5164880234
O  O68  1  0.44140000  0.22770000  0.29410000  1.0 -0.5070738075
O  O69  1  0.93890000  0.10010000  0.75280000  1.0 -0.5164880234
O  O70  1  0.93360000  0.14730000  0.70590000  1.0 -0.5070738075
O  O71  1  0.65270000  0.89990000  0.83880000  1.0 -0.5164880234
O  O72  1  0.55860000  0.85270000  0.78630000  1.0 -0.5070738075
O  O73  1  0.65270000  0.75280000  0.81390000  1.0 -0.5164880234
O  O74  1  0.55860000  0.70590000  0.77230000  1.0 -0.5070738075
O  O75  1  0.93890000  0.83880000  0.18610000  1.0 -0.5164880234
O  O76  1  0.93360000  0.78630000  0.22770000  1.0 -0.5070738075
O  O77  1  0.34730000  0.16120000  0.10010000  1.0 -0.5164880234
O  O78  1  0.44140000  0.21370000  0.14730000  1.0 -0.5070738075
O  O79  1  0.06110000  0.24720000  0.89990000  1.0 -0.5164880234
O  O80  1  0.06640000  0.29410000  0.85270000  1.0 -0.5070738075
O  O81  1  0.24720000  0.89990000  0.06110000  1.0 -0.5164880234
O  O82  1  0.29410000  0.85270000  0.06640000  1.0 -0.5070738075
O  O83  1  0.16120000  0.10010000  0.34730000  1.0 -0.5164880234
O  O84  1  0.21370000  0.14730000  0.44140000  1.0 -0.5070738075
O  O85  1  0.83880000  0.18610000  0.93890000  1.0 -0.5164880234
O  O86  1  0.78630000  0.22770000  0.93360000  1.0 -0.5070738075
O  O87  1  0.75280000  0.81390000  0.65270000  1.0 -0.5164880234
O  O88  1  0.70590000  0.77230000  0.55860000  1.0 -0.5070738075
O  O89  1  0.10010000  0.34730000  0.16120000  1.0 -0.5164880234
O  O90  1  0.14730000  0.44140000  0.21370000  1.0 -0.5070738075
O  O91  1  0.89990000  0.06110000  0.24720000  1.0 -0.5164880234
O  O92  1  0.85270000  0.06640000  0.29410000  1.0 -0.5070738075
O  O93  1  0.81390000  0.65270000  0.75280000  1.0 -0.5164880234
O  O94  1  0.77230000  0.55860000  0.70590000  1.0 -0.5070738075
O  O95  1  0.18610000  0.93890000  0.83880000  1.0 -0.5164880234
O  O96  1  0.22770000  0.93360000  0.78630000  1.0 -0.5070738075
