# DDEC6 charges by PACMAN v1.1 (https://github.com/mtap-research/PACMAN-charge/)
data_IVUVIG_FSR_pacman
_symmetry_space_group_name_H-M   'P 1'
_cell_length_a   11.03800000
_cell_length_b   11.24900000
_cell_length_c   16.13200000
_cell_angle_alpha   75.24000000
_cell_angle_beta   82.80000000
_cell_angle_gamma   75.26000000
_symmetry_Int_Tables_number   1
_chemical_formula_structural   SmH12C14(NO4)2
_chemical_formula_sum   'Sm4 H48 C56 N8 O32'
_cell_volume   1869.28558412
_cell_formula_units_Z   4
loop_
 _symmetry_equiv_pos_site_id
 _symmetry_equiv_pos_as_xyz
  1  'x, y, z'
loop_
 _atom_site_type_symbol
 _atom_site_label
 _atom_site_symmetry_multiplicity
 _atom_site_fract_x
 _atom_site_fract_y
 _atom_site_fract_z
 _atom_site_occupancy
 _atom_site_charge
Sm  Sm1  1  0.58754000  0.83987000  0.37340000  1.0 2.0695943335
Sm  Sm2  1  0.41246000  0.16013000  0.62660000  1.0 2.0695943335
Sm  Sm3  1  0.79283000  0.00495000  0.13442000  1.0 2.1681328514
Sm  Sm4  1  0.20717000  0.99505000  0.86558000  1.0 2.1681328514
H  H1  1  0.65986000  0.95777000  0.93284000  1.0 0.1386733209
H  H2  1  0.34014000  0.04223000  0.06716000  1.0 0.1386733209
H  H3  1  0.19905000  0.83568000  0.56229000  1.0 0.1386733209
H  H4  1  0.80095000  0.16432000  0.43771000  1.0 0.1386733209
H  H5  1  0.15014000  0.83853000  0.32078000  1.0 0.1331207851
H  H6  1  0.84986000  0.16147000  0.67922000  1.0 0.1331207851
H  H7  1  0.69592000  0.36395000  0.78718000  1.0 0.1331207851
H  H8  1  0.30408000  0.63605000  0.21282000  1.0 0.1331207851
H  H9  1  0.55114000  0.37240000  0.79480000  1.0 0.1386733209
H  H10  1  0.44886000  0.62760000  0.20520000  1.0 0.1386733209
H  H11  1  0.64620000  0.24617000  0.78494000  1.0 0.1386733209
H  H12  1  0.35380000  0.75383000  0.21506000  1.0 0.1386733209
H  H13  1  0.68348000  0.72762000  0.54377000  1.0 0.3595517376
H  H14  1  0.31652000  0.27238000  0.45623000  1.0 0.3595517376
H  H15  1  0.56970000  0.81360000  0.55932000  1.0 0.396328243
H  H16  1  0.43030000  0.18640000  0.44068000  1.0 0.396328243
H  H17  1  0.60688000  0.09512000  0.35696000  1.0 0.3786160597
H  H18  1  0.39312000  0.90488000  0.64304000  1.0 0.3786160597
H  H19  1  0.62464000  0.03719000  0.44416000  1.0 0.396328243
H  H20  1  0.37536000  0.96281000  0.55584000  1.0 0.396328243
H  H21  1  0.65792000  0.57972000  0.45660000  1.0 0.3595517376
H  H22  1  0.34208000  0.42028000  0.54340000  1.0 0.3595517376
H  H23  1  0.55271000  0.59022000  0.41253000  1.0 0.3786160597
H  H24  1  0.44729000  0.40978000  0.58747000  1.0 0.3786160597
H  H25  1  0.85548000  0.84565000  0.49492000  1.0 0.1213718155
H  H26  1  0.14452000  0.15435000  0.50508000  1.0 0.1213718155
H  H27  1  0.87254000  0.28764000  0.11016000  1.0 0.1386733209
H  H28  1  0.12746000  0.71236000  0.88984000  1.0 0.1386733209
H  H29  1  0.66524000  0.48368000  0.27574000  1.0 0.1213718155
H  H30  1  0.33476000  0.51632000  0.72426000  1.0 0.1213718155
H  H31  1  0.63731000  0.90107000  0.69955000  1.0 0.1386733209
H  H32  1  0.36269000  0.09893000  0.30045000  1.0 0.1386733209
H  H33  1  0.87597000  0.65169000  0.08207000  1.0 0.1386733209
H  H34  1  0.12403000  0.34831000  0.91793000  1.0 0.1386733209
H  H35  1  0.97409000  0.87494000  0.78217000  1.0 0.1331207851
H  H36  1  0.02591000  0.12506000  0.21783000  1.0 0.1331207851
H  H37  1  0.85843000  0.20292000  0.84948000  1.0 0.1595767074
H  H38  1  0.14157000  0.79708000  0.15052000  1.0 0.1595767074
H  H39  1  0.91836000  0.19936000  0.93345000  1.0 0.1762441346
H  H40  1  0.08164000  0.80064000  0.06655000  1.0 0.1762441346
H  H41  1  0.85567000  0.32931000  0.87470000  1.0 0.1595767074
H  H42  1  0.14433000  0.67069000  0.12530000  1.0 0.1595767074
H  H43  1  0.44919000  0.34709000  0.94635000  1.0 0.1386733209
H  H44  1  0.55081000  0.65291000  0.05365000  1.0 0.1386733209
H  H45  1  0.51559000  0.22623000  0.01187000  1.0 0.1495339857
H  H46  1  0.48441000  0.77377000  0.98813000  1.0 0.1495339857
H  H47  1  0.46743000  0.21312000  0.92799000  1.0 0.1495339857
H  H48  1  0.53257000  0.78688000  0.07201000  1.0 0.1495339857
C  C1  1  0.71620000  0.25000000  0.24610000  1.0 0.6094272682
C  C2  1  0.28380000  0.75000000  0.75390000  1.0 0.6094272682
C  C3  1  0.76220000  0.36590000  0.20000000  1.0 -0.0196693535
C  C4  1  0.23780000  0.63410000  0.80000000  1.0 -0.0196693535
C  C5  1  0.90490000  0.92500000  0.93480000  1.0 0.6512853154
C  C6  1  0.09510000  0.07500000  0.06520000  1.0 0.6512853154
C  C7  1  0.48640000  0.97790000  0.82590000  1.0 0.6094272682
C  C8  1  0.51360000  0.02210000  0.17410000  1.0 0.6094272682
C  C9  1  0.62560000  0.93890000  0.81650000  1.0 -0.0196693535
C  C10  1  0.37440000  0.06110000  0.18350000  1.0 -0.0196693535
C  C11  1  0.69830000  0.94040000  0.88120000  1.0 -0.0883750184
C  C12  1  0.30170000  0.05960000  0.11880000  1.0 -0.0883750184
C  C13  1  0.83010000  0.91560000  0.86750000  1.0 -0.0375051139
C  C14  1  0.16990000  0.08440000  0.13250000  1.0 -0.0375051139
C  C15  1  0.32730000  0.84380000  0.41210000  1.0 0.568449209
C  C16  1  0.67270000  0.15620000  0.58790000  1.0 0.568449209
C  C17  1  0.19480000  0.83730000  0.43790000  1.0 -0.0196693535
C  C18  1  0.80520000  0.16270000  0.56210000  1.0 -0.0196693535
C  C19  1  0.14670000  0.83690000  0.52100000  1.0 -0.1421138695
C  C20  1  0.85330000  0.16310000  0.47900000  1.0 -0.1421138695
C  C21  1  0.11720000  0.83990000  0.37660000  1.0 -0.1015281523
C  C22  1  0.88280000  0.16010000  0.62340000  1.0 -0.1015281523
C  C23  1  0.63180000  0.31830000  0.80940000  1.0 -0.337732335
C  C24  1  0.36820000  0.68170000  0.19060000  1.0 -0.337732335
C  C25  1  0.76610000  0.58550000  0.18500000  1.0 -0.0298599018
C  C26  1  0.23390000  0.41450000  0.81500000  1.0 -0.0298599018
C  C27  1  0.72490000  0.70740000  0.21290000  1.0 0.6512853154
C  C28  1  0.27510000  0.29260000  0.78710000  1.0 0.6512853154
C  C29  1  0.94020000  0.84330000  0.48080000  1.0 -0.1652544937
C  C30  1  0.05980000  0.15670000  0.51920000  1.0 -0.1652544937
C  C31  1  0.84520000  0.36180000  0.12950000  1.0 -0.1421138695
C  C32  1  0.15480000  0.63820000  0.87050000  1.0 -0.1421138695
C  C33  1  0.72180000  0.47960000  0.22810000  1.0 -0.1302990666
C  C34  1  0.27820000  0.52040000  0.77190000  1.0 -0.1302990666
C  C35  1  0.99100000  0.84440000  0.39710000  1.0 -0.0102977761
C  C36  1  0.00900000  0.15560000  0.60290000  1.0 -0.0102977761
C  C37  1  0.81400000  0.87960000  0.72850000  1.0 0.1595767074
C  C38  1  0.18600000  0.12040000  0.27150000  1.0 0.1595767074
C  C39  1  0.90100000  0.86060000  0.32790000  1.0 0.6559618214
C  C40  1  0.09900000  0.13940000  0.67210000  1.0 0.6559618214
C  C41  1  0.02090000  0.83840000  0.54380000  1.0 0.1595767074
C  C42  1  0.97910000  0.16160000  0.45620000  1.0 0.1595767074
C  C43  1  0.68530000  0.90570000  0.74160000  1.0 -0.1506814262
C  C44  1  0.31470000  0.09430000  0.25840000  1.0 -0.1506814262
C  C45  1  0.88910000  0.47010000  0.08640000  1.0 0.1595767074
C  C46  1  0.11090000  0.52990000  0.91360000  1.0 0.1595767074
C  C47  1  0.84870000  0.58010000  0.11250000  1.0 -0.1506814262
C  C48  1  0.15130000  0.41990000  0.88750000  1.0 -0.1506814262
C  C49  1  0.88740000  0.88800000  0.79180000  1.0 -0.1302990666
C  C50  1  0.11260000  0.11200000  0.20820000  1.0 -0.1302990666
C  C51  1  0.85120000  0.24270000  0.89650000  1.0 -0.5737817785
C  C52  1  0.14880000  0.75730000  0.10350000  1.0 -0.5737817785
C  C53  1  0.72110000  0.23680000  0.94900000  1.0 0.5025147894
C  C54  1  0.27890000  0.76320000  0.05100000  1.0 0.5025147894
C  C55  1  0.50400000  0.26450000  0.95210000  1.0 -0.3492213985
C  C56  1  0.49600000  0.73550000  0.04790000  1.0 -0.3492213985
N  N1  1  0.97500000  0.45510000  0.01460000  1.0 -0.1015281523
N  N2  1  0.02500000  0.54490000  0.98540000  1.0 -0.1015281523
N  N3  1  0.97840000  0.84810000  0.63040000  1.0 -0.1072997427
N  N4  1  0.02160000  0.15190000  0.36960000  1.0 -0.1072997427
N  N5  1  0.86200000  0.85930000  0.64540000  1.0 -0.1072997427
N  N6  1  0.13800000  0.14070000  0.35460000  1.0 -0.1072997427
N  N7  1  0.63480000  0.27610000  0.90330000  1.0 0.020817868
N  N8  1  0.36520000  0.72390000  0.09670000  1.0 0.020817868
O  O1  1  0.75850000  0.15330000  0.21760000  1.0 -0.6703304848
O  O2  1  0.24150000  0.84670000  0.78240000  1.0 -0.6703304848
O  O3  1  0.85160000  0.93200000  0.00760000  1.0 -0.6703304848
O  O4  1  0.14840000  0.06800000  0.99240000  1.0 -0.6703304848
O  O5  1  0.02070000  0.92410000  0.91540000  1.0 -0.6887128255
O  O6  1  0.97930000  0.07590000  0.08460000  1.0 -0.6887128255
O  O7  1  0.42470000  0.00530000  0.75870000  1.0 -0.7522077462
O  O8  1  0.57530000  0.99470000  0.24130000  1.0 -0.7522077462
O  O9  1  0.42900000  0.98110000  0.89780000  1.0 -0.5914862951
O  O10  1  0.57100000  0.01890000  0.10220000  1.0 -0.5914862951
O  O11  1  0.38800000  0.88140000  0.45980000  1.0 -0.6601874134
O  O12  1  0.61200000  0.11860000  0.54020000  1.0 -0.6601874134
O  O13  1  0.37940000  0.81500000  0.34350000  1.0 -0.6235012314
O  O14  1  0.62060000  0.18500000  0.65650000  1.0 -0.6235012314
O  O15  1  0.93520000  0.90280000  0.25090000  1.0 -0.6368819973
O  O16  1  0.06480000  0.09720000  0.74910000  1.0 -0.6368819973
O  O17  1  0.63830000  0.80400000  0.52600000  1.0 -0.7736480535
O  O18  1  0.36170000  0.19600000  0.47400000  1.0 -0.7736480535
O  O19  1  0.57900000  0.04650000  0.40200000  1.0 -0.7736480535
O  O20  1  0.42100000  0.95350000  0.59800000  1.0 -0.7794558705
O  O21  1  0.64090000  0.71290000  0.27350000  1.0 -0.6822531125
O  O22  1  0.35910000  0.28710000  0.72650000  1.0 -0.6822531125
O  O23  1  0.58310000  0.62370000  0.44520000  1.0 -0.7794558705
O  O24  1  0.41690000  0.37630000  0.55480000  1.0 -0.7794558705
O  O25  1  0.77590000  0.79510000  0.17470000  1.0 -0.6601874134
O  O26  1  0.22410000  0.20490000  0.82530000  1.0 -0.6601874134
O  O27  1  0.64180000  0.25450000  0.31050000  1.0 -0.5407766602
O  O28  1  0.35820000  0.74550000  0.68950000  1.0 -0.5407766602
O  O29  1  0.79710000  0.83270000  0.35400000  1.0 -0.7270504138
O  O30  1  0.20290000  0.16730000  0.64600000  1.0 -0.7270504138
O  O31  1  0.71700000  0.19780000  0.02970000  1.0 -0.6521339616
O  O32  1  0.28300000  0.80220000  0.97030000  1.0 -0.6521339616
