# DDEC6 charges by PACMAN v1.1 (https://github.com/mtap-research/PACMAN-charge/)
data_IWAHUK_FSR_pacman
_symmetry_space_group_name_H-M   'P 1'
_cell_length_a   14.32260000
_cell_length_b   14.32260000
_cell_length_c   14.32260000
_cell_angle_alpha   116.74800000
_cell_angle_beta   116.74800000
_cell_angle_gamma   95.73230000
_symmetry_Int_Tables_number   1
_chemical_formula_structural   ZnH32C20N3O8
_chemical_formula_sum   'Zn4 H128 C80 N12 O32'
_cell_volume   2167.90474126
_cell_formula_units_Z   4
loop_
 _symmetry_equiv_pos_site_id
 _symmetry_equiv_pos_as_xyz
  1  'x, y, z'
loop_
 _atom_site_type_symbol
 _atom_site_label
 _atom_site_symmetry_multiplicity
 _atom_site_fract_x
 _atom_site_fract_y
 _atom_site_fract_z
 _atom_site_occupancy
 _atom_site_charge
Zn  Zn1  1  0.42277000  0.42277000  0.00000000  1.0 0.656851569
Zn  Zn2  1  0.57723000  0.57723000  0.00000000  1.0 0.656851569
Zn  Zn3  1  0.07728000  0.07728000  0.00000000  1.0 0.6498299034
Zn  Zn4  1  0.92272000  0.92272000  0.00000000  1.0 0.6498299034
H  H1  1  0.05040000  0.19690000  0.58910000  1.0 0.3044622631
H  H2  1  0.19690000  0.60780000  0.14650000  1.0 0.3044622631
H  H3  1  0.60780000  0.46130000  0.41090000  1.0 0.3051242621
H  H4  1  0.46130000  0.05040000  0.85350000  1.0 0.3044622631
H  H5  1  0.94960000  0.80310000  0.41090000  1.0 0.3044622631
H  H6  1  0.80310000  0.39220000  0.85350000  1.0 0.3044622631
H  H7  1  0.39220000  0.53870000  0.58910000  1.0 0.3044622631
H  H8  1  0.53870000  0.94960000  0.14650000  1.0 0.3044622631
H  H9  1  0.16380000  0.30010000  0.85850000  1.0 0.0537435667
H  H10  1  0.30010000  0.44160000  0.13630000  1.0 0.0537435667
H  H11  1  0.44160000  0.30530000  0.14150000  1.0 0.0537435667
H  H12  1  0.30530000  0.16380000  0.86370000  1.0 0.0537435667
H  H13  1  0.83620000  0.69990000  0.14150000  1.0 0.0537435667
H  H14  1  0.69990000  0.55840000  0.86370000  1.0 0.0537435667
H  H15  1  0.55840000  0.69470000  0.85850000  1.0 0.0537435667
H  H16  1  0.69470000  0.83620000  0.13630000  1.0 0.0537435667
H  H17  1  0.04090000  0.13730000  0.39020000  1.0 0.0592239361
H  H18  1  0.13730000  0.74710000  0.09640000  1.0 0.0592239361
H  H19  1  0.74710000  0.65070000  0.60980000  1.0 0.0592239361
H  H20  1  0.65070000  0.04090000  0.90360000  1.0 0.0592239361
H  H21  1  0.95910000  0.86270000  0.60980000  1.0 0.0592239361
H  H22  1  0.86270000  0.25290000  0.90360000  1.0 0.0592239361
H  H23  1  0.25290000  0.34930000  0.39020000  1.0 0.0592239361
H  H24  1  0.34930000  0.95910000  0.09640000  1.0 0.0592239361
H  H25  1  0.94970000  0.12870000  0.40240000  1.0 0.2924268374
H  H26  1  0.12870000  0.72630000  0.17900000  1.0 0.2924268374
H  H27  1  0.72630000  0.54730000  0.59760000  1.0 0.2924268374
H  H28  1  0.54730000  0.94970000  0.82100000  1.0 0.2924268374
H  H29  1  0.05030000  0.87130000  0.59760000  1.0 0.2924268374
H  H30  1  0.87130000  0.27370000  0.82100000  1.0 0.2924268374
H  H31  1  0.27370000  0.45270000  0.40240000  1.0 0.2924268374
H  H32  1  0.45270000  0.05030000  0.17900000  1.0 0.2924268374
H  H33  1  0.15200000  0.24900000  0.61040000  1.0 0.1112814897
H  H34  1  0.24900000  0.63860000  0.09700000  1.0 0.1112814897
H  H35  1  0.63860000  0.54160000  0.38960000  1.0 0.1112814897
H  H36  1  0.54160000  0.15200000  0.90300000  1.0 0.1112814897
H  H37  1  0.84800000  0.75100000  0.38960000  1.0 0.1112814897
H  H38  1  0.75100000  0.36140000  0.90300000  1.0 0.1112814897
H  H39  1  0.36140000  0.45840000  0.61040000  1.0 0.1112814897
H  H40  1  0.45840000  0.84800000  0.09700000  1.0 0.1112814897
H  H41  1  0.20340000  0.40000000  0.99540000  1.0 0.0537435667
H  H42  1  0.40000000  0.40460000  0.19660000  1.0 0.0537435667
H  H43  1  0.40460000  0.20800000  0.00460000  1.0 0.0537435667
H  H44  1  0.20800000  0.20340000  0.80340000  1.0 0.0537435667
H  H45  1  0.79660000  0.60000000  0.00460000  1.0 0.0537435667
H  H46  1  0.60000000  0.59540000  0.80340000  1.0 0.0537435667
H  H47  1  0.59540000  0.79200000  0.99540000  1.0 0.0537435667
H  H48  1  0.79200000  0.79660000  0.19660000  1.0 0.0537435667
H  H49  1  0.08960000  0.27800000  0.98780000  1.0 0.0592239361
H  H50  1  0.27800000  0.29020000  0.18840000  1.0 0.0592239361
H  H51  1  0.29020000  0.10180000  0.01220000  1.0 0.0592239361
H  H52  1  0.10180000  0.08960000  0.81160000  1.0 0.0592239361
H  H53  1  0.91040000  0.72200000  0.01220000  1.0 0.0592239361
H  H54  1  0.72200000  0.70980000  0.81160000  1.0 0.0592239361
H  H55  1  0.70980000  0.89820000  0.98780000  1.0 0.0592239361
H  H56  1  0.89820000  0.91040000  0.18840000  1.0 0.0592239361
H  H57  1  0.05490000  0.18440000  0.86230000  1.0 0.0592239361
H  H58  1  0.18440000  0.32210000  0.12950000  1.0 0.0592239361
H  H59  1  0.32210000  0.19260000  0.13770000  1.0 0.0592239361
H  H60  1  0.19260000  0.05490000  0.87050000  1.0 0.0592239361
H  H61  1  0.94510000  0.81560000  0.13770000  1.0 0.0592239361
H  H62  1  0.81560000  0.67790000  0.87050000  1.0 0.0592239361
H  H63  1  0.67790000  0.80740000  0.86230000  1.0 0.0592239361
H  H64  1  0.80740000  0.94510000  0.12950000  1.0 0.0592239361
H  H65  1  0.18990000  0.37690000  0.95380000  1.0 0.0592239361
H  H66  1  0.37690000  0.42310000  0.18700000  1.0 0.0592239361
H  H67  1  0.42310000  0.23610000  0.04620000  1.0 0.0592239361
H  H68  1  0.23610000  0.18990000  0.81300000  1.0 0.0592239361
H  H69  1  0.81010000  0.62310000  0.04620000  1.0 0.0592239361
H  H70  1  0.62310000  0.57690000  0.81300000  1.0 0.0592239361
H  H71  1  0.57690000  0.76390000  0.95380000  1.0 0.0592239361
H  H72  1  0.76390000  0.81010000  0.18700000  1.0 0.0592239361
H  H73  1  0.17530000  0.27180000  0.83310000  1.0 0.0592239361
H  H74  1  0.27180000  0.43870000  0.09650000  1.0 0.0592239361
H  H75  1  0.43870000  0.34220000  0.16690000  1.0 0.0592239361
H  H76  1  0.34220000  0.17530000  0.90350000  1.0 0.0592239361
H  H77  1  0.82470000  0.72820000  0.16690000  1.0 0.0592239361
H  H78  1  0.72820000  0.56130000  0.90350000  1.0 0.0592239361
H  H79  1  0.56130000  0.65780000  0.83310000  1.0 0.0592239361
H  H80  1  0.65780000  0.82470000  0.09650000  1.0 0.0592239361
H  H81  1  0.06560000  0.15680000  0.83540000  1.0 0.0592239361
H  H82  1  0.15680000  0.32140000  0.09120000  1.0 0.0592239361
H  H83  1  0.32140000  0.23020000  0.16460000  1.0 0.0592239361
H  H84  1  0.23020000  0.06560000  0.90880000  1.0 0.0592239361
H  H85  1  0.93440000  0.84320000  0.16460000  1.0 0.0592239361
H  H86  1  0.84320000  0.67860000  0.90880000  1.0 0.0592239361
H  H87  1  0.67860000  0.76980000  0.83540000  1.0 0.0592239361
H  H88  1  0.76980000  0.93440000  0.09120000  1.0 0.0592239361
H  H89  1  0.07900000  0.26180000  0.95480000  1.0 0.0592239361
H  H90  1  0.26180000  0.30700000  0.18280000  1.0 0.0592239361
H  H91  1  0.30700000  0.12420000  0.04520000  1.0 0.0592239361
H  H92  1  0.12420000  0.07900000  0.81720000  1.0 0.0592239361
H  H93  1  0.92100000  0.73820000  0.04520000  1.0 0.0592239361
H  H94  1  0.73820000  0.69300000  0.81720000  1.0 0.0592239361
H  H95  1  0.69300000  0.87580000  0.95480000  1.0 0.0592239361
H  H96  1  0.87580000  0.92100000  0.18280000  1.0 0.0592239361
H  H97  1  0.17590000  0.35170000  0.91020000  1.0 0.0592239361
H  H98  1  0.35170000  0.44150000  0.17580000  1.0 0.0592239361
H  H99  1  0.44150000  0.26570000  0.08980000  1.0 0.0592239361
H  H100  1  0.26570000  0.17590000  0.82420000  1.0 0.0592239361
H  H101  1  0.82410000  0.64830000  0.08980000  1.0 0.0537435667
H  H102  1  0.64830000  0.55850000  0.82420000  1.0 0.0537435667
H  H103  1  0.55850000  0.73430000  0.91020000  1.0 0.0592239361
H  H104  1  0.73430000  0.82410000  0.17580000  1.0 0.0537435667
H  H105  1  0.18050000  0.24150000  0.81300000  1.0 0.0537435667
H  H106  1  0.24150000  0.42850000  0.06100000  1.0 0.0537435667
H  H107  1  0.42850000  0.36750000  0.18700000  1.0 0.0537435667
H  H108  1  0.36750000  0.18050000  0.93900000  1.0 0.0537435667
H  H109  1  0.81950000  0.75850000  0.18700000  1.0 0.0537435667
H  H110  1  0.75850000  0.57150000  0.93900000  1.0 0.0537435667
H  H111  1  0.57150000  0.63250000  0.81300000  1.0 0.0537435667
H  H112  1  0.63250000  0.81950000  0.06100000  1.0 0.0537435667
H  H113  1  0.06240000  0.22480000  0.89740000  1.0 0.0537435667
H  H114  1  0.22480000  0.32740000  0.16240000  1.0 0.0537435667
H  H115  1  0.32740000  0.16500000  0.10260000  1.0 0.0537435667
H  H116  1  0.16500000  0.06240000  0.83760000  1.0 0.0537435667
H  H117  1  0.93760000  0.77520000  0.10260000  1.0 0.0537435667
H  H118  1  0.77520000  0.67260000  0.83760000  1.0 0.0537435667
H  H119  1  0.67260000  0.83500000  0.89740000  1.0 0.0537435667
H  H120  1  0.83500000  0.93760000  0.16240000  1.0 0.0537435667
H  H121  1  0.07390000  0.12020000  0.81310000  1.0 0.0592239361
H  H122  1  0.12020000  0.30710000  0.04630000  1.0 0.0592239361
H  H123  1  0.30710000  0.26080000  0.18690000  1.0 0.0592239361
H  H124  1  0.26080000  0.07390000  0.95370000  1.0 0.0592239361
H  H125  1  0.92610000  0.87980000  0.18690000  1.0 0.0592239361
H  H126  1  0.87980000  0.69290000  0.95370000  1.0 0.0592239361
H  H127  1  0.69290000  0.73920000  0.81310000  1.0 0.0592239361
H  H128  1  0.73920000  0.92610000  0.04630000  1.0 0.0592239361
C  C1  1  0.34720000  0.42290000  0.77010000  1.0 0.3897229524
C  C2  1  0.42290000  0.65280000  0.07570000  1.0 0.3897229524
C  C3  1  0.65280000  0.57710000  0.22990000  1.0 0.3897229524
C  C4  1  0.57710000  0.34720000  0.92430000  1.0 0.3897229524
C  C5  1  0.27040000  0.36210000  0.63250000  1.0 -0.1280630401
C  C6  1  0.36210000  0.72960000  0.09170000  1.0 -0.1280630401
C  C7  1  0.72960000  0.63790000  0.36750000  1.0 -0.1280630401
C  C8  1  0.63790000  0.27040000  0.90830000  1.0 -0.1280630401
C  C9  1  0.17260000  0.26650000  0.56430000  1.0 0.068805957
C  C10  1  0.26650000  0.70220000  0.09390000  1.0 0.068805957
C  C11  1  0.70220000  0.60830000  0.43570000  1.0 0.068805957
C  C12  1  0.60830000  0.17260000  0.90610000  1.0 0.068805957
C  C13  1  0.82740000  0.73350000  0.43570000  1.0 0.068805957
C  C14  1  0.73350000  0.29780000  0.90610000  1.0 0.068805957
C  C15  1  0.29780000  0.39170000  0.56430000  1.0 0.068805957
C  C16  1  0.39170000  0.82740000  0.09390000  1.0 0.068805957
C  C17  1  0.10710000  0.20210000  0.43420000  1.0 0.0945841165
C  C18  1  0.20210000  0.76790000  0.09500000  1.0 0.0956101981
C  C19  1  0.76790000  0.67290000  0.56580000  1.0 0.0956101981
C  C20  1  0.67290000  0.10710000  0.90500000  1.0 0.0956101981
C  C21  1  0.89290000  0.79790000  0.56580000  1.0 0.0956101981
C  C22  1  0.79790000  0.23210000  0.90500000  1.0 0.0956101981
C  C23  1  0.23210000  0.32710000  0.43420000  1.0 0.0945841165
C  C24  1  0.32710000  0.89290000  0.09500000  1.0 0.0956101981
C  C25  1  0.13980000  0.23100000  0.37080000  1.0 -0.1390917136
C  C26  1  0.23100000  0.86020000  0.09120000  1.0 -0.1390917136
C  C27  1  0.86020000  0.76900000  0.62920000  1.0 -0.1390917136
C  C28  1  0.76900000  0.13980000  0.90880000  1.0 -0.1390917136
C  C29  1  0.07660000  0.15180000  0.22840000  1.0 0.3631982894
C  C30  1  0.15180000  0.92340000  0.07520000  1.0 0.3665904792
C  C31  1  0.92340000  0.84820000  0.77160000  1.0 0.3665904792
C  C32  1  0.84820000  0.07660000  0.92480000  1.0 0.3631982894
C  C33  1  0.19830000  0.30320000  0.92090000  1.0 -0.0390339463
C  C34  1  0.30320000  0.38230000  0.10490000  1.0 -0.0390339463
C  C35  1  0.38230000  0.27740000  0.07910000  1.0 -0.0390339463
C  C36  1  0.27740000  0.19830000  0.89510000  1.0 -0.0390339463
C  C37  1  0.80170000  0.69680000  0.07910000  1.0 -0.0390339463
C  C38  1  0.69680000  0.61770000  0.89510000  1.0 -0.0390339463
C  C39  1  0.61770000  0.72260000  0.92090000  1.0 -0.0390339463
C  C40  1  0.72260000  0.80170000  0.10490000  1.0 -0.0390339463
C  C41  1  0.12120000  0.22260000  0.92260000  1.0 -0.0289462118
C  C42  1  0.22260000  0.30000000  0.10140000  1.0 -0.0289462118
C  C43  1  0.30000000  0.19860000  0.07740000  1.0 -0.0289462118
C  C44  1  0.19860000  0.12120000  0.89860000  1.0 -0.0289462118
C  C45  1  0.87880000  0.77740000  0.07740000  1.0 -0.0289462118
C  C46  1  0.77740000  0.70000000  0.89860000  1.0 -0.0289462118
C  C47  1  0.70000000  0.80140000  0.92260000  1.0 -0.0289462118
C  C48  1  0.80140000  0.87880000  0.10140000  1.0 -0.0289462118
C  C49  1  0.32580000  0.19890000  0.95110000  1.0 -0.0244380939
C  C50  1  0.19890000  0.24780000  0.87310000  1.0 -0.0244380939
C  C51  1  0.24780000  0.37470000  0.04890000  1.0 -0.0244380939
C  C52  1  0.37470000  0.32580000  0.12690000  1.0 -0.0244380939
C  C53  1  0.67420000  0.80110000  0.04890000  1.0 -0.0244380939
C  C54  1  0.80110000  0.75220000  0.12690000  1.0 -0.0244380939
C  C55  1  0.75220000  0.62530000  0.95110000  1.0 -0.0244380939
C  C56  1  0.62530000  0.67420000  0.87310000  1.0 -0.0244380939
C  C57  1  0.24560000  0.12440000  0.95580000  1.0 -0.0390339463
C  C58  1  0.12440000  0.16860000  0.87880000  1.0 -0.0390339463
C  C59  1  0.16860000  0.28980000  0.04420000  1.0 -0.0390339463
C  C60  1  0.28980000  0.24560000  0.12120000  1.0 -0.0390339463
C  C61  1  0.75440000  0.87560000  0.04420000  1.0 -0.0390339463
C  C62  1  0.87560000  0.83140000  0.12120000  1.0 -0.0390339463
C  C63  1  0.83140000  0.71020000  0.95580000  1.0 -0.0390339463
C  C64  1  0.71020000  0.75440000  0.87880000  1.0 -0.0390339463
C  C65  1  0.35150000  0.36410000  0.13660000  1.0 -0.0289462118
C  C66  1  0.36410000  0.22750000  0.01260000  1.0 -0.0289462118
C  C67  1  0.22750000  0.21490000  0.86340000  1.0 -0.0289462118
C  C68  1  0.21490000  0.35150000  0.98740000  1.0 -0.0289462118
C  C69  1  0.64850000  0.63590000  0.86340000  1.0 -0.0289462118
C  C70  1  0.63590000  0.77250000  0.98740000  1.0 -0.0289462118
C  C71  1  0.77250000  0.78510000  0.13660000  1.0 -0.0289462118
C  C72  1  0.78510000  0.64850000  0.01260000  1.0 -0.0289462118
C  C73  1  0.26700000  0.28640000  0.13180000  1.0 -0.0289462118
C  C74  1  0.28640000  0.15460000  0.01940000  1.0 -0.0289462118
C  C75  1  0.15460000  0.13520000  0.86820000  1.0 -0.0289462118
C  C76  1  0.13520000  0.26700000  0.98060000  1.0 -0.0289462118
C  C77  1  0.73300000  0.71360000  0.86820000  1.0 -0.0289462118
C  C78  1  0.71360000  0.84540000  0.98060000  1.0 -0.0289462118
C  C79  1  0.84540000  0.86480000  0.13180000  1.0 -0.0289462118
C  C80  1  0.86480000  0.73300000  0.01940000  1.0 -0.0289462118
N  N1  1  0.31430000  0.31430000  0.00000000  1.0 -0.1178870526
N  N2  1  0.68570000  0.68570000  0.00000000  1.0 -0.1178870526
N  N3  1  0.18080000  0.18080000  0.00000000  1.0 -0.1178870526
N  N4  1  0.81920000  0.81920000  0.00000000  1.0 -0.1178870526
N  N5  1  0.32040000  0.32040000  0.00000000  1.0 -0.1178870526
N  N6  1  0.67960000  0.67960000  0.00000000  1.0 -0.1178870526
N  N7  1  0.31560000  0.31560000  0.00000000  1.0 -0.1178870526
N  N8  1  0.68440000  0.68440000  0.00000000  1.0 -0.1178870526
N  N9  1  0.18270000  0.18270000  0.00000000  1.0 -0.1178870526
N  N10  1  0.81730000  0.81730000  0.00000000  1.0 -0.1178870526
N  N11  1  0.18730000  0.18730000  0.00000000  1.0 -0.1178870526
N  N12  1  0.81270000  0.81270000  0.00000000  1.0 -0.1178870526
O  O1  1  0.32082000  0.38952000  0.82470000  1.0 -0.4762186578
O  O2  1  0.38952000  0.56482000  0.06870000  1.0 -0.4762186578
O  O3  1  0.56482000  0.49612000  0.17530000  1.0 -0.4762186578
O  O4  1  0.49612000  0.32082000  0.93130000  1.0 -0.4762186578
O  O5  1  0.67918000  0.61048000  0.17530000  1.0 -0.4762186578
O  O6  1  0.61048000  0.43518000  0.93130000  1.0 -0.4762186578
O  O7  1  0.43518000  0.50388000  0.82470000  1.0 -0.4762186578
O  O8  1  0.50388000  0.67918000  0.06870000  1.0 -0.4762186578
O  O9  1  0.11065000  0.17915000  0.17490000  1.0 -0.450816426
O  O10  1  0.17915000  0.00425000  0.06850000  1.0 -0.450816426
O  O11  1  0.00425000  0.93575000  0.82510000  1.0 -0.450816426
O  O12  1  0.93575000  0.11065000  0.93150000  1.0 -0.4557408599
O  O13  1  0.88935000  0.82085000  0.82510000  1.0 -0.4557408599
O  O14  1  0.82085000  0.99575000  0.93150000  1.0 -0.4557408599
O  O15  1  0.99575000  0.06425000  0.17490000  1.0 -0.4557408599
O  O16  1  0.06425000  0.88935000  0.06850000  1.0 -0.450816426
O  O17  1  0.13600000  0.23200000  0.61720000  1.0 -0.450816426
O  O18  1  0.23200000  0.61480000  0.09600000  1.0 -0.450816426
O  O19  1  0.61480000  0.51880000  0.38280000  1.0 -0.450816426
O  O20  1  0.51880000  0.13600000  0.90400000  1.0 -0.450816426
O  O21  1  0.86400000  0.76800000  0.38280000  1.0 -0.450816426
O  O22  1  0.76800000  0.38520000  0.90400000  1.0 -0.450816426
O  O23  1  0.38520000  0.48120000  0.61720000  1.0 -0.450816426
O  O24  1  0.48120000  0.86400000  0.09600000  1.0 -0.450816426
O  O25  1  0.01740000  0.12120000  0.38680000  1.0 -0.44226026
O  O26  1  0.12120000  0.73440000  0.10380000  1.0 -0.44226026
O  O27  1  0.73440000  0.63060000  0.61320000  1.0 -0.44226026
O  O28  1  0.63060000  0.01740000  0.89620000  1.0 -0.44226026
O  O29  1  0.98260000  0.87880000  0.61320000  1.0 -0.44226026
O  O30  1  0.87880000  0.26560000  0.89620000  1.0 -0.44226026
O  O31  1  0.26560000  0.36940000  0.38680000  1.0 -0.44226026
O  O32  1  0.36940000  0.98260000  0.10380000  1.0 -0.44226026
