# DDEC6 charges by PACMAN v1.1 (https://github.com/mtap-research/PACMAN-charge/)
data_IWAXUZ_ion_pacman
_symmetry_space_group_name_H-M   'P 1'
_cell_length_a   20.45190000
_cell_length_b   20.45190000
_cell_length_c   20.45190000
_cell_angle_alpha   60.00000000
_cell_angle_beta   60.00000000
_cell_angle_gamma   60.00000000
_symmetry_Int_Tables_number   1
_chemical_formula_structural   Na3Mg6H48C20(N4O7)6
_chemical_formula_sum   'Na12 Mg24 H192 C80 N96 O168'
_cell_volume   6049.03341924
_cell_formula_units_Z   4
loop_
 _symmetry_equiv_pos_site_id
 _symmetry_equiv_pos_as_xyz
  1  'x, y, z'
loop_
 _atom_site_type_symbol
 _atom_site_label
 _atom_site_symmetry_multiplicity
 _atom_site_fract_x
 _atom_site_fract_y
 _atom_site_fract_z
 _atom_site_occupancy
 _atom_site_charge
Na  Na1  1  0.25000000  0.75000000  0.75000000  1.0 0.9195100833
Na  Na2  1  0.75000000  0.25000000  0.75000000  1.0 0.9195100833
Na  Na3  1  0.75000000  0.75000000  0.25000000  1.0 0.9195100833
Na  Na4  1  0.00000000  0.50000000  0.00000000  1.0 0.9195100833
Na  Na5  1  0.50000000  0.00000000  0.50000000  1.0 0.9195100833
Na  Na6  1  0.50000000  0.00000000  0.00000000  1.0 0.9195100833
Na  Na7  1  0.00000000  0.50000000  0.50000000  1.0 0.9195100833
Na  Na8  1  0.50000000  0.50000000  0.00000000  1.0 0.9195100833
Na  Na9  1  0.00000000  0.00000000  0.50000000  1.0 0.9195100833
Na  Na10  1  0.75000000  0.25000000  0.25000000  1.0 0.9195100833
Na  Na11  1  0.25000000  0.75000000  0.25000000  1.0 0.9195100833
Na  Na12  1  0.25000000  0.25000000  0.75000000  1.0 0.9195100833
Mg  Mg1  1  0.12500000  0.87324000  0.62500000  1.0 1.3112042119
Mg  Mg2  1  0.62500000  0.12500000  0.87324000  1.0 1.3112042119
Mg  Mg3  1  0.87324000  0.62500000  0.12500000  1.0 1.3112042119
Mg  Mg4  1  0.12500000  0.37676000  0.87324000  1.0 1.3112042119
Mg  Mg5  1  0.62500000  0.87324000  0.37676000  1.0 1.3112042119
Mg  Mg6  1  0.87324000  0.37676000  0.62500000  1.0 1.3112042119
Mg  Mg7  1  0.37676000  0.87324000  0.12500000  1.0 1.3112042119
Mg  Mg8  1  0.37676000  0.62500000  0.87324000  1.0 1.3112042119
Mg  Mg9  1  0.87324000  0.12500000  0.37676000  1.0 1.3112042119
Mg  Mg10  1  0.12500000  0.62500000  0.37676000  1.0 1.3112042119
Mg  Mg11  1  0.37676000  0.12500000  0.62500000  1.0 1.3112042119
Mg  Mg12  1  0.62500000  0.37676000  0.12500000  1.0 1.3112042119
Mg  Mg13  1  0.62500000  0.87676000  0.12500000  1.0 1.3112042119
Mg  Mg14  1  0.12500000  0.62500000  0.87676000  1.0 1.3112042119
Mg  Mg15  1  0.87676000  0.12500000  0.62500000  1.0 1.3112042119
Mg  Mg16  1  0.62500000  0.37324000  0.87676000  1.0 1.3112042119
Mg  Mg17  1  0.12500000  0.87676000  0.37324000  1.0 1.3112042119
Mg  Mg18  1  0.87676000  0.37324000  0.12500000  1.0 1.3112042119
Mg  Mg19  1  0.37324000  0.87676000  0.62500000  1.0 1.3112042119
Mg  Mg20  1  0.37324000  0.12500000  0.87676000  1.0 1.3112042119
Mg  Mg21  1  0.87676000  0.62500000  0.37324000  1.0 1.3112042119
Mg  Mg22  1  0.62500000  0.12500000  0.37324000  1.0 1.3112042119
Mg  Mg23  1  0.37324000  0.62500000  0.12500000  1.0 1.3112042119
Mg  Mg24  1  0.12500000  0.37324000  0.62500000  1.0 1.3112042119
H  H1  1  0.34810000  0.24410000  0.43010000  1.0 0.3314556449
H  H2  1  0.43010000  0.34810000  0.24410000  1.0 0.3314556449
H  H3  1  0.24410000  0.43010000  0.34810000  1.0 0.3314556449
H  H4  1  0.42390000  0.24050000  0.36070000  1.0 0.3361294058
H  H5  1  0.36070000  0.42390000  0.24050000  1.0 0.3361294058
H  H6  1  0.24050000  0.36070000  0.42390000  1.0 0.3361294058
H  H7  1  0.27230000  0.81990000  0.90190000  1.0 0.3314556449
H  H8  1  0.27230000  0.00590000  0.81990000  1.0 0.3314556449
H  H9  1  0.27230000  0.90190000  0.00590000  1.0 0.3314556449
H  H10  1  0.27510000  0.88930000  0.82610000  1.0 0.3361294058
H  H11  1  0.27510000  0.00950000  0.88930000  1.0 0.3361294058
H  H12  1  0.27510000  0.82610000  0.00950000  1.0 0.3361294058
H  H13  1  0.81990000  0.00590000  0.90190000  1.0 0.3314556449
H  H14  1  0.00590000  0.90190000  0.81990000  1.0 0.3314556449
H  H15  1  0.90190000  0.81990000  0.00590000  1.0 0.3314556449
H  H16  1  0.88930000  0.00950000  0.82610000  1.0 0.3314556449
H  H17  1  0.00950000  0.82610000  0.88930000  1.0 0.3361294058
H  H18  1  0.82610000  0.88930000  0.00950000  1.0 0.3361294058
H  H19  1  0.00590000  0.81990000  0.27230000  1.0 0.3314556449
H  H20  1  0.81990000  0.90190000  0.27230000  1.0 0.3314556449
H  H21  1  0.90190000  0.00590000  0.27230000  1.0 0.3314556449
H  H22  1  0.00950000  0.88930000  0.27510000  1.0 0.3361294058
H  H23  1  0.88930000  0.82610000  0.27510000  1.0 0.3361294058
H  H24  1  0.82610000  0.00950000  0.27510000  1.0 0.3314556449
H  H25  1  0.90190000  0.27230000  0.81990000  1.0 0.3314556449
H  H26  1  0.81990000  0.27230000  0.00590000  1.0 0.3314556449
H  H27  1  0.00590000  0.27230000  0.90190000  1.0 0.3314556449
H  H28  1  0.82610000  0.27510000  0.88930000  1.0 0.3361294058
H  H29  1  0.88930000  0.27510000  0.00950000  1.0 0.3314556449
H  H30  1  0.00950000  0.27510000  0.82610000  1.0 0.3361294058
H  H31  1  0.97770000  0.24410000  0.34810000  1.0 0.3314556449
H  H32  1  0.97770000  0.34810000  0.43010000  1.0 0.3314556449
H  H33  1  0.97770000  0.43010000  0.24410000  1.0 0.3314556449
H  H34  1  0.97490000  0.24050000  0.42390000  1.0 0.3361294058
H  H35  1  0.97490000  0.42390000  0.36070000  1.0 0.3361294058
H  H36  1  0.97490000  0.36070000  0.24050000  1.0 0.3361294058
H  H37  1  0.24410000  0.34810000  0.97770000  1.0 0.3314556449
H  H38  1  0.43010000  0.24410000  0.97770000  1.0 0.3314556449
H  H39  1  0.34810000  0.43010000  0.97770000  1.0 0.3314556449
H  H40  1  0.24050000  0.42390000  0.97490000  1.0 0.3361294058
H  H41  1  0.36070000  0.24050000  0.97490000  1.0 0.3361294058
H  H42  1  0.42390000  0.36070000  0.97490000  1.0 0.3361294058
H  H43  1  0.34810000  0.97770000  0.24410000  1.0 0.3314556449
H  H44  1  0.24410000  0.97770000  0.43010000  1.0 0.3314556449
H  H45  1  0.43010000  0.97770000  0.34810000  1.0 0.3314556449
H  H46  1  0.42390000  0.97490000  0.24050000  1.0 0.3361294058
H  H47  1  0.24050000  0.97490000  0.36070000  1.0 0.3361294058
H  H48  1  0.36070000  0.97490000  0.42390000  1.0 0.3361294058
H  H49  1  0.40190000  0.50590000  0.31990000  1.0 0.3314556449
H  H50  1  0.31990000  0.40190000  0.50590000  1.0 0.3314556449
H  H51  1  0.50590000  0.31990000  0.40190000  1.0 0.3314556449
H  H52  1  0.32610000  0.50950000  0.38930000  1.0 0.3361294058
H  H53  1  0.38930000  0.32610000  0.50950000  1.0 0.3314556449
H  H54  1  0.50950000  0.38930000  0.32610000  1.0 0.3361294058
H  H55  1  0.47770000  0.93010000  0.84810000  1.0 0.3314556449
H  H56  1  0.47770000  0.74410000  0.93010000  1.0 0.3314556449
H  H57  1  0.47770000  0.84810000  0.74410000  1.0 0.3314556449
H  H58  1  0.47490000  0.86070000  0.92390000  1.0 0.3361294058
H  H59  1  0.47490000  0.74050000  0.86070000  1.0 0.3361294058
H  H60  1  0.47490000  0.92390000  0.74050000  1.0 0.3361294058
H  H61  1  0.93010000  0.74410000  0.84810000  1.0 0.3314556449
H  H62  1  0.74410000  0.84810000  0.93010000  1.0 0.3314556449
H  H63  1  0.84810000  0.93010000  0.74410000  1.0 0.3314556449
H  H64  1  0.86070000  0.74050000  0.92390000  1.0 0.3361294058
H  H65  1  0.74050000  0.92390000  0.86070000  1.0 0.3361294058
H  H66  1  0.92390000  0.86070000  0.74050000  1.0 0.3361294058
H  H67  1  0.74410000  0.93010000  0.47770000  1.0 0.3314556449
H  H68  1  0.93010000  0.84810000  0.47770000  1.0 0.3314556449
H  H69  1  0.84810000  0.74410000  0.47770000  1.0 0.3314556449
H  H70  1  0.74050000  0.86070000  0.47490000  1.0 0.3361294058
H  H71  1  0.86070000  0.92390000  0.47490000  1.0 0.3361294058
H  H72  1  0.92390000  0.74050000  0.47490000  1.0 0.3361294058
H  H73  1  0.84810000  0.47770000  0.93010000  1.0 0.3314556449
H  H74  1  0.93010000  0.47770000  0.74410000  1.0 0.3314556449
H  H75  1  0.74410000  0.47770000  0.84810000  1.0 0.3314556449
H  H76  1  0.92390000  0.47490000  0.86070000  1.0 0.3361294058
H  H77  1  0.86070000  0.47490000  0.74050000  1.0 0.3361294058
H  H78  1  0.74050000  0.47490000  0.92390000  1.0 0.3361294058
H  H79  1  0.77230000  0.50590000  0.40190000  1.0 0.3314556449
H  H80  1  0.77230000  0.40190000  0.31990000  1.0 0.3314556449
H  H81  1  0.77230000  0.31990000  0.50590000  1.0 0.3314556449
H  H82  1  0.77510000  0.50950000  0.32610000  1.0 0.3361294058
H  H83  1  0.77510000  0.32610000  0.38930000  1.0 0.3361294058
H  H84  1  0.77510000  0.38930000  0.50950000  1.0 0.3361294058
H  H85  1  0.50590000  0.40190000  0.77230000  1.0 0.3314556449
H  H86  1  0.31990000  0.50590000  0.77230000  1.0 0.3314556449
H  H87  1  0.40190000  0.31990000  0.77230000  1.0 0.3314556449
H  H88  1  0.50950000  0.32610000  0.77510000  1.0 0.3361294058
H  H89  1  0.38930000  0.50950000  0.77510000  1.0 0.3361294058
H  H90  1  0.32610000  0.38930000  0.77510000  1.0 0.3361294058
H  H91  1  0.40190000  0.77230000  0.50590000  1.0 0.3314556449
H  H92  1  0.50590000  0.77230000  0.31990000  1.0 0.3314556449
H  H93  1  0.31990000  0.77230000  0.40190000  1.0 0.3314556449
H  H94  1  0.32610000  0.77510000  0.50950000  1.0 0.3361294058
H  H95  1  0.50950000  0.77510000  0.38930000  1.0 0.3361294058
H  H96  1  0.38930000  0.77510000  0.32610000  1.0 0.3361294058
H  H97  1  0.09770000  0.18070000  0.99430000  1.0 0.3314556449
H  H98  1  0.18070000  0.99430000  0.09770000  1.0 0.3314556449
H  H99  1  0.99430000  0.09770000  0.18070000  1.0 0.3314556449
H  H100  1  0.17370000  0.11130000  0.99010000  1.0 0.3361294058
H  H101  1  0.11130000  0.99010000  0.17370000  1.0 0.3361294058
H  H102  1  0.99010000  0.17370000  0.11130000  1.0 0.3361294058
H  H103  1  0.25570000  0.52270000  0.06930000  1.0 0.3314556449
H  H104  1  0.15230000  0.52270000  0.25570000  1.0 0.3314556449
H  H105  1  0.06930000  0.52270000  0.15230000  1.0 0.3314556449
H  H106  1  0.25990000  0.52510000  0.13870000  1.0 0.3361294058
H  H107  1  0.07630000  0.52510000  0.25990000  1.0 0.3361294058
H  H108  1  0.13870000  0.52510000  0.07630000  1.0 0.3361294058
H  H109  1  0.52270000  0.25570000  0.15230000  1.0 0.3314556449
H  H110  1  0.52270000  0.15230000  0.06930000  1.0 0.3314556449
H  H111  1  0.52270000  0.06930000  0.25570000  1.0 0.3314556449
H  H112  1  0.52510000  0.25990000  0.07630000  1.0 0.3361294058
H  H113  1  0.52510000  0.07630000  0.13870000  1.0 0.3361294058
H  H114  1  0.52510000  0.13870000  0.25990000  1.0 0.3361294058
H  H115  1  0.15230000  0.06930000  0.52270000  1.0 0.3314556449
H  H116  1  0.06930000  0.25570000  0.52270000  1.0 0.3314556449
H  H117  1  0.25570000  0.15230000  0.52270000  1.0 0.3314556449
H  H118  1  0.07630000  0.13870000  0.52510000  1.0 0.3361294058
H  H119  1  0.13870000  0.25990000  0.52510000  1.0 0.3361294058
H  H120  1  0.25990000  0.07630000  0.52510000  1.0 0.3361294058
H  H121  1  0.72730000  0.99430000  0.18070000  1.0 0.3314556449
H  H122  1  0.72730000  0.09770000  0.99430000  1.0 0.3314556449
H  H123  1  0.72730000  0.18070000  0.09770000  1.0 0.3314556449
H  H124  1  0.72490000  0.99010000  0.11130000  1.0 0.3361294058
H  H125  1  0.72490000  0.17370000  0.99010000  1.0 0.3361294058
H  H126  1  0.72490000  0.11130000  0.17370000  1.0 0.3361294058
H  H127  1  0.99430000  0.72730000  0.09770000  1.0 0.3314556449
H  H128  1  0.09770000  0.72730000  0.18070000  1.0 0.3314556449
H  H129  1  0.18070000  0.72730000  0.99430000  1.0 0.3314556449
H  H130  1  0.99010000  0.72490000  0.17370000  1.0 0.3361294058
H  H131  1  0.17370000  0.72490000  0.11130000  1.0 0.3361294058
H  H132  1  0.11130000  0.72490000  0.99010000  1.0 0.3361294058
H  H133  1  0.18070000  0.09770000  0.72730000  1.0 0.3314556449
H  H134  1  0.99430000  0.18070000  0.72730000  1.0 0.3314556449
H  H135  1  0.09770000  0.99430000  0.72730000  1.0 0.3314556449
H  H136  1  0.11130000  0.17370000  0.72490000  1.0 0.3361294058
H  H137  1  0.99010000  0.11130000  0.72490000  1.0 0.3361294058
H  H138  1  0.17370000  0.99010000  0.72490000  1.0 0.3361294058
H  H139  1  0.06930000  0.15230000  0.25570000  1.0 0.3314556449
H  H140  1  0.25570000  0.06930000  0.15230000  1.0 0.3314556449
H  H141  1  0.15230000  0.25570000  0.06930000  1.0 0.3314556449
H  H142  1  0.13870000  0.07630000  0.25990000  1.0 0.3361294058
H  H143  1  0.25990000  0.13870000  0.07630000  1.0 0.3361294058
H  H144  1  0.07630000  0.25990000  0.13870000  1.0 0.3361294058
H  H145  1  0.65230000  0.56930000  0.75570000  1.0 0.3314556449
H  H146  1  0.56930000  0.75570000  0.65230000  1.0 0.3314556449
H  H147  1  0.75570000  0.65230000  0.56930000  1.0 0.3314556449
H  H148  1  0.57630000  0.63870000  0.75990000  1.0 0.3361294058
H  H149  1  0.63870000  0.75990000  0.57630000  1.0 0.3361294058
H  H150  1  0.75990000  0.57630000  0.63870000  1.0 0.3361294058
H  H151  1  0.49430000  0.22730000  0.68070000  1.0 0.3314556449
H  H152  1  0.59770000  0.22730000  0.49430000  1.0 0.3314556449
H  H153  1  0.68070000  0.22730000  0.59770000  1.0 0.3314556449
H  H154  1  0.49010000  0.22490000  0.61130000  1.0 0.3361294058
H  H155  1  0.67370000  0.22490000  0.49010000  1.0 0.3361294058
H  H156  1  0.61130000  0.22490000  0.67370000  1.0 0.3361294058
H  H157  1  0.22730000  0.49430000  0.59770000  1.0 0.3314556449
H  H158  1  0.22730000  0.59770000  0.68070000  1.0 0.3314556449
H  H159  1  0.22730000  0.68070000  0.49430000  1.0 0.3314556449
H  H160  1  0.22490000  0.49010000  0.67370000  1.0 0.3361294058
H  H161  1  0.22490000  0.67370000  0.61130000  1.0 0.3361294058
H  H162  1  0.22490000  0.61130000  0.49010000  1.0 0.3361294058
H  H163  1  0.59770000  0.68070000  0.22730000  1.0 0.3314556449
H  H164  1  0.68070000  0.49430000  0.22730000  1.0 0.3314556449
H  H165  1  0.49430000  0.59770000  0.22730000  1.0 0.3314556449
H  H166  1  0.67370000  0.61130000  0.22490000  1.0 0.3361294058
H  H167  1  0.61130000  0.49010000  0.22490000  1.0 0.3361294058
H  H168  1  0.49010000  0.67370000  0.22490000  1.0 0.3361294058
H  H169  1  0.02270000  0.75570000  0.56930000  1.0 0.3314556449
H  H170  1  0.02270000  0.65230000  0.75570000  1.0 0.3314556449
H  H171  1  0.02270000  0.56930000  0.65230000  1.0 0.3314556449
H  H172  1  0.02510000  0.75990000  0.63870000  1.0 0.3361294058
H  H173  1  0.02510000  0.57630000  0.75990000  1.0 0.3361294058
H  H174  1  0.02510000  0.63870000  0.57630000  1.0 0.3361294058
H  H175  1  0.75570000  0.02270000  0.65230000  1.0 0.3314556449
H  H176  1  0.65230000  0.02270000  0.56930000  1.0 0.3314556449
H  H177  1  0.56930000  0.02270000  0.75570000  1.0 0.3314556449
H  H178  1  0.75990000  0.02510000  0.57630000  1.0 0.3361294058
H  H179  1  0.57630000  0.02510000  0.63870000  1.0 0.3361294058
H  H180  1  0.63870000  0.02510000  0.75990000  1.0 0.3361294058
H  H181  1  0.56930000  0.65230000  0.02270000  1.0 0.3314556449
H  H182  1  0.75570000  0.56930000  0.02270000  1.0 0.3314556449
H  H183  1  0.65230000  0.75570000  0.02270000  1.0 0.3314556449
H  H184  1  0.63870000  0.57630000  0.02510000  1.0 0.3361294058
H  H185  1  0.75990000  0.63870000  0.02510000  1.0 0.3361294058
H  H186  1  0.57630000  0.75990000  0.02510000  1.0 0.3361294058
H  H187  1  0.68070000  0.59770000  0.49430000  1.0 0.3314556449
H  H188  1  0.49430000  0.68070000  0.59770000  1.0 0.3314556449
H  H189  1  0.59770000  0.49430000  0.68070000  1.0 0.3314556449
H  H190  1  0.61130000  0.67370000  0.49010000  1.0 0.3361294058
H  H191  1  0.49010000  0.61130000  0.67370000  1.0 0.3361294058
H  H192  1  0.67370000  0.49010000  0.61130000  1.0 0.3361294058
C  C1  1  0.08195000  0.75943000  0.74277000  1.0 0.8158184304
C  C2  1  0.74277000  0.08195000  0.75943000  1.0 0.8158184304
C  C3  1  0.75943000  0.74277000  0.08195000  1.0 0.8158184304
C  C4  1  0.16805000  0.49057000  0.83415000  1.0 0.8158184304
C  C5  1  0.50723000  0.83415000  0.49057000  1.0 0.8158184304
C  C6  1  0.83415000  0.50723000  0.16805000  1.0 0.8158184304
C  C7  1  0.50723000  0.16805000  0.83415000  1.0 0.8158184304
C  C8  1  0.83415000  0.49057000  0.50723000  1.0 0.8158184304
C  C9  1  0.49057000  0.83415000  0.16805000  1.0 0.8158184304
C  C10  1  0.49057000  0.50723000  0.83415000  1.0 0.8158184304
C  C11  1  0.16805000  0.83415000  0.50723000  1.0 0.8146403402
C  C12  1  0.83415000  0.16805000  0.49057000  1.0 0.8158184304
C  C13  1  0.75943000  0.08195000  0.41585000  1.0 0.8158184304
C  C14  1  0.08195000  0.74277000  0.41585000  1.0 0.8146403402
C  C15  1  0.74277000  0.75943000  0.41585000  1.0 0.8158184304
C  C16  1  0.41585000  0.74277000  0.75943000  1.0 0.8158184304
C  C17  1  0.41585000  0.75943000  0.08195000  1.0 0.8146403402
C  C18  1  0.41585000  0.08195000  0.74277000  1.0 0.8158184304
C  C19  1  0.74277000  0.41585000  0.08195000  1.0 0.8158184304
C  C20  1  0.75943000  0.41585000  0.74277000  1.0 0.8158184304
C  C21  1  0.08195000  0.41585000  0.75943000  1.0 0.8158184304
C  C22  1  0.49057000  0.16805000  0.50723000  1.0 0.8158184304
C  C23  1  0.16805000  0.50723000  0.49057000  1.0 0.8158184304
C  C24  1  0.50723000  0.49057000  0.16805000  1.0 0.8158184304
C  C25  1  0.66805000  0.99057000  0.00723000  1.0 0.8158184304
C  C26  1  0.00723000  0.66805000  0.99057000  1.0 0.8158184304
C  C27  1  0.99057000  0.00723000  0.66805000  1.0 0.8158184304
C  C28  1  0.58195000  0.25943000  0.91585000  1.0 0.8158184304
C  C29  1  0.24277000  0.91585000  0.25943000  1.0 0.8146403402
C  C30  1  0.91585000  0.24277000  0.58195000  1.0 0.8158184304
C  C31  1  0.24277000  0.58195000  0.91585000  1.0 0.8158184304
C  C32  1  0.91585000  0.25943000  0.24277000  1.0 0.8158184304
C  C33  1  0.25943000  0.91585000  0.58195000  1.0 0.8146403402
C  C34  1  0.25943000  0.24277000  0.91585000  1.0 0.8158184304
C  C35  1  0.58195000  0.91585000  0.24277000  1.0 0.8158184304
C  C36  1  0.91585000  0.58195000  0.25943000  1.0 0.8158184304
C  C37  1  0.99057000  0.66805000  0.33415000  1.0 0.8158184304
C  C38  1  0.66805000  0.00723000  0.33415000  1.0 0.8158184304
C  C39  1  0.00723000  0.99057000  0.33415000  1.0 0.8158184304
C  C40  1  0.33415000  0.00723000  0.99057000  1.0 0.8158184304
C  C41  1  0.33415000  0.99057000  0.66805000  1.0 0.8146403402
C  C42  1  0.33415000  0.66805000  0.00723000  1.0 0.8146403402
C  C43  1  0.00723000  0.33415000  0.66805000  1.0 0.8146403402
C  C44  1  0.99057000  0.33415000  0.00723000  1.0 0.8158184304
C  C45  1  0.66805000  0.33415000  0.99057000  1.0 0.8158184304
C  C46  1  0.25943000  0.58195000  0.24277000  1.0 0.8158184304
C  C47  1  0.58195000  0.24277000  0.25943000  1.0 0.8158184304
C  C48  1  0.24277000  0.25943000  0.58195000  1.0 0.8158184304
C  C49  1  0.34190000  0.34190000  0.34190000  1.0 0.6619263708
C  C50  1  0.27570000  0.90810000  0.90810000  1.0 0.6619263708
C  C51  1  0.90810000  0.90810000  0.90810000  1.0 0.6619263708
C  C52  1  0.90810000  0.90810000  0.27570000  1.0 0.6619263708
C  C53  1  0.90810000  0.27570000  0.90810000  1.0 0.6619263708
C  C54  1  0.97430000  0.34190000  0.34190000  1.0 0.6619263708
C  C55  1  0.34190000  0.34190000  0.97430000  1.0 0.6619263708
C  C56  1  0.34190000  0.97430000  0.34190000  1.0 0.6619263708
C  C57  1  0.40810000  0.40810000  0.40810000  1.0 0.6619263708
C  C58  1  0.47430000  0.84190000  0.84190000  1.0 0.6619263708
C  C59  1  0.84190000  0.84190000  0.84190000  1.0 0.6619263708
C  C60  1  0.84190000  0.84190000  0.47430000  1.0 0.6619263708
C  C61  1  0.84190000  0.47430000  0.84190000  1.0 0.6619263708
C  C62  1  0.77570000  0.40810000  0.40810000  1.0 0.6619263708
C  C63  1  0.40810000  0.40810000  0.77570000  1.0 0.6619263708
C  C64  1  0.40810000  0.77570000  0.40810000  1.0 0.6619263708
C  C65  1  0.09180000  0.09180000  0.09180000  1.0 0.6619263708
C  C66  1  0.15820000  0.52540000  0.15820000  1.0 0.6619263708
C  C67  1  0.52540000  0.15820000  0.15820000  1.0 0.6619263708
C  C68  1  0.15820000  0.15820000  0.52540000  1.0 0.6619263708
C  C69  1  0.72460000  0.09180000  0.09180000  1.0 0.6619263708
C  C70  1  0.09180000  0.72460000  0.09180000  1.0 0.6619263708
C  C71  1  0.09180000  0.09180000  0.72460000  1.0 0.6619263708
C  C72  1  0.15820000  0.15820000  0.15820000  1.0 0.6619263708
C  C73  1  0.65820000  0.65820000  0.65820000  1.0 0.6619263708
C  C74  1  0.59180000  0.22460000  0.59180000  1.0 0.6619263708
C  C75  1  0.22460000  0.59180000  0.59180000  1.0 0.6619263708
C  C76  1  0.59180000  0.59180000  0.22460000  1.0 0.6619263708
C  C77  1  0.02540000  0.65820000  0.65820000  1.0 0.6619263708
C  C78  1  0.65820000  0.02540000  0.65820000  1.0 0.6619263708
C  C79  1  0.65820000  0.65820000  0.02540000  1.0 0.6619263708
C  C80  1  0.59180000  0.59180000  0.59180000  1.0 0.6619263708
N  N1  1  0.37519000  0.26677000  0.38219000  1.0 -0.6024562573
N  N2  1  0.38219000  0.37519000  0.26677000  1.0 -0.6024562573
N  N3  1  0.26677000  0.38219000  0.37519000  1.0 -0.6024562573
N  N4  1  0.27415000  0.86781000  0.87481000  1.0 -0.6024562573
N  N5  1  0.27415000  0.98323000  0.86781000  1.0 -0.6024562573
N  N6  1  0.27415000  0.87481000  0.98323000  1.0 -0.6024562573
N  N7  1  0.86781000  0.98323000  0.87481000  1.0 -0.6024562573
N  N8  1  0.98323000  0.87481000  0.86781000  1.0 -0.6024562573
N  N9  1  0.87481000  0.86781000  0.98323000  1.0 -0.6024562573
N  N10  1  0.98323000  0.86781000  0.27415000  1.0 -0.6024562573
N  N11  1  0.86781000  0.87481000  0.27415000  1.0 -0.6024562573
N  N12  1  0.87481000  0.98323000  0.27415000  1.0 -0.6024562573
N  N13  1  0.87481000  0.27415000  0.86781000  1.0 -0.6024562573
N  N14  1  0.86781000  0.27415000  0.98323000  1.0 -0.6024562573
N  N15  1  0.98323000  0.27415000  0.87481000  1.0 -0.6024562573
N  N16  1  0.97585000  0.26677000  0.37519000  1.0 -0.6024562573
N  N17  1  0.97585000  0.37519000  0.38219000  1.0 -0.6024562573
N  N18  1  0.97585000  0.38219000  0.26677000  1.0 -0.6024562573
N  N19  1  0.26677000  0.37519000  0.97585000  1.0 -0.6024562573
N  N20  1  0.38219000  0.26677000  0.97585000  1.0 -0.6024562573
N  N21  1  0.37519000  0.38219000  0.97585000  1.0 -0.6024562573
N  N22  1  0.37519000  0.97585000  0.26677000  1.0 -0.6024562573
N  N23  1  0.26677000  0.97585000  0.38219000  1.0 -0.6024562573
N  N24  1  0.38219000  0.97585000  0.37519000  1.0 -0.6024562573
N  N25  1  0.37481000  0.48323000  0.36781000  1.0 -0.6024562573
N  N26  1  0.36781000  0.37481000  0.48323000  1.0 -0.6024562573
N  N27  1  0.48323000  0.36781000  0.37481000  1.0 -0.6024562573
N  N28  1  0.47585000  0.88219000  0.87519000  1.0 -0.6024562573
N  N29  1  0.47585000  0.76677000  0.88219000  1.0 -0.6024562573
N  N30  1  0.47585000  0.87519000  0.76677000  1.0 -0.6024562573
N  N31  1  0.88219000  0.76677000  0.87519000  1.0 -0.6024562573
N  N32  1  0.76677000  0.87519000  0.88219000  1.0 -0.6024562573
N  N33  1  0.87519000  0.88219000  0.76677000  1.0 -0.6024562573
N  N34  1  0.76677000  0.88219000  0.47585000  1.0 -0.6024562573
N  N35  1  0.88219000  0.87519000  0.47585000  1.0 -0.6024562573
N  N36  1  0.87519000  0.76677000  0.47585000  1.0 -0.6024562573
N  N37  1  0.87519000  0.47585000  0.88219000  1.0 -0.6024562573
N  N38  1  0.88219000  0.47585000  0.76677000  1.0 -0.6024562573
N  N39  1  0.76677000  0.47585000  0.87519000  1.0 -0.6024562573
N  N40  1  0.77415000  0.48323000  0.37481000  1.0 -0.6024562573
N  N41  1  0.77415000  0.37481000  0.36781000  1.0 -0.6024562573
N  N42  1  0.77415000  0.36781000  0.48323000  1.0 -0.6024562573
N  N43  1  0.48323000  0.37481000  0.77415000  1.0 -0.6024562573
N  N44  1  0.36781000  0.48323000  0.77415000  1.0 -0.6024562573
N  N45  1  0.37481000  0.36781000  0.77415000  1.0 -0.6024562573
N  N46  1  0.37481000  0.77415000  0.48323000  1.0 -0.6024562573
N  N47  1  0.48323000  0.77415000  0.36781000  1.0 -0.6024562573
N  N48  1  0.36781000  0.77415000  0.37481000  1.0 -0.6024562573
N  N49  1  0.12497000  0.13279000  0.01653000  1.0 -0.6068260886
N  N50  1  0.13279000  0.01653000  0.12497000  1.0 -0.6068260886
N  N51  1  0.01653000  0.12497000  0.13279000  1.0 -0.6068260886
N  N52  1  0.23347000  0.52429000  0.11721000  1.0 -0.6068260886
N  N53  1  0.12503000  0.52429000  0.23347000  1.0 -0.6068260886
N  N54  1  0.11721000  0.52429000  0.12503000  1.0 -0.6068260886
N  N55  1  0.52429000  0.23347000  0.12503000  1.0 -0.6068260886
N  N56  1  0.52429000  0.12503000  0.11721000  1.0 -0.6068260886
N  N57  1  0.52429000  0.11721000  0.23347000  1.0 -0.6068260886
N  N58  1  0.12503000  0.11721000  0.52429000  1.0 -0.6068260886
N  N59  1  0.11721000  0.23347000  0.52429000  1.0 -0.6068260886
N  N60  1  0.23347000  0.12503000  0.52429000  1.0 -0.6068260886
N  N61  1  0.72571000  0.01653000  0.13279000  1.0 -0.6068260886
N  N62  1  0.72571000  0.12497000  0.01653000  1.0 -0.6068260886
N  N63  1  0.72571000  0.13279000  0.12497000  1.0 -0.6068260886
N  N64  1  0.01653000  0.72571000  0.12497000  1.0 -0.6068260886
N  N65  1  0.12497000  0.72571000  0.13279000  1.0 -0.6068260886
N  N66  1  0.13279000  0.72571000  0.01653000  1.0 -0.6068260886
N  N67  1  0.13279000  0.12497000  0.72571000  1.0 -0.6068260886
N  N68  1  0.01653000  0.13279000  0.72571000  1.0 -0.6068260886
N  N69  1  0.12497000  0.01653000  0.72571000  1.0 -0.6068260886
N  N70  1  0.11721000  0.12503000  0.23347000  1.0 -0.6068260886
N  N71  1  0.23347000  0.11721000  0.12503000  1.0 -0.6068260886
N  N72  1  0.12503000  0.23347000  0.11721000  1.0 -0.6068260886
N  N73  1  0.62503000  0.61721000  0.73347000  1.0 -0.6068260886
N  N74  1  0.61721000  0.73347000  0.62503000  1.0 -0.6068260886
N  N75  1  0.73347000  0.62503000  0.61721000  1.0 -0.6068260886
N  N76  1  0.51653000  0.22571000  0.63279000  1.0 -0.6068260886
N  N77  1  0.62497000  0.22571000  0.51653000  1.0 -0.6068260886
N  N78  1  0.63279000  0.22571000  0.62497000  1.0 -0.6068260886
N  N79  1  0.22571000  0.51653000  0.62497000  1.0 -0.6068260886
N  N80  1  0.22571000  0.62497000  0.63279000  1.0 -0.6068260886
N  N81  1  0.22571000  0.63279000  0.51653000  1.0 -0.6068260886
N  N82  1  0.62497000  0.63279000  0.22571000  1.0 -0.6068260886
N  N83  1  0.63279000  0.51653000  0.22571000  1.0 -0.6068260886
N  N84  1  0.51653000  0.62497000  0.22571000  1.0 -0.6068260886
N  N85  1  0.02429000  0.73347000  0.61721000  1.0 -0.6068260886
N  N86  1  0.02429000  0.62503000  0.73347000  1.0 -0.6068260886
N  N87  1  0.02429000  0.61721000  0.62503000  1.0 -0.6068260886
N  N88  1  0.73347000  0.02429000  0.62503000  1.0 -0.6068260886
N  N89  1  0.62503000  0.02429000  0.61721000  1.0 -0.6068260886
N  N90  1  0.61721000  0.02429000  0.73347000  1.0 -0.6068260886
N  N91  1  0.61721000  0.62503000  0.02429000  1.0 -0.6068260886
N  N92  1  0.73347000  0.61721000  0.02429000  1.0 -0.6068260886
N  N93  1  0.62503000  0.73347000  0.02429000  1.0 -0.6068260886
N  N94  1  0.63279000  0.62497000  0.51653000  1.0 -0.6068260886
N  N95  1  0.51653000  0.63279000  0.62497000  1.0 -0.6068260886
N  N96  1  0.62497000  0.51653000  0.63279000  1.0 -0.6068260886
O  O1  1  0.32280000  0.67720000  0.67720000  1.0 -0.5031258584
O  O2  1  0.67720000  0.32280000  0.67720000  1.0 -0.5031258584
O  O3  1  0.67720000  0.67720000  0.32280000  1.0 -0.5066133469
O  O4  1  0.92720000  0.57280000  0.92720000  1.0 -0.5031258584
O  O5  1  0.57280000  0.92720000  0.57280000  1.0 -0.5031258584
O  O6  1  0.57280000  0.92720000  0.92720000  1.0 -0.5031258584
O  O7  1  0.92720000  0.57280000  0.57280000  1.0 -0.5031258584
O  O8  1  0.57280000  0.57280000  0.92720000  1.0 -0.5031258584
O  O9  1  0.92720000  0.92720000  0.57280000  1.0 -0.5031258584
O  O10  1  0.67720000  0.32280000  0.32280000  1.0 -0.5031258584
O  O11  1  0.32280000  0.67720000  0.32280000  1.0 -0.5031258584
O  O12  1  0.32280000  0.32280000  0.67720000  1.0 -0.5031258584
O  O13  1  0.42720000  0.07280000  0.07280000  1.0 -0.5066133469
O  O14  1  0.07280000  0.42720000  0.07280000  1.0 -0.5066133469
O  O15  1  0.07280000  0.07280000  0.42720000  1.0 -0.5031258584
O  O16  1  0.82280000  0.17720000  0.82280000  1.0 -0.5031258584
O  O17  1  0.17720000  0.82280000  0.17720000  1.0 -0.5031258584
O  O18  1  0.17720000  0.82280000  0.82280000  1.0 -0.5031258584
O  O19  1  0.82280000  0.17720000  0.17720000  1.0 -0.5066133469
O  O20  1  0.17720000  0.17720000  0.82280000  1.0 -0.5031258584
O  O21  1  0.82280000  0.82280000  0.17720000  1.0 -0.5031258584
O  O22  1  0.07280000  0.42720000  0.42720000  1.0 -0.5031258584
O  O23  1  0.42720000  0.07280000  0.42720000  1.0 -0.5031258584
O  O24  1  0.42720000  0.42720000  0.07280000  1.0 -0.5031258584
O  O25  1  0.04327000  0.80671000  0.69263000  1.0 -0.6606473729
O  O26  1  0.69263000  0.04327000  0.80671000  1.0 -0.6606473729
O  O27  1  0.80671000  0.69263000  0.04327000  1.0 -0.6606473729
O  O28  1  0.20673000  0.44329000  0.79261000  1.0 -0.6606473729
O  O29  1  0.55737000  0.79261000  0.44329000  1.0 -0.6606473729
O  O30  1  0.79261000  0.55737000  0.20673000  1.0 -0.6606473729
O  O31  1  0.55737000  0.20673000  0.79261000  1.0 -0.6606473729
O  O32  1  0.79261000  0.44329000  0.55737000  1.0 -0.6606473729
O  O33  1  0.44329000  0.79261000  0.20673000  1.0 -0.6606473729
O  O34  1  0.44329000  0.55737000  0.79261000  1.0 -0.6606473729
O  O35  1  0.20673000  0.79261000  0.55737000  1.0 -0.6606473729
O  O36  1  0.79261000  0.20673000  0.44329000  1.0 -0.6606473729
O  O37  1  0.80671000  0.04327000  0.45739000  1.0 -0.6606473729
O  O38  1  0.04327000  0.69263000  0.45739000  1.0 -0.6606473729
O  O39  1  0.69263000  0.80671000  0.45739000  1.0 -0.6606473729
O  O40  1  0.45739000  0.69263000  0.80671000  1.0 -0.6606473729
O  O41  1  0.45739000  0.80671000  0.04327000  1.0 -0.6606473729
O  O42  1  0.45739000  0.04327000  0.69263000  1.0 -0.6606473729
O  O43  1  0.69263000  0.45739000  0.04327000  1.0 -0.6606473729
O  O44  1  0.80671000  0.45739000  0.69263000  1.0 -0.6606473729
O  O45  1  0.04327000  0.45739000  0.80671000  1.0 -0.6606473729
O  O46  1  0.44329000  0.20673000  0.55737000  1.0 -0.6606473729
O  O47  1  0.20673000  0.55737000  0.44329000  1.0 -0.6606473729
O  O48  1  0.55737000  0.44329000  0.20673000  1.0 -0.6606473729
O  O49  1  0.70673000  0.94329000  0.05737000  1.0 -0.6606473729
O  O50  1  0.05737000  0.70673000  0.94329000  1.0 -0.6606473729
O  O51  1  0.94329000  0.05737000  0.70673000  1.0 -0.6606473729
O  O52  1  0.54327000  0.30671000  0.95739000  1.0 -0.6606473729
O  O53  1  0.19263000  0.95739000  0.30671000  1.0 -0.6606473729
O  O54  1  0.95739000  0.19263000  0.54327000  1.0 -0.6606473729
O  O55  1  0.19263000  0.54327000  0.95739000  1.0 -0.6606473729
O  O56  1  0.95739000  0.30671000  0.19263000  1.0 -0.6606473729
O  O57  1  0.30671000  0.95739000  0.54327000  1.0 -0.6606473729
O  O58  1  0.30671000  0.19263000  0.95739000  1.0 -0.6606473729
O  O59  1  0.54327000  0.95739000  0.19263000  1.0 -0.6606473729
O  O60  1  0.95739000  0.54327000  0.30671000  1.0 -0.6606473729
O  O61  1  0.94329000  0.70673000  0.29261000  1.0 -0.6606473729
O  O62  1  0.70673000  0.05737000  0.29261000  1.0 -0.6606473729
O  O63  1  0.05737000  0.94329000  0.29261000  1.0 -0.6606473729
O  O64  1  0.29261000  0.05737000  0.94329000  1.0 -0.6606473729
O  O65  1  0.29261000  0.94329000  0.70673000  1.0 -0.6606473729
O  O66  1  0.29261000  0.70673000  0.05737000  1.0 -0.6606473729
O  O67  1  0.05737000  0.29261000  0.70673000  1.0 -0.6606473729
O  O68  1  0.94329000  0.29261000  0.05737000  1.0 -0.6606473729
O  O69  1  0.70673000  0.29261000  0.94329000  1.0 -0.6606473729
O  O70  1  0.30671000  0.54327000  0.19263000  1.0 -0.6606473729
O  O71  1  0.54327000  0.19263000  0.30671000  1.0 -0.6606473729
O  O72  1  0.19263000  0.30671000  0.54327000  1.0 -0.6606473729
O  O73  1  0.06043000  0.69985000  0.80025000  1.0 -0.683682256
O  O74  1  0.80025000  0.06043000  0.69985000  1.0 -0.683682256
O  O75  1  0.69985000  0.80025000  0.06043000  1.0 -0.683682256
O  O76  1  0.18957000  0.55015000  0.81053000  1.0 -0.683682256
O  O77  1  0.44975000  0.81053000  0.55015000  1.0 -0.683682256
O  O78  1  0.81053000  0.44975000  0.18957000  1.0 -0.683682256
O  O79  1  0.44975000  0.18957000  0.81053000  1.0 -0.683682256
O  O80  1  0.81053000  0.55015000  0.44975000  1.0 -0.683682256
O  O81  1  0.55015000  0.81053000  0.18957000  1.0 -0.683682256
O  O82  1  0.55015000  0.44975000  0.81053000  1.0 -0.683682256
O  O83  1  0.18957000  0.81053000  0.44975000  1.0 -0.683682256
O  O84  1  0.81053000  0.18957000  0.55015000  1.0 -0.683682256
O  O85  1  0.69985000  0.06043000  0.43947000  1.0 -0.683682256
O  O86  1  0.06043000  0.80025000  0.43947000  1.0 -0.683682256
O  O87  1  0.80025000  0.69985000  0.43947000  1.0 -0.683682256
O  O88  1  0.43947000  0.80025000  0.69985000  1.0 -0.683682256
O  O89  1  0.43947000  0.69985000  0.06043000  1.0 -0.683682256
O  O90  1  0.43947000  0.06043000  0.80025000  1.0 -0.683682256
O  O91  1  0.80025000  0.43947000  0.06043000  1.0 -0.683682256
O  O92  1  0.69985000  0.43947000  0.80025000  1.0 -0.683682256
O  O93  1  0.06043000  0.43947000  0.69985000  1.0 -0.683682256
O  O94  1  0.55015000  0.18957000  0.44975000  1.0 -0.683682256
O  O95  1  0.18957000  0.44975000  0.55015000  1.0 -0.683682256
O  O96  1  0.44975000  0.55015000  0.18957000  1.0 -0.683682256
O  O97  1  0.68957000  0.05015000  0.94975000  1.0 -0.683682256
O  O98  1  0.94975000  0.68957000  0.05015000  1.0 -0.683682256
O  O99  1  0.05015000  0.94975000  0.68957000  1.0 -0.683682256
O  O100  1  0.56043000  0.19985000  0.93947000  1.0 -0.683682256
O  O101  1  0.30025000  0.93947000  0.19985000  1.0 -0.683682256
O  O102  1  0.93947000  0.30025000  0.56043000  1.0 -0.683682256
O  O103  1  0.30025000  0.56043000  0.93947000  1.0 -0.683682256
O  O104  1  0.93947000  0.19985000  0.30025000  1.0 -0.683682256
O  O105  1  0.19985000  0.93947000  0.56043000  1.0 -0.683682256
O  O106  1  0.19985000  0.30025000  0.93947000  1.0 -0.683682256
O  O107  1  0.56043000  0.93947000  0.30025000  1.0 -0.683682256
O  O108  1  0.93947000  0.56043000  0.19985000  1.0 -0.683682256
O  O109  1  0.05015000  0.68957000  0.31053000  1.0 -0.683682256
O  O110  1  0.68957000  0.94975000  0.31053000  1.0 -0.683682256
O  O111  1  0.94975000  0.05015000  0.31053000  1.0 -0.683682256
O  O112  1  0.31053000  0.94975000  0.05015000  1.0 -0.683682256
O  O113  1  0.31053000  0.05015000  0.68957000  1.0 -0.683682256
O  O114  1  0.31053000  0.68957000  0.94975000  1.0 -0.683682256
O  O115  1  0.94975000  0.31053000  0.68957000  1.0 -0.683682256
O  O116  1  0.05015000  0.31053000  0.94975000  1.0 -0.683682256
O  O117  1  0.68957000  0.31053000  0.05015000  1.0 -0.683682256
O  O118  1  0.19985000  0.56043000  0.30025000  1.0 -0.683682256
O  O119  1  0.56043000  0.30025000  0.19985000  1.0 -0.683682256
O  O120  1  0.30025000  0.19985000  0.56043000  1.0 -0.683682256
O  O121  1  0.14067000  0.77371000  0.73209000  1.0 -0.6717010494
O  O122  1  0.73209000  0.14067000  0.77371000  1.0 -0.6717010494
O  O123  1  0.77371000  0.73209000  0.14067000  1.0 -0.6717010494
O  O124  1  0.10933000  0.47629000  0.89647000  1.0 -0.6717010494
O  O125  1  0.51791000  0.89647000  0.47629000  1.0 -0.6717010494
O  O126  1  0.89647000  0.51791000  0.10933000  1.0 -0.6717010494
O  O127  1  0.51791000  0.10933000  0.89647000  1.0 -0.6717010494
O  O128  1  0.89647000  0.47629000  0.51791000  1.0 -0.6717010494
O  O129  1  0.47629000  0.89647000  0.10933000  1.0 -0.6717010494
O  O130  1  0.47629000  0.51791000  0.89647000  1.0 -0.6717010494
O  O131  1  0.10933000  0.89647000  0.51791000  1.0 -0.6717010494
O  O132  1  0.89647000  0.10933000  0.47629000  1.0 -0.6717010494
O  O133  1  0.77371000  0.14067000  0.35353000  1.0 -0.6717010494
O  O134  1  0.14067000  0.73209000  0.35353000  1.0 -0.6717010494
O  O135  1  0.73209000  0.77371000  0.35353000  1.0 -0.6717010494
O  O136  1  0.35353000  0.73209000  0.77371000  1.0 -0.6717010494
O  O137  1  0.35353000  0.77371000  0.14067000  1.0 -0.6717010494
O  O138  1  0.35353000  0.14067000  0.73209000  1.0 -0.6717010494
O  O139  1  0.73209000  0.35353000  0.14067000  1.0 -0.6717010494
O  O140  1  0.77371000  0.35353000  0.73209000  1.0 -0.6717010494
O  O141  1  0.14067000  0.35353000  0.77371000  1.0 -0.6717010494
O  O142  1  0.47629000  0.10933000  0.51791000  1.0 -0.6717010494
O  O143  1  0.10933000  0.51791000  0.47629000  1.0 -0.6717010494
O  O144  1  0.51791000  0.47629000  0.10933000  1.0 -0.6717010494
O  O145  1  0.60933000  0.97629000  0.01791000  1.0 -0.6717010494
O  O146  1  0.01791000  0.60933000  0.97629000  1.0 -0.6717010494
O  O147  1  0.97629000  0.01791000  0.60933000  1.0 -0.6717010494
O  O148  1  0.64067000  0.27371000  0.85353000  1.0 -0.6717010494
O  O149  1  0.23209000  0.85353000  0.27371000  1.0 -0.6717010494
O  O150  1  0.85353000  0.23209000  0.64067000  1.0 -0.6717010494
O  O151  1  0.23209000  0.64067000  0.85353000  1.0 -0.6717010494
O  O152  1  0.85353000  0.27371000  0.23209000  1.0 -0.6717010494
O  O153  1  0.27371000  0.85353000  0.64067000  1.0 -0.6717010494
O  O154  1  0.27371000  0.23209000  0.85353000  1.0 -0.6717010494
O  O155  1  0.64067000  0.85353000  0.23209000  1.0 -0.6717010494
O  O156  1  0.85353000  0.64067000  0.27371000  1.0 -0.6717010494
O  O157  1  0.97629000  0.60933000  0.39647000  1.0 -0.6717010494
O  O158  1  0.60933000  0.01791000  0.39647000  1.0 -0.6717010494
O  O159  1  0.01791000  0.97629000  0.39647000  1.0 -0.6717010494
O  O160  1  0.39647000  0.01791000  0.97629000  1.0 -0.6717010494
O  O161  1  0.39647000  0.97629000  0.60933000  1.0 -0.6717010494
O  O162  1  0.39647000  0.60933000  0.01791000  1.0 -0.6717010494
O  O163  1  0.01791000  0.39647000  0.60933000  1.0 -0.6717010494
O  O164  1  0.97629000  0.39647000  0.01791000  1.0 -0.6717010494
O  O165  1  0.60933000  0.39647000  0.97629000  1.0 -0.6717010494
O  O166  1  0.27371000  0.64067000  0.23209000  1.0 -0.6717010494
O  O167  1  0.64067000  0.23209000  0.27371000  1.0 -0.6717010494
O  O168  1  0.23209000  0.27371000  0.64067000  1.0 -0.6717010494
