# DDEC6 charges by PACMAN v1.1 (https://github.com/mtap-research/PACMAN-charge/)
data_IWAYUA_ion_pacman
_symmetry_space_group_name_H-M   'P 1'
_cell_length_a   20.34910000
_cell_length_b   20.34910000
_cell_length_c   20.34910000
_cell_angle_alpha   60.00000000
_cell_angle_beta   60.00000000
_cell_angle_gamma   60.00000000
_symmetry_Int_Tables_number   1
_chemical_formula_structural   Na3Ni6H48C20(N4O7)6
_chemical_formula_sum   'Na12 Ni24 H192 C80 N96 O168'
_cell_volume   5958.27604677
_cell_formula_units_Z   4
loop_
 _symmetry_equiv_pos_site_id
 _symmetry_equiv_pos_as_xyz
  1  'x, y, z'
loop_
 _atom_site_type_symbol
 _atom_site_label
 _atom_site_symmetry_multiplicity
 _atom_site_fract_x
 _atom_site_fract_y
 _atom_site_fract_z
 _atom_site_occupancy
 _atom_site_charge
Na  Na1  1  0.00000000  0.00000000  0.50000000  1.0 0.8927092152
Na  Na2  1  0.50000000  0.00000000  0.00000000  1.0 0.8927092152
Na  Na3  1  0.00000000  0.50000000  0.00000000  1.0 0.8927092152
Na  Na4  1  0.25000000  0.25000000  0.75000000  1.0 0.8927092152
Na  Na5  1  0.75000000  0.75000000  0.25000000  1.0 0.8927092152
Na  Na6  1  0.75000000  0.25000000  0.75000000  1.0 0.8927092152
Na  Na7  1  0.25000000  0.75000000  0.25000000  1.0 0.8927092152
Na  Na8  1  0.25000000  0.75000000  0.75000000  1.0 0.8927092152
Na  Na9  1  0.75000000  0.25000000  0.25000000  1.0 0.8927092152
Na  Na10  1  0.00000000  0.50000000  0.50000000  1.0 0.8927092152
Na  Na11  1  0.50000000  0.00000000  0.50000000  1.0 0.8927092152
Na  Na12  1  0.50000000  0.50000000  0.00000000  1.0 0.8927092152
Ni  Ni1  1  0.12500000  0.87116000  0.62500000  1.0 0.8668342578
Ni  Ni2  1  0.62500000  0.12500000  0.87116000  1.0 0.8668342578
Ni  Ni3  1  0.87116000  0.62500000  0.12500000  1.0 0.8668342578
Ni  Ni4  1  0.12500000  0.37884000  0.87116000  1.0 0.8668342578
Ni  Ni5  1  0.62500000  0.87116000  0.37884000  1.0 0.8668342578
Ni  Ni6  1  0.87116000  0.37884000  0.62500000  1.0 0.8668342578
Ni  Ni7  1  0.37884000  0.87116000  0.12500000  1.0 0.8668342578
Ni  Ni8  1  0.37884000  0.62500000  0.87116000  1.0 0.8668342578
Ni  Ni9  1  0.87116000  0.12500000  0.37884000  1.0 0.8668342578
Ni  Ni10  1  0.12500000  0.62500000  0.37884000  1.0 0.8668342578
Ni  Ni11  1  0.37884000  0.12500000  0.62500000  1.0 0.8668342578
Ni  Ni12  1  0.62500000  0.37884000  0.12500000  1.0 0.8668342578
Ni  Ni13  1  0.62500000  0.87884000  0.12500000  1.0 0.8668342578
Ni  Ni14  1  0.12500000  0.62500000  0.87884000  1.0 0.8668342578
Ni  Ni15  1  0.87884000  0.12500000  0.62500000  1.0 0.8668342578
Ni  Ni16  1  0.62500000  0.37116000  0.87884000  1.0 0.8668342578
Ni  Ni17  1  0.12500000  0.87884000  0.37116000  1.0 0.8668342578
Ni  Ni18  1  0.87884000  0.37116000  0.12500000  1.0 0.8668342578
Ni  Ni19  1  0.37116000  0.87884000  0.62500000  1.0 0.8668342578
Ni  Ni20  1  0.37116000  0.12500000  0.87884000  1.0 0.8668342578
Ni  Ni21  1  0.87884000  0.62500000  0.37116000  1.0 0.8668342578
Ni  Ni22  1  0.62500000  0.12500000  0.37116000  1.0 0.8668342578
Ni  Ni23  1  0.37116000  0.62500000  0.12500000  1.0 0.8668342578
Ni  Ni24  1  0.12500000  0.37116000  0.62500000  1.0 0.8668342578
H  H1  1  0.68330000  0.59610000  0.49550000  1.0 0.3344394015
H  H2  1  0.49550000  0.68330000  0.59610000  1.0 0.3344394015
H  H3  1  0.59610000  0.49550000  0.68330000  1.0 0.3344394015
H  H4  1  0.61470000  0.67330000  0.48910000  1.0 0.336764551
H  H5  1  0.48910000  0.61470000  0.67330000  1.0 0.336764551
H  H6  1  0.67330000  0.48910000  0.61470000  1.0 0.336764551
H  H7  1  0.75450000  0.56670000  0.02490000  1.0 0.3344394015
H  H8  1  0.65390000  0.75450000  0.02490000  1.0 0.3344394015
H  H9  1  0.56670000  0.65390000  0.02490000  1.0 0.3344394015
H  H10  1  0.76090000  0.63530000  0.02710000  1.0 0.336764551
H  H11  1  0.57670000  0.76090000  0.02710000  1.0 0.336764551
H  H12  1  0.63530000  0.57670000  0.02710000  1.0 0.336764551
H  H13  1  0.75450000  0.02490000  0.65390000  1.0 0.3344394015
H  H14  1  0.56670000  0.02490000  0.75450000  1.0 0.3344394015
H  H15  1  0.65390000  0.02490000  0.56670000  1.0 0.3344394015
H  H16  1  0.76090000  0.02710000  0.57670000  1.0 0.336764551
H  H17  1  0.63530000  0.02710000  0.76090000  1.0 0.336764551
H  H18  1  0.57670000  0.02710000  0.63530000  1.0 0.336764551
H  H19  1  0.02490000  0.75450000  0.56670000  1.0 0.336764551
H  H20  1  0.02490000  0.65390000  0.75450000  1.0 0.3344394015
H  H21  1  0.02490000  0.56670000  0.65390000  1.0 0.336764551
H  H22  1  0.02710000  0.76090000  0.63530000  1.0 0.336764551
H  H23  1  0.02710000  0.57670000  0.76090000  1.0 0.336764551
H  H24  1  0.02710000  0.63530000  0.57670000  1.0 0.336764551
H  H25  1  0.65390000  0.56670000  0.75450000  1.0 0.3344394015
H  H26  1  0.56670000  0.75450000  0.65390000  1.0 0.3344394015
H  H27  1  0.75450000  0.65390000  0.56670000  1.0 0.3344394015
H  H28  1  0.57670000  0.63530000  0.76090000  1.0 0.336764551
H  H29  1  0.63530000  0.76090000  0.57670000  1.0 0.336764551
H  H30  1  0.76090000  0.57670000  0.63530000  1.0 0.336764551
H  H31  1  0.68330000  0.22510000  0.59610000  1.0 0.3344394015
H  H32  1  0.59610000  0.22510000  0.49550000  1.0 0.3344394015
H  H33  1  0.49550000  0.22510000  0.68330000  1.0 0.3344394015
H  H34  1  0.61470000  0.22290000  0.67330000  1.0 0.336764551
H  H35  1  0.67330000  0.22290000  0.48910000  1.0 0.336764551
H  H36  1  0.48910000  0.22290000  0.61470000  1.0 0.336764551
H  H37  1  0.22510000  0.59610000  0.68330000  1.0 0.336764551
H  H38  1  0.22510000  0.68330000  0.49550000  1.0 0.3344394015
H  H39  1  0.22510000  0.49550000  0.59610000  1.0 0.3344394015
H  H40  1  0.22290000  0.67330000  0.61470000  1.0 0.336764551
H  H41  1  0.22290000  0.61470000  0.48910000  1.0 0.336764551
H  H42  1  0.22290000  0.48910000  0.67330000  1.0 0.336764551
H  H43  1  0.59610000  0.68330000  0.22510000  1.0 0.3344394015
H  H44  1  0.49550000  0.59610000  0.22510000  1.0 0.3344394015
H  H45  1  0.68330000  0.49550000  0.22510000  1.0 0.3344394015
H  H46  1  0.67330000  0.61470000  0.22290000  1.0 0.336764551
H  H47  1  0.48910000  0.67330000  0.22290000  1.0 0.336764551
H  H48  1  0.61470000  0.48910000  0.22290000  1.0 0.336764551
H  H49  1  0.06670000  0.15390000  0.25450000  1.0 0.3344394015
H  H50  1  0.25450000  0.06670000  0.15390000  1.0 0.3344394015
H  H51  1  0.15390000  0.25450000  0.06670000  1.0 0.3344394015
H  H52  1  0.13530000  0.07670000  0.26090000  1.0 0.336764551
H  H53  1  0.26090000  0.13530000  0.07670000  1.0 0.336764551
H  H54  1  0.07670000  0.26090000  0.13530000  1.0 0.336764551
H  H55  1  0.99550000  0.18330000  0.72510000  1.0 0.3344394015
H  H56  1  0.09610000  0.99550000  0.72510000  1.0 0.3344394015
H  H57  1  0.18330000  0.09610000  0.72510000  1.0 0.3344394015
H  H58  1  0.98910000  0.11470000  0.72290000  1.0 0.336764551
H  H59  1  0.17330000  0.98910000  0.72290000  1.0 0.336764551
H  H60  1  0.11470000  0.17330000  0.72290000  1.0 0.336764551
H  H61  1  0.99550000  0.72510000  0.09610000  1.0 0.3344394015
H  H62  1  0.18330000  0.72510000  0.99550000  1.0 0.3344394015
H  H63  1  0.09610000  0.72510000  0.18330000  1.0 0.336764551
H  H64  1  0.98910000  0.72290000  0.17330000  1.0 0.336764551
H  H65  1  0.11470000  0.72290000  0.98910000  1.0 0.336764551
H  H66  1  0.17330000  0.72290000  0.11470000  1.0 0.336764551
H  H67  1  0.72510000  0.99550000  0.18330000  1.0 0.3344394015
H  H68  1  0.72510000  0.09610000  0.99550000  1.0 0.3344394015
H  H69  1  0.72510000  0.18330000  0.09610000  1.0 0.3344394015
H  H70  1  0.72290000  0.98910000  0.11470000  1.0 0.336764551
H  H71  1  0.72290000  0.17330000  0.98910000  1.0 0.336764551
H  H72  1  0.72290000  0.11470000  0.17330000  1.0 0.336764551
H  H73  1  0.09610000  0.18330000  0.99550000  1.0 0.3344394015
H  H74  1  0.18330000  0.99550000  0.09610000  1.0 0.3344394015
H  H75  1  0.99550000  0.09610000  0.18330000  1.0 0.3344394015
H  H76  1  0.17330000  0.11470000  0.98910000  1.0 0.336764551
H  H77  1  0.11470000  0.98910000  0.17330000  1.0 0.336764551
H  H78  1  0.98910000  0.17330000  0.11470000  1.0 0.336764551
H  H79  1  0.06670000  0.52490000  0.15390000  1.0 0.336764551
H  H80  1  0.15390000  0.52490000  0.25450000  1.0 0.3344394015
H  H81  1  0.25450000  0.52490000  0.06670000  1.0 0.3344394015
H  H82  1  0.13530000  0.52710000  0.07670000  1.0 0.336764551
H  H83  1  0.07670000  0.52710000  0.26090000  1.0 0.336764551
H  H84  1  0.26090000  0.52710000  0.13530000  1.0 0.336764551
H  H85  1  0.52490000  0.15390000  0.06670000  1.0 0.3344394015
H  H86  1  0.52490000  0.06670000  0.25450000  1.0 0.3344394015
H  H87  1  0.52490000  0.25450000  0.15390000  1.0 0.3344394015
H  H88  1  0.52710000  0.07670000  0.13530000  1.0 0.336764551
H  H89  1  0.52710000  0.13530000  0.26090000  1.0 0.336764551
H  H90  1  0.52710000  0.26090000  0.07670000  1.0 0.336764551
H  H91  1  0.15390000  0.06670000  0.52490000  1.0 0.3344394015
H  H92  1  0.25450000  0.15390000  0.52490000  1.0 0.3344394015
H  H93  1  0.06670000  0.25450000  0.52490000  1.0 0.3344394015
H  H94  1  0.07670000  0.13530000  0.52710000  1.0 0.336764551
H  H95  1  0.26090000  0.07670000  0.52710000  1.0 0.336764551
H  H96  1  0.13530000  0.26090000  0.52710000  1.0 0.336764551
H  H97  1  0.36150000  0.42410000  0.23950000  1.0 0.336764551
H  H98  1  0.42410000  0.23950000  0.36150000  1.0 0.336764551
H  H99  1  0.23950000  0.36150000  0.42410000  1.0 0.336764551
H  H100  1  0.43250000  0.34890000  0.24490000  1.0 0.336764551
H  H101  1  0.34890000  0.24490000  0.43250000  1.0 0.336764551
H  H102  1  0.24490000  0.43250000  0.34890000  1.0 0.336764551
H  H103  1  0.01050000  0.27510000  0.82590000  1.0 0.336764551
H  H104  1  0.88850000  0.27510000  0.01050000  1.0 0.336764551
H  H105  1  0.82590000  0.27510000  0.88850000  1.0 0.336764551
H  H106  1  0.00510000  0.27630000  0.90110000  1.0 0.336764551
H  H107  1  0.81750000  0.27630000  0.00510000  1.0 0.336764551
H  H108  1  0.90110000  0.27630000  0.81750000  1.0 0.336764551
H  H109  1  0.27510000  0.01050000  0.88850000  1.0 0.336764551
H  H110  1  0.27510000  0.88850000  0.82590000  1.0 0.336764551
H  H111  1  0.27510000  0.82590000  0.01050000  1.0 0.336764551
H  H112  1  0.27630000  0.00510000  0.81750000  1.0 0.336764551
H  H113  1  0.27630000  0.81750000  0.90110000  1.0 0.336764551
H  H114  1  0.27630000  0.90110000  0.00510000  1.0 0.336764551
H  H115  1  0.88850000  0.82590000  0.27510000  1.0 0.336764551
H  H116  1  0.82590000  0.01050000  0.27510000  1.0 0.336764551
H  H117  1  0.01050000  0.88850000  0.27510000  1.0 0.336764551
H  H118  1  0.81750000  0.90110000  0.27630000  1.0 0.336764551
H  H119  1  0.90110000  0.00510000  0.27630000  1.0 0.336764551
H  H120  1  0.00510000  0.81750000  0.27630000  1.0 0.336764551
H  H121  1  0.97490000  0.23950000  0.42410000  1.0 0.336764551
H  H122  1  0.97490000  0.36150000  0.23950000  1.0 0.336764551
H  H123  1  0.97490000  0.42410000  0.36150000  1.0 0.336764551
H  H124  1  0.97370000  0.24490000  0.34890000  1.0 0.336764551
H  H125  1  0.97370000  0.43250000  0.24490000  1.0 0.336764551
H  H126  1  0.97370000  0.34890000  0.43250000  1.0 0.336764551
H  H127  1  0.23950000  0.97490000  0.36150000  1.0 0.336764551
H  H128  1  0.36150000  0.97490000  0.42410000  1.0 0.336764551
H  H129  1  0.42410000  0.97490000  0.23950000  1.0 0.336764551
H  H130  1  0.24490000  0.97370000  0.43250000  1.0 0.336764551
H  H131  1  0.43250000  0.97370000  0.34890000  1.0 0.336764551
H  H132  1  0.34890000  0.97370000  0.24490000  1.0 0.336764551
H  H133  1  0.42410000  0.36150000  0.97490000  1.0 0.336764551
H  H134  1  0.23950000  0.42410000  0.97490000  1.0 0.336764551
H  H135  1  0.36150000  0.23950000  0.97490000  1.0 0.336764551
H  H136  1  0.34890000  0.43250000  0.97370000  1.0 0.336764551
H  H137  1  0.24490000  0.34890000  0.97370000  1.0 0.336764551
H  H138  1  0.43250000  0.24490000  0.97370000  1.0 0.336764551
H  H139  1  0.82590000  0.88850000  0.01050000  1.0 0.336764551
H  H140  1  0.01050000  0.82590000  0.88850000  1.0 0.336764551
H  H141  1  0.88850000  0.01050000  0.82590000  1.0 0.336764551
H  H142  1  0.90110000  0.81750000  0.00510000  1.0 0.336764551
H  H143  1  0.00510000  0.90110000  0.81750000  1.0 0.336764551
H  H144  1  0.81750000  0.00510000  0.90110000  1.0 0.336764551
H  H145  1  0.38850000  0.32590000  0.51050000  1.0 0.336764551
H  H146  1  0.32590000  0.51050000  0.38850000  1.0 0.336764551
H  H147  1  0.51050000  0.38850000  0.32590000  1.0 0.336764551
H  H148  1  0.31750000  0.40110000  0.50510000  1.0 0.336764551
H  H149  1  0.40110000  0.50510000  0.31750000  1.0 0.336764551
H  H150  1  0.50510000  0.31750000  0.40110000  1.0 0.336764551
H  H151  1  0.73950000  0.47490000  0.92410000  1.0 0.336764551
H  H152  1  0.86150000  0.47490000  0.73950000  1.0 0.336764551
H  H153  1  0.92410000  0.47490000  0.86150000  1.0 0.336764551
H  H154  1  0.74490000  0.47370000  0.84890000  1.0 0.336764551
H  H155  1  0.93250000  0.47370000  0.74490000  1.0 0.336764551
H  H156  1  0.84890000  0.47370000  0.93250000  1.0 0.336764551
H  H157  1  0.47490000  0.73950000  0.86150000  1.0 0.336764551
H  H158  1  0.47490000  0.86150000  0.92410000  1.0 0.336764551
H  H159  1  0.47490000  0.92410000  0.73950000  1.0 0.336764551
H  H160  1  0.47370000  0.74490000  0.93250000  1.0 0.336764551
H  H161  1  0.47370000  0.93250000  0.84890000  1.0 0.336764551
H  H162  1  0.47370000  0.84890000  0.74490000  1.0 0.336764551
H  H163  1  0.86150000  0.92410000  0.47490000  1.0 0.336764551
H  H164  1  0.92410000  0.73950000  0.47490000  1.0 0.336764551
H  H165  1  0.73950000  0.86150000  0.47490000  1.0 0.336764551
H  H166  1  0.93250000  0.84890000  0.47370000  1.0 0.336764551
H  H167  1  0.84890000  0.74490000  0.47370000  1.0 0.336764551
H  H168  1  0.74490000  0.93250000  0.47370000  1.0 0.336764551
H  H169  1  0.77510000  0.51050000  0.32590000  1.0 0.336764551
H  H170  1  0.77510000  0.38850000  0.51050000  1.0 0.336764551
H  H171  1  0.77510000  0.32590000  0.38850000  1.0 0.336764551
H  H172  1  0.77630000  0.50510000  0.40110000  1.0 0.3344394015
H  H173  1  0.77630000  0.31750000  0.50510000  1.0 0.336764551
H  H174  1  0.77630000  0.40110000  0.31750000  1.0 0.336764551
H  H175  1  0.51050000  0.77510000  0.38850000  1.0 0.336764551
H  H176  1  0.38850000  0.77510000  0.32590000  1.0 0.336764551
H  H177  1  0.32590000  0.77510000  0.51050000  1.0 0.336764551
H  H178  1  0.50510000  0.77630000  0.31750000  1.0 0.336764551
H  H179  1  0.31750000  0.77630000  0.40110000  1.0 0.336764551
H  H180  1  0.40110000  0.77630000  0.50510000  1.0 0.336764551
H  H181  1  0.32590000  0.38850000  0.77510000  1.0 0.336764551
H  H182  1  0.51050000  0.32590000  0.77510000  1.0 0.336764551
H  H183  1  0.38850000  0.51050000  0.77510000  1.0 0.336764551
H  H184  1  0.40110000  0.31750000  0.77630000  1.0 0.336764551
H  H185  1  0.50510000  0.40110000  0.77630000  1.0 0.336764551
H  H186  1  0.31750000  0.50510000  0.77630000  1.0 0.336764551
H  H187  1  0.92410000  0.86150000  0.73950000  1.0 0.336764551
H  H188  1  0.73950000  0.92410000  0.86150000  1.0 0.336764551
H  H189  1  0.86150000  0.73950000  0.92410000  1.0 0.336764551
H  H190  1  0.84890000  0.93250000  0.74490000  1.0 0.336764551
H  H191  1  0.74490000  0.84890000  0.93250000  1.0 0.336764551
H  H192  1  0.93250000  0.74490000  0.84890000  1.0 0.336764551
C  C1  1  0.16833000  0.83663000  0.50667000  1.0 0.792310558
C  C2  1  0.50667000  0.16833000  0.83663000  1.0 0.792310558
C  C3  1  0.83663000  0.50667000  0.16833000  1.0 0.792310558
C  C4  1  0.08167000  0.41337000  0.76163000  1.0 0.792310558
C  C5  1  0.74333000  0.76163000  0.41337000  1.0 0.792310558
C  C6  1  0.76163000  0.74333000  0.08167000  1.0 0.792310558
C  C7  1  0.74333000  0.08167000  0.76163000  1.0 0.792310558
C  C8  1  0.76163000  0.41337000  0.74333000  1.0 0.792310558
C  C9  1  0.41337000  0.76163000  0.08167000  1.0 0.792310558
C  C10  1  0.41337000  0.74333000  0.76163000  1.0 0.792310558
C  C11  1  0.08167000  0.76163000  0.74333000  1.0 0.792310558
C  C12  1  0.76163000  0.08167000  0.41337000  1.0 0.792310558
C  C13  1  0.83663000  0.16833000  0.48837000  1.0 0.792310558
C  C14  1  0.16833000  0.50667000  0.48837000  1.0 0.792310558
C  C15  1  0.50667000  0.83663000  0.48837000  1.0 0.792310558
C  C16  1  0.48837000  0.50667000  0.83663000  1.0 0.792310558
C  C17  1  0.48837000  0.83663000  0.16833000  1.0 0.792310558
C  C18  1  0.48837000  0.16833000  0.50667000  1.0 0.792310558
C  C19  1  0.50667000  0.48837000  0.16833000  1.0 0.792310558
C  C20  1  0.83663000  0.48837000  0.50667000  1.0 0.792310558
C  C21  1  0.16833000  0.48837000  0.83663000  1.0 0.792310558
C  C22  1  0.41337000  0.08167000  0.74333000  1.0 0.792310558
C  C23  1  0.08167000  0.74333000  0.41337000  1.0 0.792310558
C  C24  1  0.74333000  0.41337000  0.08167000  1.0 0.792310558
C  C25  1  0.58167000  0.91337000  0.24333000  1.0 0.792310558
C  C26  1  0.24333000  0.58167000  0.91337000  1.0 0.792310558
C  C27  1  0.91337000  0.24333000  0.58167000  1.0 0.792310558
C  C28  1  0.66833000  0.33663000  0.98837000  1.0 0.792310558
C  C29  1  0.00667000  0.98837000  0.33663000  1.0 0.792310558
C  C30  1  0.98837000  0.00667000  0.66833000  1.0 0.792310558
C  C31  1  0.00667000  0.66833000  0.98837000  1.0 0.792310558
C  C32  1  0.98837000  0.33663000  0.00667000  1.0 0.792310558
C  C33  1  0.33663000  0.98837000  0.66833000  1.0 0.792310558
C  C34  1  0.33663000  0.00667000  0.98837000  1.0 0.792310558
C  C35  1  0.66833000  0.98837000  0.00667000  1.0 0.792310558
C  C36  1  0.98837000  0.66833000  0.33663000  1.0 0.792310558
C  C37  1  0.91337000  0.58167000  0.26163000  1.0 0.792310558
C  C38  1  0.58167000  0.24333000  0.26163000  1.0 0.792310558
C  C39  1  0.24333000  0.91337000  0.26163000  1.0 0.792310558
C  C40  1  0.26163000  0.24333000  0.91337000  1.0 0.792310558
C  C41  1  0.26163000  0.91337000  0.58167000  1.0 0.792310558
C  C42  1  0.26163000  0.58167000  0.24333000  1.0 0.792310558
C  C43  1  0.24333000  0.26163000  0.58167000  1.0 0.792310558
C  C44  1  0.91337000  0.26163000  0.24333000  1.0 0.792310558
C  C45  1  0.58167000  0.26163000  0.91337000  1.0 0.792310558
C  C46  1  0.33663000  0.66833000  0.00667000  1.0 0.792310558
C  C47  1  0.66833000  0.00667000  0.33663000  1.0 0.792310558
C  C48  1  0.00667000  0.33663000  0.66833000  1.0 0.792310558
C  C49  1  0.59250000  0.59250000  0.59250000  1.0 0.6677526823
C  C50  1  0.65750000  0.65750000  0.02750000  1.0 0.6677526823
C  C51  1  0.65750000  0.02750000  0.65750000  1.0 0.6677526823
C  C52  1  0.02750000  0.65750000  0.65750000  1.0 0.6677526823
C  C53  1  0.65750000  0.65750000  0.65750000  1.0 0.6677526823
C  C54  1  0.59250000  0.22250000  0.59250000  1.0 0.6677526823
C  C55  1  0.22250000  0.59250000  0.59250000  1.0 0.6677526823
C  C56  1  0.59250000  0.59250000  0.22250000  1.0 0.6677526823
C  C57  1  0.15750000  0.15750000  0.15750000  1.0 0.6677526823
C  C58  1  0.09250000  0.09250000  0.72250000  1.0 0.6677526823
C  C59  1  0.09250000  0.72250000  0.09250000  1.0 0.6677526823
C  C60  1  0.72250000  0.09250000  0.09250000  1.0 0.6677526823
C  C61  1  0.09250000  0.09250000  0.09250000  1.0 0.6677526823
C  C62  1  0.15750000  0.52750000  0.15750000  1.0 0.6677526823
C  C63  1  0.52750000  0.15750000  0.15750000  1.0 0.6677526823
C  C64  1  0.15750000  0.15750000  0.52750000  1.0 0.6677526823
C  C65  1  0.34220000  0.34220000  0.34220000  1.0 0.6677526823
C  C66  1  0.90780000  0.27660000  0.90780000  1.0 0.6677526823
C  C67  1  0.27660000  0.90780000  0.90780000  1.0 0.6677526823
C  C68  1  0.90780000  0.90780000  0.27660000  1.0 0.6677526823
C  C69  1  0.97340000  0.34220000  0.34220000  1.0 0.6677526823
C  C70  1  0.34220000  0.97340000  0.34220000  1.0 0.6677526823
C  C71  1  0.34220000  0.34220000  0.97340000  1.0 0.6677526823
C  C72  1  0.90780000  0.90780000  0.90780000  1.0 0.6677526823
C  C73  1  0.40780000  0.40780000  0.40780000  1.0 0.6677526823
C  C74  1  0.84220000  0.47340000  0.84220000  1.0 0.6677526823
C  C75  1  0.47340000  0.84220000  0.84220000  1.0 0.6677526823
C  C76  1  0.84220000  0.84220000  0.47340000  1.0 0.6677526823
C  C77  1  0.77660000  0.40780000  0.40780000  1.0 0.6677526823
C  C78  1  0.40780000  0.77660000  0.40780000  1.0 0.6677526823
C  C79  1  0.40780000  0.40780000  0.77660000  1.0 0.6677526823
C  C80  1  0.84220000  0.84220000  0.84220000  1.0 0.6677526823
N  N1  1  0.63529000  0.62441000  0.51671000  1.0 -0.6003094411
N  N2  1  0.51671000  0.63529000  0.62441000  1.0 -0.6003094411
N  N3  1  0.62441000  0.51671000  0.63529000  1.0 -0.6003094411
N  N4  1  0.73329000  0.61471000  0.02641000  1.0 -0.6003094411
N  N5  1  0.62559000  0.73329000  0.02641000  1.0 -0.6003094411
N  N6  1  0.61471000  0.62559000  0.02641000  1.0 -0.6003094411
N  N7  1  0.73329000  0.02641000  0.62559000  1.0 -0.6003094411
N  N8  1  0.61471000  0.02641000  0.73329000  1.0 -0.6003094411
N  N9  1  0.62559000  0.02641000  0.61471000  1.0 -0.6003094411
N  N10  1  0.02641000  0.73329000  0.61471000  1.0 -0.6003094411
N  N11  1  0.02641000  0.62559000  0.73329000  1.0 -0.6003094411
N  N12  1  0.02641000  0.61471000  0.62559000  1.0 -0.6003094411
N  N13  1  0.62559000  0.61471000  0.73329000  1.0 -0.6003094411
N  N14  1  0.61471000  0.73329000  0.62559000  1.0 -0.6003094411
N  N15  1  0.73329000  0.62559000  0.61471000  1.0 -0.6003094411
N  N16  1  0.63529000  0.22359000  0.62441000  1.0 -0.6003094411
N  N17  1  0.62441000  0.22359000  0.51671000  1.0 -0.6003094411
N  N18  1  0.51671000  0.22359000  0.63529000  1.0 -0.6003094411
N  N19  1  0.22359000  0.62441000  0.63529000  1.0 -0.6003094411
N  N20  1  0.22359000  0.63529000  0.51671000  1.0 -0.6003094411
N  N21  1  0.22359000  0.51671000  0.62441000  1.0 -0.6003094411
N  N22  1  0.62441000  0.63529000  0.22359000  1.0 -0.6003094411
N  N23  1  0.51671000  0.62441000  0.22359000  1.0 -0.6003094411
N  N24  1  0.63529000  0.51671000  0.22359000  1.0 -0.6003094411
N  N25  1  0.11471000  0.12559000  0.23329000  1.0 -0.6003094411
N  N26  1  0.23329000  0.11471000  0.12559000  1.0 -0.6003094411
N  N27  1  0.12559000  0.23329000  0.11471000  1.0 -0.6003094411
N  N28  1  0.01671000  0.13529000  0.72359000  1.0 -0.6003094411
N  N29  1  0.12441000  0.01671000  0.72359000  1.0 -0.6003094411
N  N30  1  0.13529000  0.12441000  0.72359000  1.0 -0.6003094411
N  N31  1  0.01671000  0.72359000  0.12441000  1.0 -0.6003094411
N  N32  1  0.13529000  0.72359000  0.01671000  1.0 -0.6003094411
N  N33  1  0.12441000  0.72359000  0.13529000  1.0 -0.6003094411
N  N34  1  0.72359000  0.01671000  0.13529000  1.0 -0.6003094411
N  N35  1  0.72359000  0.12441000  0.01671000  1.0 -0.6003094411
N  N36  1  0.72359000  0.13529000  0.12441000  1.0 -0.6003094411
N  N37  1  0.12441000  0.13529000  0.01671000  1.0 -0.6003094411
N  N38  1  0.13529000  0.01671000  0.12441000  1.0 -0.6003094411
N  N39  1  0.01671000  0.12441000  0.13529000  1.0 -0.6003094411
N  N40  1  0.11471000  0.52641000  0.12559000  1.0 -0.6003094411
N  N41  1  0.12559000  0.52641000  0.23329000  1.0 -0.6003094411
N  N42  1  0.23329000  0.52641000  0.11471000  1.0 -0.6003094411
N  N43  1  0.52641000  0.12559000  0.11471000  1.0 -0.6003094411
N  N44  1  0.52641000  0.11471000  0.23329000  1.0 -0.6003094411
N  N45  1  0.52641000  0.23329000  0.12559000  1.0 -0.6003094411
N  N46  1  0.12559000  0.11471000  0.52641000  1.0 -0.6003094411
N  N47  1  0.23329000  0.12559000  0.52641000  1.0 -0.6003094411
N  N48  1  0.11471000  0.23329000  0.52641000  1.0 -0.6003094411
N  N49  1  0.38364000  0.37568000  0.26662000  1.0 -0.6003094411
N  N50  1  0.37568000  0.26662000  0.38364000  1.0 -0.6003094411
N  N51  1  0.26662000  0.38364000  0.37568000  1.0 -0.6003094411
N  N52  1  0.98338000  0.27594000  0.87432000  1.0 -0.6003094411
N  N53  1  0.86636000  0.27594000  0.98338000  1.0 -0.6003094411
N  N54  1  0.87432000  0.27594000  0.86636000  1.0 -0.6003094411
N  N55  1  0.27594000  0.98338000  0.86636000  1.0 -0.6003094411
N  N56  1  0.27594000  0.86636000  0.87432000  1.0 -0.6003094411
N  N57  1  0.27594000  0.87432000  0.98338000  1.0 -0.6003094411
N  N58  1  0.86636000  0.87432000  0.27594000  1.0 -0.6003094411
N  N59  1  0.87432000  0.98338000  0.27594000  1.0 -0.6003094411
N  N60  1  0.98338000  0.86636000  0.27594000  1.0 -0.6003094411
N  N61  1  0.97406000  0.26662000  0.37568000  1.0 -0.6003094411
N  N62  1  0.97406000  0.38364000  0.26662000  1.0 -0.6003094411
N  N63  1  0.97406000  0.37568000  0.38364000  1.0 -0.6003094411
N  N64  1  0.26662000  0.97406000  0.38364000  1.0 -0.6003094411
N  N65  1  0.38364000  0.97406000  0.37568000  1.0 -0.6003094411
N  N66  1  0.37568000  0.97406000  0.26662000  1.0 -0.6003094411
N  N67  1  0.37568000  0.38364000  0.97406000  1.0 -0.6003094411
N  N68  1  0.26662000  0.37568000  0.97406000  1.0 -0.6003094411
N  N69  1  0.38364000  0.26662000  0.97406000  1.0 -0.6003094411
N  N70  1  0.87432000  0.86636000  0.98338000  1.0 -0.6003094411
N  N71  1  0.98338000  0.87432000  0.86636000  1.0 -0.6003094411
N  N72  1  0.86636000  0.98338000  0.87432000  1.0 -0.6003094411
N  N73  1  0.36636000  0.37432000  0.48338000  1.0 -0.6003094411
N  N74  1  0.37432000  0.48338000  0.36636000  1.0 -0.6003094411
N  N75  1  0.48338000  0.36636000  0.37432000  1.0 -0.6003094411
N  N76  1  0.76662000  0.47406000  0.87568000  1.0 -0.6003094411
N  N77  1  0.88364000  0.47406000  0.76662000  1.0 -0.6003094411
N  N78  1  0.87568000  0.47406000  0.88364000  1.0 -0.6003094411
N  N79  1  0.47406000  0.76662000  0.88364000  1.0 -0.6003094411
N  N80  1  0.47406000  0.88364000  0.87568000  1.0 -0.6003094411
N  N81  1  0.47406000  0.87568000  0.76662000  1.0 -0.6003094411
N  N82  1  0.88364000  0.87568000  0.47406000  1.0 -0.6003094411
N  N83  1  0.87568000  0.76662000  0.47406000  1.0 -0.6003094411
N  N84  1  0.76662000  0.88364000  0.47406000  1.0 -0.6003094411
N  N85  1  0.77594000  0.48338000  0.37432000  1.0 -0.6003094411
N  N86  1  0.77594000  0.36636000  0.48338000  1.0 -0.6003094411
N  N87  1  0.77594000  0.37432000  0.36636000  1.0 -0.6003094411
N  N88  1  0.48338000  0.77594000  0.36636000  1.0 -0.6003094411
N  N89  1  0.36636000  0.77594000  0.37432000  1.0 -0.6003094411
N  N90  1  0.37432000  0.77594000  0.48338000  1.0 -0.6003094411
N  N91  1  0.37432000  0.36636000  0.77594000  1.0 -0.6003094411
N  N92  1  0.48338000  0.37432000  0.77594000  1.0 -0.6003094411
N  N93  1  0.36636000  0.48338000  0.77594000  1.0 -0.6003094411
N  N94  1  0.87568000  0.88364000  0.76662000  1.0 -0.6003094411
N  N95  1  0.76662000  0.87568000  0.88364000  1.0 -0.6003094411
N  N96  1  0.88364000  0.76662000  0.87568000  1.0 -0.6003094411
O  O1  1  0.20558000  0.79128000  0.55924000  1.0 -0.606966086
O  O2  1  0.55924000  0.20558000  0.79128000  1.0 -0.606966086
O  O3  1  0.79128000  0.55924000  0.20558000  1.0 -0.606966086
O  O4  1  0.04442000  0.45872000  0.80610000  1.0 -0.606966086
O  O5  1  0.69076000  0.80610000  0.45872000  1.0 -0.606966086
O  O6  1  0.80610000  0.69076000  0.04442000  1.0 -0.606966086
O  O7  1  0.69076000  0.04442000  0.80610000  1.0 -0.606966086
O  O8  1  0.80610000  0.45872000  0.69076000  1.0 -0.606966086
O  O9  1  0.45872000  0.80610000  0.04442000  1.0 -0.606966086
O  O10  1  0.45872000  0.69076000  0.80610000  1.0 -0.606966086
O  O11  1  0.04442000  0.80610000  0.69076000  1.0 -0.606966086
O  O12  1  0.80610000  0.04442000  0.45872000  1.0 -0.606966086
O  O13  1  0.79128000  0.20558000  0.44390000  1.0 -0.606966086
O  O14  1  0.20558000  0.55924000  0.44390000  1.0 -0.606966086
O  O15  1  0.55924000  0.79128000  0.44390000  1.0 -0.606966086
O  O16  1  0.44390000  0.55924000  0.79128000  1.0 -0.606966086
O  O17  1  0.44390000  0.79128000  0.20558000  1.0 -0.606966086
O  O18  1  0.44390000  0.20558000  0.55924000  1.0 -0.606966086
O  O19  1  0.55924000  0.44390000  0.20558000  1.0 -0.606966086
O  O20  1  0.79128000  0.44390000  0.55924000  1.0 -0.606966086
O  O21  1  0.20558000  0.44390000  0.79128000  1.0 -0.606966086
O  O22  1  0.45872000  0.04442000  0.69076000  1.0 -0.606966086
O  O23  1  0.04442000  0.69076000  0.45872000  1.0 -0.606966086
O  O24  1  0.69076000  0.45872000  0.04442000  1.0 -0.606966086
O  O25  1  0.54442000  0.95872000  0.19076000  1.0 -0.606966086
O  O26  1  0.19076000  0.54442000  0.95872000  1.0 -0.606966086
O  O27  1  0.95872000  0.19076000  0.54442000  1.0 -0.606966086
O  O28  1  0.70558000  0.29128000  0.94390000  1.0 -0.606966086
O  O29  1  0.05924000  0.94390000  0.29128000  1.0 -0.606966086
O  O30  1  0.94390000  0.05924000  0.70558000  1.0 -0.606966086
O  O31  1  0.05924000  0.70558000  0.94390000  1.0 -0.606966086
O  O32  1  0.94390000  0.29128000  0.05924000  1.0 -0.606966086
O  O33  1  0.29128000  0.94390000  0.70558000  1.0 -0.606966086
O  O34  1  0.29128000  0.05924000  0.94390000  1.0 -0.606966086
O  O35  1  0.70558000  0.94390000  0.05924000  1.0 -0.606966086
O  O36  1  0.94390000  0.70558000  0.29128000  1.0 -0.606966086
O  O37  1  0.95872000  0.54442000  0.30610000  1.0 -0.606966086
O  O38  1  0.54442000  0.19076000  0.30610000  1.0 -0.606966086
O  O39  1  0.19076000  0.95872000  0.30610000  1.0 -0.606966086
O  O40  1  0.30610000  0.19076000  0.95872000  1.0 -0.606966086
O  O41  1  0.30610000  0.95872000  0.54442000  1.0 -0.606966086
O  O42  1  0.30610000  0.54442000  0.19076000  1.0 -0.606966086
O  O43  1  0.19076000  0.30610000  0.54442000  1.0 -0.606966086
O  O44  1  0.95872000  0.30610000  0.19076000  1.0 -0.606966086
O  O45  1  0.54442000  0.30610000  0.95872000  1.0 -0.606966086
O  O46  1  0.29128000  0.70558000  0.05924000  1.0 -0.606966086
O  O47  1  0.70558000  0.05924000  0.29128000  1.0 -0.606966086
O  O48  1  0.05924000  0.29128000  0.70558000  1.0 -0.606966086
O  O49  1  0.18736000  0.81382000  0.44914000  1.0 -0.5921673778
O  O50  1  0.44914000  0.18736000  0.81382000  1.0 -0.5921673778
O  O51  1  0.81382000  0.44914000  0.18736000  1.0 -0.5921673778
O  O52  1  0.06264000  0.43618000  0.70032000  1.0 -0.5921673778
O  O53  1  0.80086000  0.70032000  0.43618000  1.0 -0.5921673778
O  O54  1  0.70032000  0.80086000  0.06264000  1.0 -0.5921673778
O  O55  1  0.80086000  0.06264000  0.70032000  1.0 -0.5921673778
O  O56  1  0.70032000  0.43618000  0.80086000  1.0 -0.5921673778
O  O57  1  0.43618000  0.70032000  0.06264000  1.0 -0.5921673778
O  O58  1  0.43618000  0.80086000  0.70032000  1.0 -0.5921673778
O  O59  1  0.06264000  0.70032000  0.80086000  1.0 -0.5921673778
O  O60  1  0.70032000  0.06264000  0.43618000  1.0 -0.5921673778
O  O61  1  0.81382000  0.18736000  0.54968000  1.0 -0.5921673778
O  O62  1  0.18736000  0.44914000  0.54968000  1.0 -0.5921673778
O  O63  1  0.44914000  0.81382000  0.54968000  1.0 -0.5921673778
O  O64  1  0.54968000  0.44914000  0.81382000  1.0 -0.5921673778
O  O65  1  0.54968000  0.81382000  0.18736000  1.0 -0.5921673778
O  O66  1  0.54968000  0.18736000  0.44914000  1.0 -0.5921673778
O  O67  1  0.44914000  0.54968000  0.18736000  1.0 -0.5921673778
O  O68  1  0.81382000  0.54968000  0.44914000  1.0 -0.5921673778
O  O69  1  0.18736000  0.54968000  0.81382000  1.0 -0.5921673778
O  O70  1  0.43618000  0.06264000  0.80086000  1.0 -0.5921673778
O  O71  1  0.06264000  0.80086000  0.43618000  1.0 -0.5921673778
O  O72  1  0.80086000  0.43618000  0.06264000  1.0 -0.5921673778
O  O73  1  0.56264000  0.93618000  0.30086000  1.0 -0.5921673778
O  O74  1  0.30086000  0.56264000  0.93618000  1.0 -0.5921673778
O  O75  1  0.93618000  0.30086000  0.56264000  1.0 -0.5921673778
O  O76  1  0.68736000  0.31382000  0.04968000  1.0 -0.5921673778
O  O77  1  0.94914000  0.04968000  0.31382000  1.0 -0.5921673778
O  O78  1  0.04968000  0.94914000  0.68736000  1.0 -0.5921673778
O  O79  1  0.94914000  0.68736000  0.04968000  1.0 -0.5921673778
O  O80  1  0.04968000  0.31382000  0.94914000  1.0 -0.5921673778
O  O81  1  0.31382000  0.04968000  0.68736000  1.0 -0.5921673778
O  O82  1  0.31382000  0.94914000  0.04968000  1.0 -0.5921673778
O  O83  1  0.68736000  0.04968000  0.94914000  1.0 -0.5921673778
O  O84  1  0.04968000  0.68736000  0.31382000  1.0 -0.5921673778
O  O85  1  0.93618000  0.56264000  0.20032000  1.0 -0.5921673778
O  O86  1  0.56264000  0.30086000  0.20032000  1.0 -0.5921673778
O  O87  1  0.30086000  0.93618000  0.20032000  1.0 -0.5921673778
O  O88  1  0.20032000  0.30086000  0.93618000  1.0 -0.5921673778
O  O89  1  0.20032000  0.93618000  0.56264000  1.0 -0.5921673778
O  O90  1  0.20032000  0.56264000  0.30086000  1.0 -0.5921673778
O  O91  1  0.30086000  0.20032000  0.56264000  1.0 -0.5921673778
O  O92  1  0.93618000  0.20032000  0.30086000  1.0 -0.5921673778
O  O93  1  0.56264000  0.20032000  0.93618000  1.0 -0.5921673778
O  O94  1  0.31382000  0.68736000  0.94914000  1.0 -0.5921673778
O  O95  1  0.68736000  0.94914000  0.31382000  1.0 -0.5921673778
O  O96  1  0.94914000  0.31382000  0.68736000  1.0 -0.5921673778
O  O97  1  0.11221000  0.90149000  0.51633000  1.0 -0.6297422166
O  O98  1  0.51633000  0.11221000  0.90149000  1.0 -0.6297422166
O  O99  1  0.90149000  0.51633000  0.11221000  1.0 -0.6297422166
O  O100  1  0.13779000  0.34851000  0.78003000  1.0 -0.6297422166
O  O101  1  0.73367000  0.78003000  0.34851000  1.0 -0.6297422166
O  O102  1  0.78003000  0.73367000  0.13779000  1.0 -0.6297422166
O  O103  1  0.73367000  0.13779000  0.78003000  1.0 -0.6297422166
O  O104  1  0.78003000  0.34851000  0.73367000  1.0 -0.6297422166
O  O105  1  0.34851000  0.78003000  0.13779000  1.0 -0.6297422166
O  O106  1  0.34851000  0.73367000  0.78003000  1.0 -0.6297422166
O  O107  1  0.13779000  0.78003000  0.73367000  1.0 -0.6297422166
O  O108  1  0.78003000  0.13779000  0.34851000  1.0 -0.6297422166
O  O109  1  0.90149000  0.11221000  0.46997000  1.0 -0.6297422166
O  O110  1  0.11221000  0.51633000  0.46997000  1.0 -0.6297422166
O  O111  1  0.51633000  0.90149000  0.46997000  1.0 -0.6297422166
O  O112  1  0.46997000  0.51633000  0.90149000  1.0 -0.6297422166
O  O113  1  0.46997000  0.90149000  0.11221000  1.0 -0.6297422166
O  O114  1  0.46997000  0.11221000  0.51633000  1.0 -0.6297422166
O  O115  1  0.51633000  0.46997000  0.11221000  1.0 -0.6297422166
O  O116  1  0.90149000  0.46997000  0.51633000  1.0 -0.6297422166
O  O117  1  0.11221000  0.46997000  0.90149000  1.0 -0.6297422166
O  O118  1  0.34851000  0.13779000  0.73367000  1.0 -0.6297422166
O  O119  1  0.13779000  0.73367000  0.34851000  1.0 -0.6297422166
O  O120  1  0.73367000  0.34851000  0.13779000  1.0 -0.6297422166
O  O121  1  0.63779000  0.84851000  0.23367000  1.0 -0.6297422166
O  O122  1  0.23367000  0.63779000  0.84851000  1.0 -0.6297422166
O  O123  1  0.84851000  0.23367000  0.63779000  1.0 -0.6297422166
O  O124  1  0.61221000  0.40149000  0.96997000  1.0 -0.6297422166
O  O125  1  0.01633000  0.96997000  0.40149000  1.0 -0.6297422166
O  O126  1  0.96997000  0.01633000  0.61221000  1.0 -0.6297422166
O  O127  1  0.01633000  0.61221000  0.96997000  1.0 -0.6297422166
O  O128  1  0.96997000  0.40149000  0.01633000  1.0 -0.6297422166
O  O129  1  0.40149000  0.96997000  0.61221000  1.0 -0.6297422166
O  O130  1  0.40149000  0.01633000  0.96997000  1.0 -0.6297422166
O  O131  1  0.61221000  0.96997000  0.01633000  1.0 -0.6297422166
O  O132  1  0.96997000  0.61221000  0.40149000  1.0 -0.6297422166
O  O133  1  0.84851000  0.63779000  0.28003000  1.0 -0.6297422166
O  O134  1  0.63779000  0.23367000  0.28003000  1.0 -0.6297422166
O  O135  1  0.23367000  0.84851000  0.28003000  1.0 -0.6297422166
O  O136  1  0.28003000  0.23367000  0.84851000  1.0 -0.6297422166
O  O137  1  0.28003000  0.84851000  0.63779000  1.0 -0.6297422166
O  O138  1  0.28003000  0.63779000  0.23367000  1.0 -0.6297422166
O  O139  1  0.23367000  0.28003000  0.63779000  1.0 -0.6297422166
O  O140  1  0.84851000  0.28003000  0.23367000  1.0 -0.6297422166
O  O141  1  0.63779000  0.28003000  0.84851000  1.0 -0.6297422166
O  O142  1  0.40149000  0.61221000  0.01633000  1.0 -0.6297422166
O  O143  1  0.61221000  0.01633000  0.40149000  1.0 -0.6297422166
O  O144  1  0.01633000  0.40149000  0.61221000  1.0 -0.6297422166
O  O145  1  0.92120000  0.92120000  0.57880000  1.0 -0.4190113994
O  O146  1  0.57880000  0.92120000  0.92120000  1.0 -0.4190113994
O  O147  1  0.92120000  0.57880000  0.92120000  1.0 -0.4190113994
O  O148  1  0.32880000  0.32880000  0.67120000  1.0 -0.4190113994
O  O149  1  0.67120000  0.67120000  0.32880000  1.0 -0.4190113994
O  O150  1  0.67120000  0.32880000  0.67120000  1.0 -0.4190113994
O  O151  1  0.32880000  0.67120000  0.32880000  1.0 -0.4190113994
O  O152  1  0.32880000  0.67120000  0.67120000  1.0 -0.4190113994
O  O153  1  0.67120000  0.32880000  0.32880000  1.0 -0.4190113994
O  O154  1  0.92120000  0.57880000  0.57880000  1.0 -0.4190113994
O  O155  1  0.57880000  0.92120000  0.57880000  1.0 -0.4190113994
O  O156  1  0.57880000  0.57880000  0.92120000  1.0 -0.4190113994
O  O157  1  0.82880000  0.82880000  0.17120000  1.0 -0.4190113994
O  O158  1  0.17120000  0.82880000  0.82880000  1.0 -0.4190113994
O  O159  1  0.82880000  0.17120000  0.82880000  1.0 -0.4190113994
O  O160  1  0.42120000  0.42120000  0.07880000  1.0 -0.4190113994
O  O161  1  0.07880000  0.07880000  0.42120000  1.0 -0.4190113994
O  O162  1  0.07880000  0.42120000  0.07880000  1.0 -0.4190113994
O  O163  1  0.42120000  0.07880000  0.42120000  1.0 -0.4190113994
O  O164  1  0.42120000  0.07880000  0.07880000  1.0 -0.4190113994
O  O165  1  0.07880000  0.42120000  0.42120000  1.0 -0.4190113994
O  O166  1  0.82880000  0.17120000  0.17120000  1.0 -0.4190113994
O  O167  1  0.17120000  0.82880000  0.17120000  1.0 -0.4190113994
O  O168  1  0.17120000  0.17120000  0.82880000  1.0 -0.4190113994
