# DDEC6 charges by PACMAN v1.1 (https://github.com/mtap-research/PACMAN-charge/)
data_IWAYIO_ion_pacman
_symmetry_space_group_name_H-M   'P 1'
_cell_length_a   20.51960000
_cell_length_b   20.51960000
_cell_length_c   20.51960000
_cell_angle_alpha   60.00000000
_cell_angle_beta   60.00000000
_cell_angle_gamma   60.00000000
_symmetry_Int_Tables_number   1
_chemical_formula_structural   Na3Fe6H48C20(N4O7)6
_chemical_formula_sum   'Na12 Fe24 H192 C80 N96 O168'
_cell_volume   6109.30312312
_cell_formula_units_Z   4
loop_
 _symmetry_equiv_pos_site_id
 _symmetry_equiv_pos_as_xyz
  1  'x, y, z'
loop_
 _atom_site_type_symbol
 _atom_site_label
 _atom_site_symmetry_multiplicity
 _atom_site_fract_x
 _atom_site_fract_y
 _atom_site_fract_z
 _atom_site_occupancy
 _atom_site_charge
Na  Na1  1  0.75000000  0.75000000  0.25000000  1.0 0.8660994021
Na  Na2  1  0.25000000  0.75000000  0.75000000  1.0 0.8660994021
Na  Na3  1  0.75000000  0.25000000  0.75000000  1.0 0.8660994021
Na  Na4  1  0.50000000  0.50000000  0.00000000  1.0 0.8660994021
Na  Na5  1  0.00000000  0.00000000  0.50000000  1.0 0.8660994021
Na  Na6  1  0.00000000  0.50000000  0.00000000  1.0 0.8660994021
Na  Na7  1  0.50000000  0.00000000  0.50000000  1.0 0.8660994021
Na  Na8  1  0.50000000  0.00000000  0.00000000  1.0 0.8660994021
Na  Na9  1  0.00000000  0.50000000  0.50000000  1.0 0.8660994021
Na  Na10  1  0.75000000  0.25000000  0.25000000  1.0 0.8660994021
Na  Na11  1  0.25000000  0.75000000  0.25000000  1.0 0.8660994021
Na  Na12  1  0.25000000  0.25000000  0.75000000  1.0 0.8660994021
Fe  Fe1  1  0.62500000  0.87200000  0.37800000  1.0 0.9175619556
Fe  Fe2  1  0.37800000  0.62500000  0.87200000  1.0 0.9175619556
Fe  Fe3  1  0.87200000  0.37800000  0.62500000  1.0 0.9175619556
Fe  Fe4  1  0.62500000  0.37800000  0.12500000  1.0 0.9175619556
Fe  Fe5  1  0.87200000  0.12500000  0.37800000  1.0 0.9175619556
Fe  Fe6  1  0.12500000  0.87200000  0.62500000  1.0 0.9175619556
Fe  Fe7  1  0.87200000  0.62500000  0.12500000  1.0 0.9175619556
Fe  Fe8  1  0.12500000  0.37800000  0.87200000  1.0 0.9175619556
Fe  Fe9  1  0.37800000  0.12500000  0.62500000  1.0 0.9175619556
Fe  Fe10  1  0.37800000  0.87200000  0.12500000  1.0 0.9175619556
Fe  Fe11  1  0.62500000  0.12500000  0.87200000  1.0 0.9175619556
Fe  Fe12  1  0.12500000  0.62500000  0.37800000  1.0 0.9175619556
Fe  Fe13  1  0.12500000  0.87800000  0.37200000  1.0 0.9175619556
Fe  Fe14  1  0.37200000  0.12500000  0.87800000  1.0 0.9175619556
Fe  Fe15  1  0.87800000  0.37200000  0.12500000  1.0 0.9175619556
Fe  Fe16  1  0.12500000  0.37200000  0.62500000  1.0 0.9175619556
Fe  Fe17  1  0.87800000  0.62500000  0.37200000  1.0 0.9175619556
Fe  Fe18  1  0.62500000  0.87800000  0.12500000  1.0 0.9175619556
Fe  Fe19  1  0.87800000  0.12500000  0.62500000  1.0 0.9175619556
Fe  Fe20  1  0.62500000  0.37200000  0.87800000  1.0 0.9175619556
Fe  Fe21  1  0.37200000  0.62500000  0.12500000  1.0 0.9175619556
Fe  Fe22  1  0.37200000  0.87800000  0.62500000  1.0 0.9175619556
Fe  Fe23  1  0.12500000  0.62500000  0.87800000  1.0 0.9175619556
Fe  Fe24  1  0.62500000  0.12500000  0.37200000  1.0 0.9175619556
H  H1  1  0.32020000  0.40060000  0.50580000  1.0 0.3334312238
H  H2  1  0.40060000  0.50580000  0.32020000  1.0 0.3334312238
H  H3  1  0.50580000  0.32020000  0.40060000  1.0 0.3334312238
H  H4  1  0.39010000  0.32530000  0.50890000  1.0 0.3361829005
H  H5  1  0.32530000  0.50890000  0.39010000  1.0 0.3361829005
H  H6  1  0.50890000  0.39010000  0.32530000  1.0 0.3361829005
H  H7  1  0.74420000  0.47660000  0.84940000  1.0 0.3334312238
H  H8  1  0.92980000  0.47660000  0.74420000  1.0 0.3334312238
H  H9  1  0.84940000  0.47660000  0.92980000  1.0 0.3334312238
H  H10  1  0.74110000  0.47430000  0.92470000  1.0 0.3361829005
H  H11  1  0.85990000  0.47430000  0.74110000  1.0 0.3361829005
H  H12  1  0.92470000  0.47430000  0.85990000  1.0 0.3361829005
H  H13  1  0.47660000  0.74420000  0.92980000  1.0 0.3334312238
H  H14  1  0.47660000  0.92980000  0.84940000  1.0 0.3334312238
H  H15  1  0.47660000  0.84940000  0.74420000  1.0 0.3334312238
H  H16  1  0.47430000  0.74110000  0.85990000  1.0 0.3361829005
H  H17  1  0.47430000  0.85990000  0.92470000  1.0 0.3361829005
H  H18  1  0.47430000  0.92470000  0.74110000  1.0 0.3361829005
H  H19  1  0.92980000  0.84940000  0.47660000  1.0 0.3334312238
H  H20  1  0.84940000  0.74420000  0.47660000  1.0 0.3334312238
H  H21  1  0.74420000  0.92980000  0.47660000  1.0 0.3334312238
H  H22  1  0.85990000  0.92470000  0.47430000  1.0 0.3361829005
H  H23  1  0.92470000  0.74110000  0.47430000  1.0 0.3361829005
H  H24  1  0.74110000  0.85990000  0.47430000  1.0 0.3361829005
H  H25  1  0.77340000  0.50580000  0.40060000  1.0 0.3334312238
H  H26  1  0.77340000  0.32020000  0.50580000  1.0 0.3334312238
H  H27  1  0.77340000  0.40060000  0.32020000  1.0 0.3334312238
H  H28  1  0.77570000  0.50890000  0.32530000  1.0 0.3361829005
H  H29  1  0.77570000  0.39010000  0.50890000  1.0 0.3361829005
H  H30  1  0.77570000  0.32530000  0.39010000  1.0 0.3361829005
H  H31  1  0.50580000  0.77340000  0.32020000  1.0 0.3334312238
H  H32  1  0.32020000  0.77340000  0.40060000  1.0 0.3334312238
H  H33  1  0.40060000  0.77340000  0.50580000  1.0 0.3334312238
H  H34  1  0.50890000  0.77570000  0.39010000  1.0 0.3361829005
H  H35  1  0.39010000  0.77570000  0.32530000  1.0 0.3361829005
H  H36  1  0.32530000  0.77570000  0.50890000  1.0 0.3361829005
H  H37  1  0.40060000  0.32020000  0.77340000  1.0 0.3334312238
H  H38  1  0.50580000  0.40060000  0.77340000  1.0 0.3334312238
H  H39  1  0.32020000  0.50580000  0.77340000  1.0 0.3334312238
H  H40  1  0.32530000  0.39010000  0.77570000  1.0 0.3361829005
H  H41  1  0.50890000  0.32530000  0.77570000  1.0 0.3361829005
H  H42  1  0.39010000  0.50890000  0.77570000  1.0 0.3361829005
H  H43  1  0.84940000  0.92980000  0.74420000  1.0 0.3334312238
H  H44  1  0.74420000  0.84940000  0.92980000  1.0 0.3334312238
H  H45  1  0.92980000  0.74420000  0.84940000  1.0 0.3334312238
H  H46  1  0.92470000  0.85990000  0.74110000  1.0 0.3361829005
H  H47  1  0.74110000  0.92470000  0.85990000  1.0 0.3361829005
H  H48  1  0.85990000  0.74110000  0.92470000  1.0 0.3361829005
H  H49  1  0.42980000  0.34940000  0.24420000  1.0 0.3334312238
H  H50  1  0.34940000  0.24420000  0.42980000  1.0 0.3334312238
H  H51  1  0.24420000  0.42980000  0.34940000  1.0 0.3334312238
H  H52  1  0.35990000  0.42470000  0.24110000  1.0 0.3361829005
H  H53  1  0.42470000  0.24110000  0.35990000  1.0 0.3361829005
H  H54  1  0.24110000  0.35990000  0.42470000  1.0 0.3361829005
H  H55  1  0.00580000  0.27340000  0.90060000  1.0 0.3334312238
H  H56  1  0.82020000  0.27340000  0.00580000  1.0 0.3334312238
H  H57  1  0.90060000  0.27340000  0.82020000  1.0 0.3334312238
H  H58  1  0.00890000  0.27570000  0.82530000  1.0 0.3361829005
H  H59  1  0.89010000  0.27570000  0.00890000  1.0 0.3361829005
H  H60  1  0.82530000  0.27570000  0.89010000  1.0 0.3361829005
H  H61  1  0.27340000  0.00580000  0.82020000  1.0 0.3334312238
H  H62  1  0.27340000  0.82020000  0.90060000  1.0 0.3334312238
H  H63  1  0.27340000  0.90060000  0.00580000  1.0 0.3334312238
H  H64  1  0.27570000  0.00890000  0.89010000  1.0 0.3361829005
H  H65  1  0.27570000  0.89010000  0.82530000  1.0 0.3361829005
H  H66  1  0.27570000  0.82530000  0.00890000  1.0 0.3361829005
H  H67  1  0.82020000  0.90060000  0.27340000  1.0 0.3334312238
H  H68  1  0.90060000  0.00580000  0.27340000  1.0 0.3334312238
H  H69  1  0.00580000  0.82020000  0.27340000  1.0 0.3334312238
H  H70  1  0.89010000  0.82530000  0.27570000  1.0 0.3361829005
H  H71  1  0.82530000  0.00890000  0.27570000  1.0 0.3361829005
H  H72  1  0.00890000  0.89010000  0.27570000  1.0 0.3361829005
H  H73  1  0.97660000  0.24420000  0.34940000  1.0 0.3334312238
H  H74  1  0.97660000  0.42980000  0.24420000  1.0 0.3334312238
H  H75  1  0.97660000  0.34940000  0.42980000  1.0 0.3334312238
H  H76  1  0.97430000  0.24110000  0.42470000  1.0 0.3361829005
H  H77  1  0.97430000  0.35990000  0.24110000  1.0 0.3361829005
H  H78  1  0.97430000  0.42470000  0.35990000  1.0 0.3361829005
H  H79  1  0.24420000  0.97660000  0.42980000  1.0 0.3334312238
H  H80  1  0.42980000  0.97660000  0.34940000  1.0 0.3334312238
H  H81  1  0.34940000  0.97660000  0.24420000  1.0 0.3334312238
H  H82  1  0.24110000  0.97430000  0.35990000  1.0 0.3361829005
H  H83  1  0.35990000  0.97430000  0.42470000  1.0 0.3361829005
H  H84  1  0.42470000  0.97430000  0.24110000  1.0 0.3361829005
H  H85  1  0.34940000  0.42980000  0.97660000  1.0 0.3334312238
H  H86  1  0.24420000  0.34940000  0.97660000  1.0 0.3334312238
H  H87  1  0.42980000  0.24420000  0.97660000  1.0 0.3334312238
H  H88  1  0.42470000  0.35990000  0.97430000  1.0 0.3361829005
H  H89  1  0.24110000  0.42470000  0.97430000  1.0 0.3361829005
H  H90  1  0.35990000  0.24110000  0.97430000  1.0 0.3361829005
H  H91  1  0.90060000  0.82020000  0.00580000  1.0 0.3334312238
H  H92  1  0.00580000  0.90060000  0.82020000  1.0 0.3334312238
H  H93  1  0.82020000  0.00580000  0.90060000  1.0 0.3334312238
H  H94  1  0.82530000  0.89010000  0.00890000  1.0 0.3361829005
H  H95  1  0.00890000  0.82530000  0.89010000  1.0 0.3361829005
H  H96  1  0.89010000  0.00890000  0.82530000  1.0 0.3361829005
H  H97  1  0.09810000  0.18030000  0.99450000  1.0 0.3334312238
H  H98  1  0.18030000  0.99450000  0.09810000  1.0 0.3334312238
H  H99  1  0.99450000  0.09810000  0.18030000  1.0 0.3334312238
H  H100  1  0.17370000  0.11090000  0.99050000  1.0 0.3361829005
H  H101  1  0.11090000  0.99050000  0.17370000  1.0 0.3361829005
H  H102  1  0.99050000  0.17370000  0.11090000  1.0 0.3361829005
H  H103  1  0.25550000  0.52290000  0.06970000  1.0 0.3334312238
H  H104  1  0.15190000  0.52290000  0.25550000  1.0 0.3334312238
H  H105  1  0.06970000  0.52290000  0.15190000  1.0 0.3334312238
H  H106  1  0.25950000  0.52510000  0.13910000  1.0 0.3361829005
H  H107  1  0.07630000  0.52510000  0.25950000  1.0 0.3361829005
H  H108  1  0.13910000  0.52510000  0.07630000  1.0 0.3361829005
H  H109  1  0.52290000  0.25550000  0.15190000  1.0 0.3334312238
H  H110  1  0.52290000  0.15190000  0.06970000  1.0 0.3334312238
H  H111  1  0.52290000  0.06970000  0.25550000  1.0 0.3334312238
H  H112  1  0.52510000  0.25950000  0.07630000  1.0 0.3361829005
H  H113  1  0.52510000  0.07630000  0.13910000  1.0 0.3361829005
H  H114  1  0.52510000  0.13910000  0.25950000  1.0 0.3361829005
H  H115  1  0.15190000  0.06970000  0.52290000  1.0 0.3334312238
H  H116  1  0.06970000  0.25550000  0.52290000  1.0 0.3334312238
H  H117  1  0.25550000  0.15190000  0.52290000  1.0 0.3334312238
H  H118  1  0.07630000  0.13910000  0.52510000  1.0 0.3361829005
H  H119  1  0.13910000  0.25950000  0.52510000  1.0 0.3361829005
H  H120  1  0.25950000  0.07630000  0.52510000  1.0 0.3361829005
H  H121  1  0.72710000  0.99450000  0.18030000  1.0 0.3334312238
H  H122  1  0.72710000  0.09810000  0.99450000  1.0 0.3334312238
H  H123  1  0.72710000  0.18030000  0.09810000  1.0 0.3334312238
H  H124  1  0.72490000  0.99050000  0.11090000  1.0 0.3361829005
H  H125  1  0.72490000  0.17370000  0.99050000  1.0 0.3361829005
H  H126  1  0.72490000  0.11090000  0.17370000  1.0 0.3361829005
H  H127  1  0.99450000  0.72710000  0.09810000  1.0 0.3334312238
H  H128  1  0.09810000  0.72710000  0.18030000  1.0 0.3334312238
H  H129  1  0.18030000  0.72710000  0.99450000  1.0 0.3334312238
H  H130  1  0.99050000  0.72490000  0.17370000  1.0 0.3361829005
H  H131  1  0.17370000  0.72490000  0.11090000  1.0 0.3361829005
H  H132  1  0.11090000  0.72490000  0.99050000  1.0 0.3361829005
H  H133  1  0.18030000  0.09810000  0.72710000  1.0 0.3334312238
H  H134  1  0.99450000  0.18030000  0.72710000  1.0 0.3334312238
H  H135  1  0.09810000  0.99450000  0.72710000  1.0 0.3334312238
H  H136  1  0.11090000  0.17370000  0.72490000  1.0 0.3361829005
H  H137  1  0.99050000  0.11090000  0.72490000  1.0 0.3361829005
H  H138  1  0.17370000  0.99050000  0.72490000  1.0 0.3361829005
H  H139  1  0.06970000  0.15190000  0.25550000  1.0 0.3334312238
H  H140  1  0.25550000  0.06970000  0.15190000  1.0 0.3334312238
H  H141  1  0.15190000  0.25550000  0.06970000  1.0 0.3334312238
H  H142  1  0.13910000  0.07630000  0.25950000  1.0 0.3361829005
H  H143  1  0.25950000  0.13910000  0.07630000  1.0 0.3361829005
H  H144  1  0.07630000  0.25950000  0.13910000  1.0 0.3361829005
H  H145  1  0.65190000  0.56970000  0.75550000  1.0 0.3334312238
H  H146  1  0.56970000  0.75550000  0.65190000  1.0 0.3334312238
H  H147  1  0.75550000  0.65190000  0.56970000  1.0 0.3334312238
H  H148  1  0.57630000  0.63910000  0.75950000  1.0 0.3361829005
H  H149  1  0.63910000  0.75950000  0.57630000  1.0 0.3361829005
H  H150  1  0.75950000  0.57630000  0.63910000  1.0 0.3361829005
H  H151  1  0.49450000  0.22710000  0.68030000  1.0 0.3334312238
H  H152  1  0.59810000  0.22710000  0.49450000  1.0 0.3334312238
H  H153  1  0.68030000  0.22710000  0.59810000  1.0 0.3334312238
H  H154  1  0.49050000  0.22490000  0.61090000  1.0 0.3361829005
H  H155  1  0.67370000  0.22490000  0.49050000  1.0 0.3361829005
H  H156  1  0.61090000  0.22490000  0.67370000  1.0 0.3361829005
H  H157  1  0.22710000  0.49450000  0.59810000  1.0 0.3334312238
H  H158  1  0.22710000  0.59810000  0.68030000  1.0 0.3334312238
H  H159  1  0.22710000  0.68030000  0.49450000  1.0 0.3334312238
H  H160  1  0.22490000  0.49050000  0.67370000  1.0 0.3361829005
H  H161  1  0.22490000  0.67370000  0.61090000  1.0 0.3361829005
H  H162  1  0.22490000  0.61090000  0.49050000  1.0 0.3361829005
H  H163  1  0.59810000  0.68030000  0.22710000  1.0 0.3334312238
H  H164  1  0.68030000  0.49450000  0.22710000  1.0 0.3334312238
H  H165  1  0.49450000  0.59810000  0.22710000  1.0 0.3334312238
H  H166  1  0.67370000  0.61090000  0.22490000  1.0 0.3361829005
H  H167  1  0.61090000  0.49050000  0.22490000  1.0 0.3361829005
H  H168  1  0.49050000  0.67370000  0.22490000  1.0 0.3361829005
H  H169  1  0.02290000  0.75550000  0.56970000  1.0 0.3334312238
H  H170  1  0.02290000  0.65190000  0.75550000  1.0 0.3334312238
H  H171  1  0.02290000  0.56970000  0.65190000  1.0 0.3334312238
H  H172  1  0.02510000  0.75950000  0.63910000  1.0 0.3361829005
H  H173  1  0.02510000  0.57630000  0.75950000  1.0 0.3361829005
H  H174  1  0.02510000  0.63910000  0.57630000  1.0 0.3361829005
H  H175  1  0.75550000  0.02290000  0.65190000  1.0 0.3334312238
H  H176  1  0.65190000  0.02290000  0.56970000  1.0 0.3334312238
H  H177  1  0.56970000  0.02290000  0.75550000  1.0 0.3334312238
H  H178  1  0.75950000  0.02510000  0.57630000  1.0 0.3361829005
H  H179  1  0.57630000  0.02510000  0.63910000  1.0 0.3361829005
H  H180  1  0.63910000  0.02510000  0.75950000  1.0 0.3361829005
H  H181  1  0.56970000  0.65190000  0.02290000  1.0 0.3334312238
H  H182  1  0.75550000  0.56970000  0.02290000  1.0 0.3334312238
H  H183  1  0.65190000  0.75550000  0.02290000  1.0 0.3334312238
H  H184  1  0.63910000  0.57630000  0.02510000  1.0 0.3361829005
H  H185  1  0.75950000  0.63910000  0.02510000  1.0 0.3361829005
H  H186  1  0.57630000  0.75950000  0.02510000  1.0 0.3361829005
H  H187  1  0.68030000  0.59810000  0.49450000  1.0 0.3334312238
H  H188  1  0.49450000  0.68030000  0.59810000  1.0 0.3334312238
H  H189  1  0.59810000  0.49450000  0.68030000  1.0 0.3334312238
H  H190  1  0.61090000  0.67370000  0.49050000  1.0 0.3361829005
H  H191  1  0.49050000  0.61090000  0.67370000  1.0 0.3361829005
H  H192  1  0.67370000  0.49050000  0.61090000  1.0 0.3361829005
C  C1  1  0.50511000  0.82991000  0.49439000  1.0 0.8077174088
C  C2  1  0.49439000  0.50511000  0.82991000  1.0 0.8077174088
C  C3  1  0.82991000  0.49439000  0.50511000  1.0 0.8077174088
C  C4  1  0.74489000  0.42009000  0.07941000  1.0 0.8077174088
C  C5  1  0.75561000  0.07941000  0.42009000  1.0 0.8077174088
C  C6  1  0.07941000  0.75561000  0.74489000  1.0 0.8077174088
C  C7  1  0.75561000  0.74489000  0.07941000  1.0 0.8077174088
C  C8  1  0.07941000  0.42009000  0.75561000  1.0 0.8077174088
C  C9  1  0.42009000  0.07941000  0.74489000  1.0 0.8077174088
C  C10  1  0.42009000  0.75561000  0.07941000  1.0 0.8077174088
C  C11  1  0.74489000  0.07941000  0.75561000  1.0 0.8077174088
C  C12  1  0.07941000  0.74489000  0.42009000  1.0 0.8077174088
C  C13  1  0.82991000  0.50511000  0.17059000  1.0 0.8077174088
C  C14  1  0.50511000  0.49439000  0.17059000  1.0 0.8077174088
C  C15  1  0.49439000  0.82991000  0.17059000  1.0 0.8077174088
C  C16  1  0.17059000  0.49439000  0.82991000  1.0 0.8077174088
C  C17  1  0.17059000  0.82991000  0.50511000  1.0 0.8077174088
C  C18  1  0.17059000  0.50511000  0.49439000  1.0 0.8077174088
C  C19  1  0.49439000  0.17059000  0.50511000  1.0 0.8077174088
C  C20  1  0.82991000  0.17059000  0.49439000  1.0 0.8077174088
C  C21  1  0.50511000  0.17059000  0.82991000  1.0 0.8077174088
C  C22  1  0.42009000  0.74489000  0.75561000  1.0 0.8077174088
C  C23  1  0.74489000  0.75561000  0.42009000  1.0 0.8077174088
C  C24  1  0.75561000  0.42009000  0.74489000  1.0 0.8077174088
C  C25  1  0.24489000  0.92009000  0.25561000  1.0 0.8077174088
C  C26  1  0.25561000  0.24489000  0.92009000  1.0 0.8077174088
C  C27  1  0.92009000  0.25561000  0.24489000  1.0 0.8077174088
C  C28  1  0.00511000  0.32991000  0.67059000  1.0 0.8077174088
C  C29  1  0.99439000  0.67059000  0.32991000  1.0 0.8077174088
C  C30  1  0.67059000  0.99439000  0.00511000  1.0 0.8077174088
C  C31  1  0.99439000  0.00511000  0.67059000  1.0 0.8077174088
C  C32  1  0.67059000  0.32991000  0.99439000  1.0 0.8077174088
C  C33  1  0.32991000  0.67059000  0.00511000  1.0 0.8077174088
C  C34  1  0.32991000  0.99439000  0.67059000  1.0 0.8077174088
C  C35  1  0.00511000  0.67059000  0.99439000  1.0 0.8077174088
C  C36  1  0.67059000  0.00511000  0.32991000  1.0 0.8077174088
C  C37  1  0.92009000  0.24489000  0.57941000  1.0 0.8077174088
C  C38  1  0.24489000  0.25561000  0.57941000  1.0 0.8077174088
C  C39  1  0.25561000  0.92009000  0.57941000  1.0 0.8077174088
C  C40  1  0.57941000  0.25561000  0.92009000  1.0 0.8077174088
C  C41  1  0.57941000  0.92009000  0.24489000  1.0 0.8077174088
C  C42  1  0.57941000  0.24489000  0.25561000  1.0 0.8077174088
C  C43  1  0.25561000  0.57941000  0.24489000  1.0 0.8077174088
C  C44  1  0.92009000  0.57941000  0.25561000  1.0 0.8077174088
C  C45  1  0.24489000  0.57941000  0.92009000  1.0 0.8077174088
C  C46  1  0.32991000  0.00511000  0.99439000  1.0 0.8077174088
C  C47  1  0.00511000  0.99439000  0.32991000  1.0 0.8077174088
C  C48  1  0.99439000  0.32991000  0.00511000  1.0 0.8077174088
C  C49  1  0.40797000  0.40797000  0.40797000  1.0 0.6747789182
C  C50  1  0.84203000  0.47391000  0.84203000  1.0 0.6747789182
C  C51  1  0.47391000  0.84203000  0.84203000  1.0 0.6747789182
C  C52  1  0.84203000  0.84203000  0.47391000  1.0 0.6747789182
C  C53  1  0.77609000  0.40797000  0.40797000  1.0 0.6747789182
C  C54  1  0.40797000  0.77609000  0.40797000  1.0 0.6747789182
C  C55  1  0.40797000  0.40797000  0.77609000  1.0 0.6747789182
C  C56  1  0.84203000  0.84203000  0.84203000  1.0 0.6747789182
C  C57  1  0.34203000  0.34203000  0.34203000  1.0 0.6747789182
C  C58  1  0.90797000  0.27609000  0.90797000  1.0 0.6747789182
C  C59  1  0.27609000  0.90797000  0.90797000  1.0 0.6747789182
C  C60  1  0.90797000  0.90797000  0.27609000  1.0 0.6747789182
C  C61  1  0.97391000  0.34203000  0.34203000  1.0 0.6747789182
C  C62  1  0.34203000  0.97391000  0.34203000  1.0 0.6747789182
C  C63  1  0.34203000  0.34203000  0.97391000  1.0 0.6747789182
C  C64  1  0.90797000  0.90797000  0.90797000  1.0 0.6747789182
C  C65  1  0.09185000  0.09185000  0.09185000  1.0 0.6747789182
C  C66  1  0.15815000  0.52555000  0.15815000  1.0 0.6747789182
C  C67  1  0.52555000  0.15815000  0.15815000  1.0 0.6747789182
C  C68  1  0.15815000  0.15815000  0.52555000  1.0 0.6747789182
C  C69  1  0.72445000  0.09185000  0.09185000  1.0 0.6747789182
C  C70  1  0.09185000  0.72445000  0.09185000  1.0 0.6747789182
C  C71  1  0.09185000  0.09185000  0.72445000  1.0 0.6747789182
C  C72  1  0.15815000  0.15815000  0.15815000  1.0 0.6747789182
C  C73  1  0.65815000  0.65815000  0.65815000  1.0 0.6747789182
C  C74  1  0.59185000  0.22445000  0.59185000  1.0 0.6747789182
C  C75  1  0.22445000  0.59185000  0.59185000  1.0 0.6747789182
C  C76  1  0.59185000  0.59185000  0.22445000  1.0 0.6747789182
C  C77  1  0.02555000  0.65815000  0.65815000  1.0 0.6747789182
C  C78  1  0.65815000  0.02555000  0.65815000  1.0 0.6747789182
C  C79  1  0.65815000  0.65815000  0.02555000  1.0 0.6747789182
C  C80  1  0.59185000  0.59185000  0.59185000  1.0 0.6747789182
N  N1  1  0.36807000  0.37393000  0.48307000  1.0 -0.5991292151
N  N2  1  0.37393000  0.48307000  0.36807000  1.0 -0.5991292151
N  N3  1  0.48307000  0.36807000  0.37393000  1.0 -0.5991292151
N  N4  1  0.76693000  0.47507000  0.87607000  1.0 -0.5991292151
N  N5  1  0.88193000  0.47507000  0.76693000  1.0 -0.5991292151
N  N6  1  0.87607000  0.47507000  0.88193000  1.0 -0.5991292151
N  N7  1  0.47507000  0.76693000  0.88193000  1.0 -0.5991292151
N  N8  1  0.47507000  0.88193000  0.87607000  1.0 -0.5991292151
N  N9  1  0.47507000  0.87607000  0.76693000  1.0 -0.5991292151
N  N10  1  0.88193000  0.87607000  0.47507000  1.0 -0.5991292151
N  N11  1  0.87607000  0.76693000  0.47507000  1.0 -0.5991292151
N  N12  1  0.76693000  0.88193000  0.47507000  1.0 -0.5991292151
N  N13  1  0.77493000  0.48307000  0.37393000  1.0 -0.5991292151
N  N14  1  0.77493000  0.36807000  0.48307000  1.0 -0.5991292151
N  N15  1  0.77493000  0.37393000  0.36807000  1.0 -0.5991292151
N  N16  1  0.48307000  0.77493000  0.36807000  1.0 -0.5991292151
N  N17  1  0.36807000  0.77493000  0.37393000  1.0 -0.5991292151
N  N18  1  0.37393000  0.77493000  0.48307000  1.0 -0.5991292151
N  N19  1  0.37393000  0.36807000  0.77493000  1.0 -0.5991292151
N  N20  1  0.48307000  0.37393000  0.77493000  1.0 -0.5991292151
N  N21  1  0.36807000  0.48307000  0.77493000  1.0 -0.5991292151
N  N22  1  0.87607000  0.88193000  0.76693000  1.0 -0.5991292151
N  N23  1  0.76693000  0.87607000  0.88193000  1.0 -0.5991292151
N  N24  1  0.88193000  0.76693000  0.87607000  1.0 -0.5991292151
N  N25  1  0.38193000  0.37607000  0.26693000  1.0 -0.5991292151
N  N26  1  0.37607000  0.26693000  0.38193000  1.0 -0.5991292151
N  N27  1  0.26693000  0.38193000  0.37607000  1.0 -0.5991292151
N  N28  1  0.98307000  0.27493000  0.87393000  1.0 -0.5991292151
N  N29  1  0.86807000  0.27493000  0.98307000  1.0 -0.5991292151
N  N30  1  0.87393000  0.27493000  0.86807000  1.0 -0.5991292151
N  N31  1  0.27493000  0.98307000  0.86807000  1.0 -0.5991292151
N  N32  1  0.27493000  0.86807000  0.87393000  1.0 -0.5991292151
N  N33  1  0.27493000  0.87393000  0.98307000  1.0 -0.5991292151
N  N34  1  0.86807000  0.87393000  0.27493000  1.0 -0.5991292151
N  N35  1  0.87393000  0.98307000  0.27493000  1.0 -0.5991292151
N  N36  1  0.98307000  0.86807000  0.27493000  1.0 -0.5991292151
N  N37  1  0.97507000  0.26693000  0.37607000  1.0 -0.5991292151
N  N38  1  0.97507000  0.38193000  0.26693000  1.0 -0.5991292151
N  N39  1  0.97507000  0.37607000  0.38193000  1.0 -0.5991292151
N  N40  1  0.26693000  0.97507000  0.38193000  1.0 -0.5991292151
N  N41  1  0.38193000  0.97507000  0.37607000  1.0 -0.5991292151
N  N42  1  0.37607000  0.97507000  0.26693000  1.0 -0.5991292151
N  N43  1  0.37607000  0.38193000  0.97507000  1.0 -0.5991292151
N  N44  1  0.26693000  0.37607000  0.97507000  1.0 -0.5991292151
N  N45  1  0.38193000  0.26693000  0.97507000  1.0 -0.5991292151
N  N46  1  0.87393000  0.86807000  0.98307000  1.0 -0.5991292151
N  N47  1  0.98307000  0.87393000  0.86807000  1.0 -0.5991292151
N  N48  1  0.86807000  0.98307000  0.87393000  1.0 -0.5991292151
N  N49  1  0.12515000  0.13247000  0.01679000  1.0 -0.5991292151
N  N50  1  0.13247000  0.01679000  0.12515000  1.0 -0.5991292151
N  N51  1  0.01679000  0.12515000  0.13247000  1.0 -0.5991292151
N  N52  1  0.23321000  0.52441000  0.11753000  1.0 -0.5991292151
N  N53  1  0.12485000  0.52441000  0.23321000  1.0 -0.5991292151
N  N54  1  0.11753000  0.52441000  0.12485000  1.0 -0.5991292151
N  N55  1  0.52441000  0.23321000  0.12485000  1.0 -0.5991292151
N  N56  1  0.52441000  0.12485000  0.11753000  1.0 -0.5991292151
N  N57  1  0.52441000  0.11753000  0.23321000  1.0 -0.5991292151
N  N58  1  0.12485000  0.11753000  0.52441000  1.0 -0.5991292151
N  N59  1  0.11753000  0.23321000  0.52441000  1.0 -0.5991292151
N  N60  1  0.23321000  0.12485000  0.52441000  1.0 -0.5991292151
N  N61  1  0.72559000  0.01679000  0.13247000  1.0 -0.5991292151
N  N62  1  0.72559000  0.12515000  0.01679000  1.0 -0.5991292151
N  N63  1  0.72559000  0.13247000  0.12515000  1.0 -0.5991292151
N  N64  1  0.01679000  0.72559000  0.12515000  1.0 -0.5991292151
N  N65  1  0.12515000  0.72559000  0.13247000  1.0 -0.5991292151
N  N66  1  0.13247000  0.72559000  0.01679000  1.0 -0.5991292151
N  N67  1  0.13247000  0.12515000  0.72559000  1.0 -0.5991292151
N  N68  1  0.01679000  0.13247000  0.72559000  1.0 -0.5991292151
N  N69  1  0.12515000  0.01679000  0.72559000  1.0 -0.5991292151
N  N70  1  0.11753000  0.12485000  0.23321000  1.0 -0.5991292151
N  N71  1  0.23321000  0.11753000  0.12485000  1.0 -0.5991292151
N  N72  1  0.12485000  0.23321000  0.11753000  1.0 -0.5991292151
N  N73  1  0.62485000  0.61753000  0.73321000  1.0 -0.5991292151
N  N74  1  0.61753000  0.73321000  0.62485000  1.0 -0.5991292151
N  N75  1  0.73321000  0.62485000  0.61753000  1.0 -0.5991292151
N  N76  1  0.51679000  0.22559000  0.63247000  1.0 -0.5991292151
N  N77  1  0.62515000  0.22559000  0.51679000  1.0 -0.5991292151
N  N78  1  0.63247000  0.22559000  0.62515000  1.0 -0.5991292151
N  N79  1  0.22559000  0.51679000  0.62515000  1.0 -0.5991292151
N  N80  1  0.22559000  0.62515000  0.63247000  1.0 -0.5991292151
N  N81  1  0.22559000  0.63247000  0.51679000  1.0 -0.5991292151
N  N82  1  0.62515000  0.63247000  0.22559000  1.0 -0.5991292151
N  N83  1  0.63247000  0.51679000  0.22559000  1.0 -0.5991292151
N  N84  1  0.51679000  0.62515000  0.22559000  1.0 -0.5991292151
N  N85  1  0.02441000  0.73321000  0.61753000  1.0 -0.5991292151
N  N86  1  0.02441000  0.62485000  0.73321000  1.0 -0.5991292151
N  N87  1  0.02441000  0.61753000  0.62485000  1.0 -0.5991292151
N  N88  1  0.73321000  0.02441000  0.62485000  1.0 -0.5991292151
N  N89  1  0.62485000  0.02441000  0.61753000  1.0 -0.5991292151
N  N90  1  0.61753000  0.02441000  0.73321000  1.0 -0.5991292151
N  N91  1  0.61753000  0.62485000  0.02441000  1.0 -0.5991292151
N  N92  1  0.73321000  0.61753000  0.02441000  1.0 -0.5991292151
N  N93  1  0.62485000  0.73321000  0.02441000  1.0 -0.5991292151
N  N94  1  0.63247000  0.62515000  0.51679000  1.0 -0.5991292151
N  N95  1  0.51679000  0.63247000  0.62515000  1.0 -0.5991292151
N  N96  1  0.62515000  0.51679000  0.63247000  1.0 -0.5991292151
O  O1  1  0.55587000  0.78985000  0.44575000  1.0 -0.6153782601
O  O2  1  0.44575000  0.55587000  0.78985000  1.0 -0.6153782601
O  O3  1  0.78985000  0.44575000  0.55587000  1.0 -0.6153782601
O  O4  1  0.69413000  0.46015000  0.04147000  1.0 -0.6153782601
O  O5  1  0.80425000  0.04147000  0.46015000  1.0 -0.6153782601
O  O6  1  0.04147000  0.80425000  0.69413000  1.0 -0.6153782601
O  O7  1  0.80425000  0.69413000  0.04147000  1.0 -0.6153782601
O  O8  1  0.04147000  0.46015000  0.80425000  1.0 -0.6153782601
O  O9  1  0.46015000  0.04147000  0.69413000  1.0 -0.6153782601
O  O10  1  0.46015000  0.80425000  0.04147000  1.0 -0.6153782601
O  O11  1  0.69413000  0.04147000  0.80425000  1.0 -0.6153782601
O  O12  1  0.04147000  0.69413000  0.46015000  1.0 -0.6153782601
O  O13  1  0.78985000  0.55587000  0.20853000  1.0 -0.6153782601
O  O14  1  0.55587000  0.44575000  0.20853000  1.0 -0.6153782601
O  O15  1  0.44575000  0.78985000  0.20853000  1.0 -0.6153782601
O  O16  1  0.20853000  0.44575000  0.78985000  1.0 -0.6153782601
O  O17  1  0.20853000  0.78985000  0.55587000  1.0 -0.6153782601
O  O18  1  0.20853000  0.55587000  0.44575000  1.0 -0.6153782601
O  O19  1  0.44575000  0.20853000  0.55587000  1.0 -0.6153782601
O  O20  1  0.78985000  0.20853000  0.44575000  1.0 -0.6153782601
O  O21  1  0.55587000  0.20853000  0.78985000  1.0 -0.6153782601
O  O22  1  0.46015000  0.69413000  0.80425000  1.0 -0.6153782601
O  O23  1  0.69413000  0.80425000  0.46015000  1.0 -0.6153782601
O  O24  1  0.80425000  0.46015000  0.69413000  1.0 -0.6153782601
O  O25  1  0.19413000  0.96015000  0.30425000  1.0 -0.6153782601
O  O26  1  0.30425000  0.19413000  0.96015000  1.0 -0.6153782601
O  O27  1  0.96015000  0.30425000  0.19413000  1.0 -0.6153782601
O  O28  1  0.05587000  0.28985000  0.70853000  1.0 -0.6153782601
O  O29  1  0.94575000  0.70853000  0.28985000  1.0 -0.6153782601
O  O30  1  0.70853000  0.94575000  0.05587000  1.0 -0.6153782601
O  O31  1  0.94575000  0.05587000  0.70853000  1.0 -0.6153782601
O  O32  1  0.70853000  0.28985000  0.94575000  1.0 -0.6153782601
O  O33  1  0.28985000  0.70853000  0.05587000  1.0 -0.6153782601
O  O34  1  0.28985000  0.94575000  0.70853000  1.0 -0.6153782601
O  O35  1  0.05587000  0.70853000  0.94575000  1.0 -0.6153782601
O  O36  1  0.70853000  0.05587000  0.28985000  1.0 -0.6153782601
O  O37  1  0.96015000  0.19413000  0.54147000  1.0 -0.6153782601
O  O38  1  0.19413000  0.30425000  0.54147000  1.0 -0.6153782601
O  O39  1  0.30425000  0.96015000  0.54147000  1.0 -0.6153782601
O  O40  1  0.54147000  0.30425000  0.96015000  1.0 -0.6153782601
O  O41  1  0.54147000  0.96015000  0.19413000  1.0 -0.6153782601
O  O42  1  0.54147000  0.19413000  0.30425000  1.0 -0.6153782601
O  O43  1  0.30425000  0.54147000  0.19413000  1.0 -0.6153782601
O  O44  1  0.96015000  0.54147000  0.30425000  1.0 -0.6153782601
O  O45  1  0.19413000  0.54147000  0.96015000  1.0 -0.6153782601
O  O46  1  0.28985000  0.05587000  0.94575000  1.0 -0.6153782601
O  O47  1  0.05587000  0.94575000  0.28985000  1.0 -0.6153782601
O  O48  1  0.94575000  0.28985000  0.05587000  1.0 -0.6153782601
O  O49  1  0.44650000  0.80704000  0.55216000  1.0 -0.6153782601
O  O50  1  0.55216000  0.44650000  0.80704000  1.0 -0.6153782601
O  O51  1  0.80704000  0.55216000  0.44650000  1.0 -0.6153782601
O  O52  1  0.80350000  0.44296000  0.05570000  1.0 -0.6153782601
O  O53  1  0.69784000  0.05570000  0.44296000  1.0 -0.6153782601
O  O54  1  0.05570000  0.69784000  0.80350000  1.0 -0.6153782601
O  O55  1  0.69784000  0.80350000  0.05570000  1.0 -0.6153782601
O  O56  1  0.05570000  0.44296000  0.69784000  1.0 -0.6153782601
O  O57  1  0.44296000  0.05570000  0.80350000  1.0 -0.6153782601
O  O58  1  0.44296000  0.69784000  0.05570000  1.0 -0.6153782601
O  O59  1  0.80350000  0.05570000  0.69784000  1.0 -0.6153782601
O  O60  1  0.05570000  0.80350000  0.44296000  1.0 -0.6153782601
O  O61  1  0.80704000  0.44650000  0.19430000  1.0 -0.6153782601
O  O62  1  0.44650000  0.55216000  0.19430000  1.0 -0.6153782601
O  O63  1  0.55216000  0.80704000  0.19430000  1.0 -0.6153782601
O  O64  1  0.19430000  0.55216000  0.80704000  1.0 -0.6153782601
O  O65  1  0.19430000  0.80704000  0.44650000  1.0 -0.6153782601
O  O66  1  0.19430000  0.44650000  0.55216000  1.0 -0.6153782601
O  O67  1  0.55216000  0.19430000  0.44650000  1.0 -0.6153782601
O  O68  1  0.80704000  0.19430000  0.55216000  1.0 -0.6153782601
O  O69  1  0.44650000  0.19430000  0.80704000  1.0 -0.6153782601
O  O70  1  0.44296000  0.80350000  0.69784000  1.0 -0.6153782601
O  O71  1  0.80350000  0.69784000  0.44296000  1.0 -0.6153782601
O  O72  1  0.69784000  0.44296000  0.80350000  1.0 -0.6153782601
O  O73  1  0.30350000  0.94296000  0.19784000  1.0 -0.6153782601
O  O74  1  0.19784000  0.30350000  0.94296000  1.0 -0.6153782601
O  O75  1  0.94296000  0.19784000  0.30350000  1.0 -0.6153782601
O  O76  1  0.94650000  0.30704000  0.69430000  1.0 -0.6153782601
O  O77  1  0.05216000  0.69430000  0.30704000  1.0 -0.6153782601
O  O78  1  0.69430000  0.05216000  0.94650000  1.0 -0.6153782601
O  O79  1  0.05216000  0.94650000  0.69430000  1.0 -0.6153782601
O  O80  1  0.69430000  0.30704000  0.05216000  1.0 -0.6153782601
O  O81  1  0.30704000  0.69430000  0.94650000  1.0 -0.6153782601
O  O82  1  0.30704000  0.05216000  0.69430000  1.0 -0.6153782601
O  O83  1  0.94650000  0.69430000  0.05216000  1.0 -0.6153782601
O  O84  1  0.69430000  0.94650000  0.30704000  1.0 -0.6153782601
O  O85  1  0.94296000  0.30350000  0.55570000  1.0 -0.6153782601
O  O86  1  0.30350000  0.19784000  0.55570000  1.0 -0.6153782601
O  O87  1  0.19784000  0.94296000  0.55570000  1.0 -0.6153782601
O  O88  1  0.55570000  0.19784000  0.94296000  1.0 -0.6153782601
O  O89  1  0.55570000  0.94296000  0.30350000  1.0 -0.6153782601
O  O90  1  0.55570000  0.30350000  0.19784000  1.0 -0.6153782601
O  O91  1  0.19784000  0.55570000  0.30350000  1.0 -0.6153782601
O  O92  1  0.94296000  0.55570000  0.19784000  1.0 -0.6153782601
O  O93  1  0.30350000  0.55570000  0.94296000  1.0 -0.6153782601
O  O94  1  0.30704000  0.94650000  0.05216000  1.0 -0.6153782601
O  O95  1  0.94650000  0.05216000  0.30704000  1.0 -0.6153782601
O  O96  1  0.05216000  0.30704000  0.94650000  1.0 -0.6153782601
O  O97  1  0.51658000  0.89122000  0.48188000  1.0 -0.6412810213
O  O98  1  0.48188000  0.51658000  0.89122000  1.0 -0.6412810213
O  O99  1  0.89122000  0.48188000  0.51658000  1.0 -0.6412810213
O  O100  1  0.73342000  0.35878000  0.13968000  1.0 -0.6412810213
O  O101  1  0.76812000  0.13968000  0.35878000  1.0 -0.6412810213
O  O102  1  0.13968000  0.76812000  0.73342000  1.0 -0.6412810213
O  O103  1  0.76812000  0.73342000  0.13968000  1.0 -0.6412810213
O  O104  1  0.13968000  0.35878000  0.76812000  1.0 -0.6412810213
O  O105  1  0.35878000  0.13968000  0.73342000  1.0 -0.6412810213
O  O106  1  0.35878000  0.76812000  0.13968000  1.0 -0.6412810213
O  O107  1  0.73342000  0.13968000  0.76812000  1.0 -0.6412810213
O  O108  1  0.13968000  0.73342000  0.35878000  1.0 -0.6412810213
O  O109  1  0.89122000  0.51658000  0.11032000  1.0 -0.6412810213
O  O110  1  0.51658000  0.48188000  0.11032000  1.0 -0.6412810213
O  O111  1  0.48188000  0.89122000  0.11032000  1.0 -0.6412810213
O  O112  1  0.11032000  0.48188000  0.89122000  1.0 -0.6412810213
O  O113  1  0.11032000  0.89122000  0.51658000  1.0 -0.6412810213
O  O114  1  0.11032000  0.51658000  0.48188000  1.0 -0.6412810213
O  O115  1  0.48188000  0.11032000  0.51658000  1.0 -0.6412810213
O  O116  1  0.89122000  0.11032000  0.48188000  1.0 -0.6412810213
O  O117  1  0.51658000  0.11032000  0.89122000  1.0 -0.6412810213
O  O118  1  0.35878000  0.73342000  0.76812000  1.0 -0.6412810213
O  O119  1  0.73342000  0.76812000  0.35878000  1.0 -0.6412810213
O  O120  1  0.76812000  0.35878000  0.73342000  1.0 -0.6412810213
O  O121  1  0.23342000  0.85878000  0.26812000  1.0 -0.6412810213
O  O122  1  0.26812000  0.23342000  0.85878000  1.0 -0.6412810213
O  O123  1  0.85878000  0.26812000  0.23342000  1.0 -0.6412810213
O  O124  1  0.01658000  0.39122000  0.61032000  1.0 -0.6412810213
O  O125  1  0.98188000  0.61032000  0.39122000  1.0 -0.6412810213
O  O126  1  0.61032000  0.98188000  0.01658000  1.0 -0.6412810213
O  O127  1  0.98188000  0.01658000  0.61032000  1.0 -0.6412810213
O  O128  1  0.61032000  0.39122000  0.98188000  1.0 -0.6412810213
O  O129  1  0.39122000  0.61032000  0.01658000  1.0 -0.6412810213
O  O130  1  0.39122000  0.98188000  0.61032000  1.0 -0.6412810213
O  O131  1  0.01658000  0.61032000  0.98188000  1.0 -0.6412810213
O  O132  1  0.61032000  0.01658000  0.39122000  1.0 -0.6412810213
O  O133  1  0.85878000  0.23342000  0.63968000  1.0 -0.6412810213
O  O134  1  0.23342000  0.26812000  0.63968000  1.0 -0.6412810213
O  O135  1  0.26812000  0.85878000  0.63968000  1.0 -0.6412810213
O  O136  1  0.63968000  0.26812000  0.85878000  1.0 -0.6412810213
O  O137  1  0.63968000  0.85878000  0.23342000  1.0 -0.6412810213
O  O138  1  0.63968000  0.23342000  0.26812000  1.0 -0.6412810213
O  O139  1  0.26812000  0.63968000  0.23342000  1.0 -0.6412810213
O  O140  1  0.85878000  0.63968000  0.26812000  1.0 -0.6412810213
O  O141  1  0.23342000  0.63968000  0.85878000  1.0 -0.6412810213
O  O142  1  0.39122000  0.01658000  0.98188000  1.0 -0.6412810213
O  O143  1  0.01658000  0.98188000  0.39122000  1.0 -0.6412810213
O  O144  1  0.98188000  0.39122000  0.01658000  1.0 -0.6412810213
O  O145  1  0.82870000  0.82870000  0.17130000  1.0 -0.4035434716
O  O146  1  0.17130000  0.82870000  0.82870000  1.0 -0.4035434716
O  O147  1  0.82870000  0.17130000  0.82870000  1.0 -0.4035434716
O  O148  1  0.42130000  0.42130000  0.07870000  1.0 -0.4035434716
O  O149  1  0.07870000  0.07870000  0.42130000  1.0 -0.4035434716
O  O150  1  0.07870000  0.42130000  0.07870000  1.0 -0.4035434716
O  O151  1  0.42130000  0.07870000  0.42130000  1.0 -0.4035434716
O  O152  1  0.42130000  0.07870000  0.07870000  1.0 -0.4035434716
O  O153  1  0.07870000  0.42130000  0.42130000  1.0 -0.4035434716
O  O154  1  0.82870000  0.17130000  0.17130000  1.0 -0.4035434716
O  O155  1  0.17130000  0.82870000  0.17130000  1.0 -0.4052902065
O  O156  1  0.17130000  0.17130000  0.82870000  1.0 -0.4035434716
O  O157  1  0.92130000  0.92130000  0.57870000  1.0 -0.4035434716
O  O158  1  0.57870000  0.92130000  0.92130000  1.0 -0.4035434716
O  O159  1  0.92130000  0.57870000  0.92130000  1.0 -0.4035434716
O  O160  1  0.32870000  0.32870000  0.67130000  1.0 -0.4035434716
O  O161  1  0.67130000  0.67130000  0.32870000  1.0 -0.4035434716
O  O162  1  0.67130000  0.32870000  0.67130000  1.0 -0.4035434716
O  O163  1  0.32870000  0.67130000  0.32870000  1.0 -0.4035434716
O  O164  1  0.32870000  0.67130000  0.67130000  1.0 -0.4035434716
O  O165  1  0.67130000  0.32870000  0.32870000  1.0 -0.4035434716
O  O166  1  0.92130000  0.57870000  0.57870000  1.0 -0.4035434716
O  O167  1  0.57870000  0.92130000  0.57870000  1.0 -0.4035434716
O  O168  1  0.57870000  0.57870000  0.92130000  1.0 -0.4035434716
