# DDEC6 charges by PACMAN v1.1 (https://github.com/mtap-research/PACMAN-charge/)
data_IWAYOU_ion_pacman
_symmetry_space_group_name_H-M   'P 1'
_cell_length_a   20.43940000
_cell_length_b   20.43940000
_cell_length_c   20.43940000
_cell_angle_alpha   60.00000000
_cell_angle_beta   60.00000000
_cell_angle_gamma   60.00000000
_symmetry_Int_Tables_number   1
_chemical_formula_structural   Na3Co6H48C20(N4O7)6
_chemical_formula_sum   'Na12 Co24 H192 C80 N96 O168'
_cell_volume   6037.94886768
_cell_formula_units_Z   4
loop_
 _symmetry_equiv_pos_site_id
 _symmetry_equiv_pos_as_xyz
  1  'x, y, z'
loop_
 _atom_site_type_symbol
 _atom_site_label
 _atom_site_symmetry_multiplicity
 _atom_site_fract_x
 _atom_site_fract_y
 _atom_site_fract_z
 _atom_site_occupancy
 _atom_site_charge
Na  Na1  1  0.25000000  0.75000000  0.25000000  1.0 0.8562095515
Na  Na2  1  0.75000000  0.25000000  0.75000000  1.0 0.8562095515
Na  Na3  1  0.50000000  0.00000000  0.00000000  1.0 0.8562095515
Na  Na4  1  0.00000000  0.50000000  0.50000000  1.0 0.8562095515
Na  Na5  1  0.75000000  0.25000000  0.25000000  1.0 0.8562095515
Na  Na6  1  0.50000000  0.00000000  0.50000000  1.0 0.8562095515
Na  Na7  1  0.00000000  0.50000000  0.00000000  1.0 0.8562095515
Na  Na8  1  0.25000000  0.25000000  0.75000000  1.0 0.8562095515
Na  Na9  1  0.50000000  0.50000000  0.00000000  1.0 0.8562095515
Na  Na10  1  0.75000000  0.75000000  0.25000000  1.0 0.8562095515
Na  Na11  1  0.00000000  0.00000000  0.50000000  1.0 0.8562095515
Na  Na12  1  0.25000000  0.75000000  0.75000000  1.0 0.8562095515
Co  Co1  1  0.37770000  0.62500000  0.12500000  1.0 0.9504413284
Co  Co2  1  0.87230000  0.12500000  0.62500000  1.0 0.9504413284
Co  Co3  1  0.37770000  0.12500000  0.87230000  1.0 0.9504413284
Co  Co4  1  0.87230000  0.62500000  0.37770000  1.0 0.9504413284
Co  Co5  1  0.12500000  0.37770000  0.62500000  1.0 0.9504413284
Co  Co6  1  0.62500000  0.12500000  0.37770000  1.0 0.9504413284
Co  Co7  1  0.87230000  0.37770000  0.12500000  1.0 0.9504413284
Co  Co8  1  0.37770000  0.87230000  0.62500000  1.0 0.9504413284
Co  Co9  1  0.62500000  0.37770000  0.87230000  1.0 0.9504413284
Co  Co10  1  0.62500000  0.87230000  0.12500000  1.0 0.9504413284
Co  Co11  1  0.12500000  0.87230000  0.37770000  1.0 0.9504413284
Co  Co12  1  0.12500000  0.62500000  0.87230000  1.0 0.9504413284
Co  Co13  1  0.37230000  0.12500000  0.62500000  1.0 0.9504413284
Co  Co14  1  0.87770000  0.62500000  0.12500000  1.0 0.9504413284
Co  Co15  1  0.37230000  0.62500000  0.87770000  1.0 0.9504413284
Co  Co16  1  0.87770000  0.12500000  0.37230000  1.0 0.9504413284
Co  Co17  1  0.62500000  0.37230000  0.12500000  1.0 0.9504413284
Co  Co18  1  0.12500000  0.62500000  0.37230000  1.0 0.9504413284
Co  Co19  1  0.87770000  0.37230000  0.62500000  1.0 0.9504413284
Co  Co20  1  0.37230000  0.87770000  0.12500000  1.0 0.9504413284
Co  Co21  1  0.12500000  0.37230000  0.87770000  1.0 0.9504413284
Co  Co22  1  0.12500000  0.87770000  0.62500000  1.0 0.9504413284
Co  Co23  1  0.62500000  0.87770000  0.37230000  1.0 0.9504413284
Co  Co24  1  0.62500000  0.12500000  0.87770000  1.0 0.9504413284
H  H1  1  0.36150000  0.97670000  0.23890000  1.0 0.3325997233
H  H2  1  0.42290000  0.97670000  0.36150000  1.0 0.3325997233
H  H3  1  0.23890000  0.97670000  0.42290000  1.0 0.3325997233
H  H4  1  0.43220000  0.97420000  0.24520000  1.0 0.3325997233
H  H5  1  0.34840000  0.97420000  0.43220000  1.0 0.3325997233
H  H6  1  0.24520000  0.97420000  0.34840000  1.0 0.3325997233
H  H7  1  0.88850000  0.27330000  0.82710000  1.0 0.3325997233
H  H8  1  0.82710000  0.27330000  0.01110000  1.0 0.3325997233
H  H9  1  0.01110000  0.27330000  0.88850000  1.0 0.3325997233
H  H10  1  0.81780000  0.27580000  0.90160000  1.0 0.3325997233
H  H11  1  0.90160000  0.27580000  0.00480000  1.0 0.3325997233
H  H12  1  0.00480000  0.27580000  0.81780000  1.0 0.3325997233
H  H13  1  0.01110000  0.82710000  0.27330000  1.0 0.3325997233
H  H14  1  0.88850000  0.01110000  0.27330000  1.0 0.3325997233
H  H15  1  0.82710000  0.88850000  0.27330000  1.0 0.3325997233
H  H16  1  0.00480000  0.90160000  0.27580000  1.0 0.3325997233
H  H17  1  0.81780000  0.00480000  0.27580000  1.0 0.3325997233
H  H18  1  0.90160000  0.81780000  0.27580000  1.0 0.3325997233
H  H19  1  0.42290000  0.36150000  0.23890000  1.0 0.3325997233
H  H20  1  0.23890000  0.42290000  0.36150000  1.0 0.3325997233
H  H21  1  0.36150000  0.23890000  0.42290000  1.0 0.3325997233
H  H22  1  0.34840000  0.43220000  0.24520000  1.0 0.3325997233
H  H23  1  0.24520000  0.34840000  0.43220000  1.0 0.3325997233
H  H24  1  0.43220000  0.24520000  0.34840000  1.0 0.3325997233
H  H25  1  0.97670000  0.23890000  0.36150000  1.0 0.3325997233
H  H26  1  0.97670000  0.36150000  0.42290000  1.0 0.3325997233
H  H27  1  0.97670000  0.42290000  0.23890000  1.0 0.3325997233
H  H28  1  0.97420000  0.24520000  0.43220000  1.0 0.3325997233
H  H29  1  0.97420000  0.43220000  0.34840000  1.0 0.3325997233
H  H30  1  0.97420000  0.34840000  0.24520000  1.0 0.3325997233
H  H31  1  0.36150000  0.42290000  0.97670000  1.0 0.3325997233
H  H32  1  0.23890000  0.36150000  0.97670000  1.0 0.3325997233
H  H33  1  0.42290000  0.23890000  0.97670000  1.0 0.3325997233
H  H34  1  0.43220000  0.34840000  0.97420000  1.0 0.3325997233
H  H35  1  0.24520000  0.43220000  0.97420000  1.0 0.3325997233
H  H36  1  0.34840000  0.24520000  0.97420000  1.0 0.3325997233
H  H37  1  0.88850000  0.82710000  0.01110000  1.0 0.3325997233
H  H38  1  0.01110000  0.88850000  0.82710000  1.0 0.3325997233
H  H39  1  0.82710000  0.01110000  0.88850000  1.0 0.3325997233
H  H40  1  0.81780000  0.90160000  0.00480000  1.0 0.3325997233
H  H41  1  0.00480000  0.81780000  0.90160000  1.0 0.3325997233
H  H42  1  0.90160000  0.00480000  0.81780000  1.0 0.3325997233
H  H43  1  0.27330000  0.01110000  0.82710000  1.0 0.3325997233
H  H44  1  0.27330000  0.82710000  0.88850000  1.0 0.3325997233
H  H45  1  0.27330000  0.88850000  0.01110000  1.0 0.3325997233
H  H46  1  0.27580000  0.00480000  0.90160000  1.0 0.3325997233
H  H47  1  0.27580000  0.90160000  0.81780000  1.0 0.3325997233
H  H48  1  0.27580000  0.81780000  0.00480000  1.0 0.3325997233
H  H49  1  0.38850000  0.77330000  0.51110000  1.0 0.3325997233
H  H50  1  0.32710000  0.77330000  0.38850000  1.0 0.3325997233
H  H51  1  0.51110000  0.77330000  0.32710000  1.0 0.3325997233
H  H52  1  0.31780000  0.77580000  0.50480000  1.0 0.3325997233
H  H53  1  0.40160000  0.77580000  0.31780000  1.0 0.3325997233
H  H54  1  0.50480000  0.77580000  0.40160000  1.0 0.3325997233
H  H55  1  0.86150000  0.47670000  0.92290000  1.0 0.3325997233
H  H56  1  0.92290000  0.47670000  0.73890000  1.0 0.3325997233
H  H57  1  0.73890000  0.47670000  0.86150000  1.0 0.3325997233
H  H58  1  0.93220000  0.47420000  0.84840000  1.0 0.3325997233
H  H59  1  0.84840000  0.47420000  0.74520000  1.0 0.3325997233
H  H60  1  0.74520000  0.47420000  0.93220000  1.0 0.3325997233
H  H61  1  0.73890000  0.92290000  0.47670000  1.0 0.3325997233
H  H62  1  0.86150000  0.73890000  0.47670000  1.0 0.3325997233
H  H63  1  0.92290000  0.86150000  0.47670000  1.0 0.3325997233
H  H64  1  0.74520000  0.84840000  0.47420000  1.0 0.3325997233
H  H65  1  0.93220000  0.74520000  0.47420000  1.0 0.3325997233
H  H66  1  0.84840000  0.93220000  0.47420000  1.0 0.3325997233
H  H67  1  0.32710000  0.38850000  0.51110000  1.0 0.3325997233
H  H68  1  0.51110000  0.32710000  0.38850000  1.0 0.3325997233
H  H69  1  0.38850000  0.51110000  0.32710000  1.0 0.3325997233
H  H70  1  0.40160000  0.31780000  0.50480000  1.0 0.3325997233
H  H71  1  0.50480000  0.40160000  0.31780000  1.0 0.3325997233
H  H72  1  0.31780000  0.50480000  0.40160000  1.0 0.3325997233
H  H73  1  0.77330000  0.51110000  0.38850000  1.0 0.3325997233
H  H74  1  0.77330000  0.38850000  0.32710000  1.0 0.3325997233
H  H75  1  0.77330000  0.32710000  0.51110000  1.0 0.3325997233
H  H76  1  0.77580000  0.50480000  0.31780000  1.0 0.3325997233
H  H77  1  0.77580000  0.31780000  0.40160000  1.0 0.3325997233
H  H78  1  0.77580000  0.40160000  0.50480000  1.0 0.3325997233
H  H79  1  0.38850000  0.32710000  0.77330000  1.0 0.3325997233
H  H80  1  0.51110000  0.38850000  0.77330000  1.0 0.3325997233
H  H81  1  0.32710000  0.51110000  0.77330000  1.0 0.3325997233
H  H82  1  0.31780000  0.40160000  0.77580000  1.0 0.3325997233
H  H83  1  0.50480000  0.31780000  0.77580000  1.0 0.3325997233
H  H84  1  0.40160000  0.50480000  0.77580000  1.0 0.3325997233
H  H85  1  0.86150000  0.92290000  0.73890000  1.0 0.3325997233
H  H86  1  0.73890000  0.86150000  0.92290000  1.0 0.3325997233
H  H87  1  0.92290000  0.73890000  0.86150000  1.0 0.3325997233
H  H88  1  0.93220000  0.84840000  0.74520000  1.0 0.3325997233
H  H89  1  0.74520000  0.93220000  0.84840000  1.0 0.3325997233
H  H90  1  0.84840000  0.74520000  0.93220000  1.0 0.3325997233
H  H91  1  0.47670000  0.73890000  0.92290000  1.0 0.3325997233
H  H92  1  0.47670000  0.92290000  0.86150000  1.0 0.3325997233
H  H93  1  0.47670000  0.86150000  0.73890000  1.0 0.3325997233
H  H94  1  0.47420000  0.74520000  0.84840000  1.0 0.3325997233
H  H95  1  0.47420000  0.84840000  0.93220000  1.0 0.3325997233
H  H96  1  0.47420000  0.93220000  0.74520000  1.0 0.3325997233
H  H97  1  0.98910000  0.11150000  0.17250000  1.0 0.3325997233
H  H98  1  0.11150000  0.17250000  0.98910000  1.0 0.3325997233
H  H99  1  0.17250000  0.98910000  0.11150000  1.0 0.3325997233
H  H100  1  0.99580000  0.18240000  0.09800000  1.0 0.3325997233
H  H101  1  0.18240000  0.09800000  0.99580000  1.0 0.3325997233
H  H102  1  0.09800000  0.99580000  0.18240000  1.0 0.3325997233
H  H103  1  0.72690000  0.17250000  0.11150000  1.0 0.3325997233
H  H104  1  0.72690000  0.98910000  0.17250000  1.0 0.3325997233
H  H105  1  0.72690000  0.11150000  0.98910000  1.0 0.3325997233
H  H106  1  0.72380000  0.09800000  0.18240000  1.0 0.3325997233
H  H107  1  0.72380000  0.99580000  0.09800000  1.0 0.3325997233
H  H108  1  0.72380000  0.18240000  0.99580000  1.0 0.3325997233
H  H109  1  0.07750000  0.26090000  0.52310000  1.0 0.3325997233
H  H110  1  0.26090000  0.13850000  0.52310000  1.0 0.3325997233
H  H111  1  0.13850000  0.07750000  0.52310000  1.0 0.3325997233
H  H112  1  0.15200000  0.25420000  0.52620000  1.0 0.3325997233
H  H113  1  0.25420000  0.06760000  0.52620000  1.0 0.3325997233
H  H114  1  0.06760000  0.15200000  0.52620000  1.0 0.3325997233
H  H115  1  0.52310000  0.26090000  0.13850000  1.0 0.3325997233
H  H116  1  0.52310000  0.07750000  0.26090000  1.0 0.3325997233
H  H117  1  0.52310000  0.13850000  0.07750000  1.0 0.3325997233
H  H118  1  0.52620000  0.25420000  0.06760000  1.0 0.3325997233
H  H119  1  0.52620000  0.15200000  0.25420000  1.0 0.3325997233
H  H120  1  0.52620000  0.06760000  0.15200000  1.0 0.3325997233
H  H121  1  0.07750000  0.13850000  0.26090000  1.0 0.3325997233
H  H122  1  0.26090000  0.07750000  0.13850000  1.0 0.3325997233
H  H123  1  0.13850000  0.26090000  0.07750000  1.0 0.3325997233
H  H124  1  0.15200000  0.06760000  0.25420000  1.0 0.3325997233
H  H125  1  0.25420000  0.15200000  0.06760000  1.0 0.3325997233
H  H126  1  0.06760000  0.25420000  0.15200000  1.0 0.3325997233
H  H127  1  0.26090000  0.52310000  0.07750000  1.0 0.3325997233
H  H128  1  0.13850000  0.52310000  0.26090000  1.0 0.3325997233
H  H129  1  0.07750000  0.52310000  0.13850000  1.0 0.3325997233
H  H130  1  0.25420000  0.52620000  0.15200000  1.0 0.3325997233
H  H131  1  0.06760000  0.52620000  0.25420000  1.0 0.3325997233
H  H132  1  0.15200000  0.52620000  0.06760000  1.0 0.3325997233
H  H133  1  0.98910000  0.72690000  0.11150000  1.0 0.3325997233
H  H134  1  0.11150000  0.72690000  0.17250000  1.0 0.3325997233
H  H135  1  0.17250000  0.72690000  0.98910000  1.0 0.3325997233
H  H136  1  0.99580000  0.72380000  0.18240000  1.0 0.3325997233
H  H137  1  0.18240000  0.72380000  0.09800000  1.0 0.3325997233
H  H138  1  0.09800000  0.72380000  0.99580000  1.0 0.3325997233
H  H139  1  0.17250000  0.11150000  0.72690000  1.0 0.3325997233
H  H140  1  0.98910000  0.17250000  0.72690000  1.0 0.3325997233
H  H141  1  0.11150000  0.98910000  0.72690000  1.0 0.3325997233
H  H142  1  0.09800000  0.18240000  0.72380000  1.0 0.3325997233
H  H143  1  0.99580000  0.09800000  0.72380000  1.0 0.3325997233
H  H144  1  0.18240000  0.99580000  0.72380000  1.0 0.3325997233
H  H145  1  0.76090000  0.63850000  0.57750000  1.0 0.3325997233
H  H146  1  0.63850000  0.57750000  0.76090000  1.0 0.3325997233
H  H147  1  0.57750000  0.76090000  0.63850000  1.0 0.3325997233
H  H148  1  0.75420000  0.56760000  0.65200000  1.0 0.3325997233
H  H149  1  0.56760000  0.65200000  0.75420000  1.0 0.3325997233
H  H150  1  0.65200000  0.75420000  0.56760000  1.0 0.3325997233
H  H151  1  0.02310000  0.57750000  0.63850000  1.0 0.3325997233
H  H152  1  0.02310000  0.76090000  0.57750000  1.0 0.3325997233
H  H153  1  0.02310000  0.63850000  0.76090000  1.0 0.3325997233
H  H154  1  0.02620000  0.65200000  0.56760000  1.0 0.3325997233
H  H155  1  0.02620000  0.75420000  0.65200000  1.0 0.3325997233
H  H156  1  0.02620000  0.56760000  0.75420000  1.0 0.3325997233
H  H157  1  0.67250000  0.48910000  0.22690000  1.0 0.3325997233
H  H158  1  0.48910000  0.61150000  0.22690000  1.0 0.3325997233
H  H159  1  0.61150000  0.67250000  0.22690000  1.0 0.3325997233
H  H160  1  0.59800000  0.49580000  0.22380000  1.0 0.3325997233
H  H161  1  0.49580000  0.68240000  0.22380000  1.0 0.3325997233
H  H162  1  0.68240000  0.59800000  0.22380000  1.0 0.3325997233
H  H163  1  0.22690000  0.48910000  0.61150000  1.0 0.3325997233
H  H164  1  0.22690000  0.67250000  0.48910000  1.0 0.3325997233
H  H165  1  0.22690000  0.61150000  0.67250000  1.0 0.3325997233
H  H166  1  0.22380000  0.49580000  0.68240000  1.0 0.3325997233
H  H167  1  0.22380000  0.59800000  0.49580000  1.0 0.3325997233
H  H168  1  0.22380000  0.68240000  0.59800000  1.0 0.3325997233
H  H169  1  0.67250000  0.61150000  0.48910000  1.0 0.3325997233
H  H170  1  0.48910000  0.67250000  0.61150000  1.0 0.3325997233
H  H171  1  0.61150000  0.48910000  0.67250000  1.0 0.3325997233
H  H172  1  0.59800000  0.68240000  0.49580000  1.0 0.3325997233
H  H173  1  0.49580000  0.59800000  0.68240000  1.0 0.3325997233
H  H174  1  0.68240000  0.49580000  0.59800000  1.0 0.3325997233
H  H175  1  0.48910000  0.22690000  0.67250000  1.0 0.3325997233
H  H176  1  0.61150000  0.22690000  0.48910000  1.0 0.3325997233
H  H177  1  0.67250000  0.22690000  0.61150000  1.0 0.3325997233
H  H178  1  0.49580000  0.22380000  0.59800000  1.0 0.3325997233
H  H179  1  0.68240000  0.22380000  0.49580000  1.0 0.3325997233
H  H180  1  0.59800000  0.22380000  0.68240000  1.0 0.3325997233
H  H181  1  0.76090000  0.02310000  0.63850000  1.0 0.3325997233
H  H182  1  0.63850000  0.02310000  0.57750000  1.0 0.3325997233
H  H183  1  0.57750000  0.02310000  0.76090000  1.0 0.3325997233
H  H184  1  0.75420000  0.02620000  0.56760000  1.0 0.3325997233
H  H185  1  0.56760000  0.02620000  0.65200000  1.0 0.3325997233
H  H186  1  0.65200000  0.02620000  0.75420000  1.0 0.3325997233
H  H187  1  0.57750000  0.63850000  0.02310000  1.0 0.3325997233
H  H188  1  0.76090000  0.57750000  0.02310000  1.0 0.3325997233
H  H189  1  0.63850000  0.76090000  0.02310000  1.0 0.3325997233
H  H190  1  0.65200000  0.56760000  0.02620000  1.0 0.3325997233
H  H191  1  0.75420000  0.65200000  0.02620000  1.0 0.3325997233
H  H192  1  0.56760000  0.75420000  0.02620000  1.0 0.3325997233
C  C1  1  0.33178000  0.66940000  0.99154000  1.0 0.7972841625
C  C2  1  0.00728000  0.99154000  0.66940000  1.0 0.7972841625
C  C3  1  0.24272000  0.25846000  0.91822000  1.0 0.7972841625
C  C4  1  0.91822000  0.58060000  0.24272000  1.0 0.7972841625
C  C5  1  0.25846000  0.24272000  0.58060000  1.0 0.7972841625
C  C6  1  0.66940000  0.99154000  0.33178000  1.0 0.7972841625
C  C7  1  0.00728000  0.33178000  0.99154000  1.0 0.7972841625
C  C8  1  0.24272000  0.91822000  0.58060000  1.0 0.7972841625
C  C9  1  0.91822000  0.24272000  0.25846000  1.0 0.7972841625
C  C10  1  0.58060000  0.25846000  0.24272000  1.0 0.7972841625
C  C11  1  0.99154000  0.33178000  0.66940000  1.0 0.7972841625
C  C12  1  0.33178000  0.99154000  0.00728000  1.0 0.7972841625
C  C13  1  0.24272000  0.58060000  0.25846000  1.0 0.7972841625
C  C14  1  0.58060000  0.24272000  0.91822000  1.0 0.7972841625
C  C15  1  0.66940000  0.00728000  0.99154000  1.0 0.7972841625
C  C16  1  0.00728000  0.66940000  0.33178000  1.0 0.7972841625
C  C17  1  0.25846000  0.91822000  0.24272000  1.0 0.7972841625
C  C18  1  0.66940000  0.33178000  0.00728000  1.0 0.7972841625
C  C19  1  0.99154000  0.00728000  0.33178000  1.0 0.7972841625
C  C20  1  0.99154000  0.66940000  0.00728000  1.0 0.7972841625
C  C21  1  0.33178000  0.00728000  0.66940000  1.0 0.7972841625
C  C22  1  0.58060000  0.91822000  0.25846000  1.0 0.7972841625
C  C23  1  0.25846000  0.58060000  0.91822000  1.0 0.7972841625
C  C24  1  0.91822000  0.25846000  0.58060000  1.0 0.7972841625
C  C25  1  0.41822000  0.08060000  0.75846000  1.0 0.7972841625
C  C26  1  0.74272000  0.75846000  0.08060000  1.0 0.7972841625
C  C27  1  0.50728000  0.49154000  0.83178000  1.0 0.7972841625
C  C28  1  0.83178000  0.16940000  0.50728000  1.0 0.7972841625
C  C29  1  0.49154000  0.50728000  0.16940000  1.0 0.7972841625
C  C30  1  0.08060000  0.75846000  0.41822000  1.0 0.7972841625
C  C31  1  0.74272000  0.41822000  0.75846000  1.0 0.7972841625
C  C32  1  0.50728000  0.83178000  0.16940000  1.0 0.7972841625
C  C33  1  0.83178000  0.50728000  0.49154000  1.0 0.7972841625
C  C34  1  0.16940000  0.49154000  0.50728000  1.0 0.7972841625
C  C35  1  0.75846000  0.41822000  0.08060000  1.0 0.7972841625
C  C36  1  0.41822000  0.75846000  0.74272000  1.0 0.7972841625
C  C37  1  0.50728000  0.16940000  0.49154000  1.0 0.7972841625
C  C38  1  0.16940000  0.50728000  0.83178000  1.0 0.7972841625
C  C39  1  0.08060000  0.74272000  0.75846000  1.0 0.7972841625
C  C40  1  0.74272000  0.08060000  0.41822000  1.0 0.7972841625
C  C41  1  0.49154000  0.83178000  0.50728000  1.0 0.7972841625
C  C42  1  0.08060000  0.41822000  0.74272000  1.0 0.7972841625
C  C43  1  0.75846000  0.74272000  0.41822000  1.0 0.7972841625
C  C44  1  0.75846000  0.08060000  0.74272000  1.0 0.7972841625
C  C45  1  0.41822000  0.74272000  0.08060000  1.0 0.7972841625
C  C46  1  0.16940000  0.83178000  0.49154000  1.0 0.7972841625
C  C47  1  0.49154000  0.16940000  0.83178000  1.0 0.7972841625
C  C48  1  0.83178000  0.49154000  0.16940000  1.0 0.7972841625
C  C49  1  0.34207000  0.97379000  0.34207000  1.0 0.6649667375
C  C50  1  0.90793000  0.27621000  0.90793000  1.0 0.6654830329
C  C51  1  0.90793000  0.90793000  0.27621000  1.0 0.6649667375
C  C52  1  0.34207000  0.34207000  0.34207000  1.0 0.6649667375
C  C53  1  0.97379000  0.34207000  0.34207000  1.0 0.6654830329
C  C54  1  0.34207000  0.34207000  0.97379000  1.0 0.6654830329
C  C55  1  0.90793000  0.90793000  0.90793000  1.0 0.6649667375
C  C56  1  0.27621000  0.90793000  0.90793000  1.0 0.6649667375
C  C57  1  0.40793000  0.77621000  0.40793000  1.0 0.6649667375
C  C58  1  0.84207000  0.47379000  0.84207000  1.0 0.6654830329
C  C59  1  0.84207000  0.84207000  0.47379000  1.0 0.6654830329
C  C60  1  0.40793000  0.40793000  0.40793000  1.0 0.6649667375
C  C61  1  0.77621000  0.40793000  0.40793000  1.0 0.6649667375
C  C62  1  0.40793000  0.40793000  0.77621000  1.0 0.6649667375
C  C63  1  0.84207000  0.84207000  0.84207000  1.0 0.6654830329
C  C64  1  0.47379000  0.84207000  0.84207000  1.0 0.6649667375
C  C65  1  0.09222000  0.09222000  0.09222000  1.0 0.6649667375
C  C66  1  0.72334000  0.09222000  0.09222000  1.0 0.6649667375
C  C67  1  0.15778000  0.15778000  0.52666000  1.0 0.6649667375
C  C68  1  0.52666000  0.15778000  0.15778000  1.0 0.6649667375
C  C69  1  0.15778000  0.15778000  0.15778000  1.0 0.6649667375
C  C70  1  0.15778000  0.52666000  0.15778000  1.0 0.6649667375
C  C71  1  0.09222000  0.72334000  0.09222000  1.0 0.6649667375
C  C72  1  0.09222000  0.09222000  0.72334000  1.0 0.6649667375
C  C73  1  0.65778000  0.65778000  0.65778000  1.0 0.6649667375
C  C74  1  0.02666000  0.65778000  0.65778000  1.0 0.6649667375
C  C75  1  0.59222000  0.59222000  0.22334000  1.0 0.6649667375
C  C76  1  0.22334000  0.59222000  0.59222000  1.0 0.6649667375
C  C77  1  0.59222000  0.59222000  0.59222000  1.0 0.6649667375
C  C78  1  0.59222000  0.22334000  0.59222000  1.0 0.6649667375
C  C79  1  0.65778000  0.02666000  0.65778000  1.0 0.6649667375
C  C80  1  0.65778000  0.65778000  0.02666000  1.0 0.6649667375
N  N1  1  0.38350000  0.97506000  0.26648000  1.0 -0.5962482163
N  N2  1  0.37496000  0.97506000  0.38350000  1.0 -0.5962482163
N  N3  1  0.26648000  0.97506000  0.37496000  1.0 -0.5962482163
N  N4  1  0.86650000  0.27494000  0.87504000  1.0 -0.5962482163
N  N5  1  0.87504000  0.27494000  0.98352000  1.0 -0.5962482163
N  N6  1  0.98352000  0.27494000  0.86650000  1.0 -0.5962482163
N  N7  1  0.98352000  0.87504000  0.27494000  1.0 -0.5962482163
N  N8  1  0.86650000  0.98352000  0.27494000  1.0 -0.5962482163
N  N9  1  0.87504000  0.86650000  0.27494000  1.0 -0.5962482163
N  N10  1  0.37496000  0.38350000  0.26648000  1.0 -0.5962482163
N  N11  1  0.26648000  0.37496000  0.38350000  1.0 -0.5962482163
N  N12  1  0.38350000  0.26648000  0.37496000  1.0 -0.5962482163
N  N13  1  0.97506000  0.26648000  0.38350000  1.0 -0.5962482163
N  N14  1  0.97506000  0.38350000  0.37496000  1.0 -0.5962482163
N  N15  1  0.97506000  0.37496000  0.26648000  1.0 -0.5962482163
N  N16  1  0.38350000  0.37496000  0.97506000  1.0 -0.5962482163
N  N17  1  0.26648000  0.38350000  0.97506000  1.0 -0.5962482163
N  N18  1  0.37496000  0.26648000  0.97506000  1.0 -0.5962482163
N  N19  1  0.86650000  0.87504000  0.98352000  1.0 -0.5962482163
N  N20  1  0.98352000  0.86650000  0.87504000  1.0 -0.5962482163
N  N21  1  0.87504000  0.98352000  0.86650000  1.0 -0.5962482163
N  N22  1  0.27494000  0.98352000  0.87504000  1.0 -0.5962482163
N  N23  1  0.27494000  0.87504000  0.86650000  1.0 -0.5962482163
N  N24  1  0.27494000  0.86650000  0.98352000  1.0 -0.5962482163
N  N25  1  0.36650000  0.77494000  0.48352000  1.0 -0.5962482163
N  N26  1  0.37504000  0.77494000  0.36650000  1.0 -0.5962482163
N  N27  1  0.48352000  0.77494000  0.37504000  1.0 -0.5962482163
N  N28  1  0.88350000  0.47506000  0.87496000  1.0 -0.5962482163
N  N29  1  0.87496000  0.47506000  0.76648000  1.0 -0.5962482163
N  N30  1  0.76648000  0.47506000  0.88350000  1.0 -0.5962482163
N  N31  1  0.76648000  0.87496000  0.47506000  1.0 -0.5962482163
N  N32  1  0.88350000  0.76648000  0.47506000  1.0 -0.5962482163
N  N33  1  0.87496000  0.88350000  0.47506000  1.0 -0.5962482163
N  N34  1  0.37504000  0.36650000  0.48352000  1.0 -0.5962482163
N  N35  1  0.48352000  0.37504000  0.36650000  1.0 -0.5962482163
N  N36  1  0.36650000  0.48352000  0.37504000  1.0 -0.5962482163
N  N37  1  0.77494000  0.48352000  0.36650000  1.0 -0.5962482163
N  N38  1  0.77494000  0.36650000  0.37504000  1.0 -0.5962482163
N  N39  1  0.77494000  0.37504000  0.48352000  1.0 -0.5962482163
N  N40  1  0.36650000  0.37504000  0.77494000  1.0 -0.5962482163
N  N41  1  0.48352000  0.36650000  0.77494000  1.0 -0.5962482163
N  N42  1  0.37504000  0.48352000  0.77494000  1.0 -0.5962482163
N  N43  1  0.88350000  0.87496000  0.76648000  1.0 -0.5962482163
N  N44  1  0.76648000  0.88350000  0.87496000  1.0 -0.5962482163
N  N45  1  0.87496000  0.76648000  0.88350000  1.0 -0.5946072586
N  N46  1  0.47506000  0.76648000  0.87496000  1.0 -0.5962482163
N  N47  1  0.47506000  0.87496000  0.88350000  1.0 -0.5946072586
N  N48  1  0.47506000  0.88350000  0.76648000  1.0 -0.5962482163
N  N49  1  0.01683000  0.13355000  0.12473000  1.0 -0.5962482163
N  N50  1  0.13355000  0.12473000  0.01683000  1.0 -0.5962482163
N  N51  1  0.12473000  0.01683000  0.13355000  1.0 -0.5962482163
N  N52  1  0.72489000  0.12473000  0.13355000  1.0 -0.5962482163
N  N53  1  0.72489000  0.01683000  0.12473000  1.0 -0.5962482163
N  N54  1  0.72489000  0.13355000  0.01683000  1.0 -0.5962482163
N  N55  1  0.12527000  0.23317000  0.52511000  1.0 -0.5962482163
N  N56  1  0.23317000  0.11645000  0.52511000  1.0 -0.5962482163
N  N57  1  0.11645000  0.12527000  0.52511000  1.0 -0.5962482163
N  N58  1  0.52511000  0.23317000  0.11645000  1.0 -0.5962482163
N  N59  1  0.52511000  0.12527000  0.23317000  1.0 -0.5962482163
N  N60  1  0.52511000  0.11645000  0.12527000  1.0 -0.5962482163
N  N61  1  0.12527000  0.11645000  0.23317000  1.0 -0.5962482163
N  N62  1  0.23317000  0.12527000  0.11645000  1.0 -0.5962482163
N  N63  1  0.11645000  0.23317000  0.12527000  1.0 -0.5962482163
N  N64  1  0.23317000  0.52511000  0.12527000  1.0 -0.5962482163
N  N65  1  0.11645000  0.52511000  0.23317000  1.0 -0.5962482163
N  N66  1  0.12527000  0.52511000  0.11645000  1.0 -0.5962482163
N  N67  1  0.01683000  0.72489000  0.13355000  1.0 -0.5962482163
N  N68  1  0.13355000  0.72489000  0.12473000  1.0 -0.5962482163
N  N69  1  0.12473000  0.72489000  0.01683000  1.0 -0.5962482163
N  N70  1  0.12473000  0.13355000  0.72489000  1.0 -0.5962482163
N  N71  1  0.01683000  0.12473000  0.72489000  1.0 -0.5962482163
N  N72  1  0.13355000  0.01683000  0.72489000  1.0 -0.5962482163
N  N73  1  0.73317000  0.61645000  0.62527000  1.0 -0.5962482163
N  N74  1  0.61645000  0.62527000  0.73317000  1.0 -0.5962482163
N  N75  1  0.62527000  0.73317000  0.61645000  1.0 -0.5962482163
N  N76  1  0.02511000  0.62527000  0.61645000  1.0 -0.5962482163
N  N77  1  0.02511000  0.73317000  0.62527000  1.0 -0.5962482163
N  N78  1  0.02511000  0.61645000  0.73317000  1.0 -0.5962482163
N  N79  1  0.62473000  0.51683000  0.22489000  1.0 -0.5962482163
N  N80  1  0.51683000  0.63355000  0.22489000  1.0 -0.5962482163
N  N81  1  0.63355000  0.62473000  0.22489000  1.0 -0.5962482163
N  N82  1  0.22489000  0.51683000  0.63355000  1.0 -0.5962482163
N  N83  1  0.22489000  0.62473000  0.51683000  1.0 -0.5962482163
N  N84  1  0.22489000  0.63355000  0.62473000  1.0 -0.5962482163
N  N85  1  0.62473000  0.63355000  0.51683000  1.0 -0.5962482163
N  N86  1  0.51683000  0.62473000  0.63355000  1.0 -0.5962482163
N  N87  1  0.63355000  0.51683000  0.62473000  1.0 -0.5962482163
N  N88  1  0.51683000  0.22489000  0.62473000  1.0 -0.5962482163
N  N89  1  0.63355000  0.22489000  0.51683000  1.0 -0.5962482163
N  N90  1  0.62473000  0.22489000  0.63355000  1.0 -0.5962482163
N  N91  1  0.73317000  0.02511000  0.61645000  1.0 -0.5962482163
N  N92  1  0.61645000  0.02511000  0.62527000  1.0 -0.5962482163
N  N93  1  0.62527000  0.02511000  0.73317000  1.0 -0.5962482163
N  N94  1  0.62527000  0.61645000  0.02511000  1.0 -0.5962482163
N  N95  1  0.73317000  0.62527000  0.02511000  1.0 -0.5962482163
N  N96  1  0.61645000  0.73317000  0.02511000  1.0 -0.5962482163
O  O1  1  0.16810000  0.83190000  0.16810000  1.0 -0.3826085197
O  O2  1  0.83190000  0.16810000  0.83190000  1.0 -0.3826085197
O  O3  1  0.41810000  0.08190000  0.08190000  1.0 -0.3826085197
O  O4  1  0.08190000  0.41810000  0.41810000  1.0 -0.3855759515
O  O5  1  0.83190000  0.16810000  0.16810000  1.0 -0.3855759515
O  O6  1  0.41810000  0.08190000  0.41810000  1.0 -0.3855759515
O  O7  1  0.08190000  0.41810000  0.08190000  1.0 -0.3855759515
O  O8  1  0.16810000  0.16810000  0.83190000  1.0 -0.3855759515
O  O9  1  0.41810000  0.41810000  0.08190000  1.0 -0.3855759515
O  O10  1  0.83190000  0.83190000  0.16810000  1.0 -0.3826085197
O  O11  1  0.08190000  0.08190000  0.41810000  1.0 -0.3855759515
O  O12  1  0.16810000  0.83190000  0.83190000  1.0 -0.3826085197
O  O13  1  0.58190000  0.91810000  0.58190000  1.0 -0.3855759515
O  O14  1  0.91810000  0.58190000  0.91810000  1.0 -0.3826085197
O  O15  1  0.33190000  0.66810000  0.66810000  1.0 -0.3826085197
O  O16  1  0.66810000  0.33190000  0.33190000  1.0 -0.3826085197
O  O17  1  0.91810000  0.58190000  0.58190000  1.0 -0.3826085197
O  O18  1  0.33190000  0.66810000  0.33190000  1.0 -0.3826085197
O  O19  1  0.66810000  0.33190000  0.66810000  1.0 -0.3826085197
O  O20  1  0.58190000  0.58190000  0.91810000  1.0 -0.3826085197
O  O21  1  0.33190000  0.33190000  0.66810000  1.0 -0.3855759515
O  O22  1  0.91810000  0.91810000  0.58190000  1.0 -0.3826085197
O  O23  1  0.66810000  0.66810000  0.33190000  1.0 -0.3826085197
O  O24  1  0.58190000  0.91810000  0.91810000  1.0 -0.3826085197
O  O25  1  0.31087000  0.69113000  0.05007000  1.0 -0.6128506832
O  O26  1  0.94793000  0.05007000  0.69113000  1.0 -0.6128506832
O  O27  1  0.30207000  0.19993000  0.93913000  1.0 -0.6128506832
O  O28  1  0.93913000  0.55887000  0.30207000  1.0 -0.6128506832
O  O29  1  0.19993000  0.30207000  0.55887000  1.0 -0.6128506832
O  O30  1  0.69113000  0.05007000  0.31087000  1.0 -0.6128506832
O  O31  1  0.94793000  0.31087000  0.05007000  1.0 -0.6128506832
O  O32  1  0.30207000  0.93913000  0.55887000  1.0 -0.6128506832
O  O33  1  0.93913000  0.30207000  0.19993000  1.0 -0.6128506832
O  O34  1  0.55887000  0.19993000  0.30207000  1.0 -0.6128506832
O  O35  1  0.05007000  0.31087000  0.69113000  1.0 -0.6128506832
O  O36  1  0.31087000  0.05007000  0.94793000  1.0 -0.6128506832
O  O37  1  0.30207000  0.55887000  0.19993000  1.0 -0.6128506832
O  O38  1  0.55887000  0.30207000  0.93913000  1.0 -0.6128506832
O  O39  1  0.69113000  0.94793000  0.05007000  1.0 -0.6128506832
O  O40  1  0.94793000  0.69113000  0.31087000  1.0 -0.6128506832
O  O41  1  0.19993000  0.93913000  0.30207000  1.0 -0.6128506832
O  O42  1  0.69113000  0.31087000  0.94793000  1.0 -0.6128506832
O  O43  1  0.05007000  0.94793000  0.31087000  1.0 -0.6128506832
O  O44  1  0.05007000  0.69113000  0.94793000  1.0 -0.6128506832
O  O45  1  0.31087000  0.94793000  0.69113000  1.0 -0.6128506832
O  O46  1  0.55887000  0.93913000  0.19993000  1.0 -0.6128506832
O  O47  1  0.19993000  0.55887000  0.93913000  1.0 -0.6128506832
O  O48  1  0.93913000  0.19993000  0.55887000  1.0 -0.6128506832
O  O49  1  0.43913000  0.05887000  0.69993000  1.0 -0.6128506832
O  O50  1  0.80207000  0.69993000  0.05887000  1.0 -0.6128506832
O  O51  1  0.44793000  0.55007000  0.81087000  1.0 -0.6128506832
O  O52  1  0.81087000  0.19113000  0.44793000  1.0 -0.6128506832
O  O53  1  0.55007000  0.44793000  0.19113000  1.0 -0.6128506832
O  O54  1  0.05887000  0.69993000  0.43913000  1.0 -0.6128506832
O  O55  1  0.80207000  0.43913000  0.69993000  1.0 -0.6128506832
O  O56  1  0.44793000  0.81087000  0.19113000  1.0 -0.6128506832
O  O57  1  0.81087000  0.44793000  0.55007000  1.0 -0.6128506832
O  O58  1  0.19113000  0.55007000  0.44793000  1.0 -0.6128506832
O  O59  1  0.69993000  0.43913000  0.05887000  1.0 -0.6128506832
O  O60  1  0.43913000  0.69993000  0.80207000  1.0 -0.6128506832
O  O61  1  0.44793000  0.19113000  0.55007000  1.0 -0.6128506832
O  O62  1  0.19113000  0.44793000  0.81087000  1.0 -0.6128506832
O  O63  1  0.05887000  0.80207000  0.69993000  1.0 -0.6128506832
O  O64  1  0.80207000  0.05887000  0.43913000  1.0 -0.6128506832
O  O65  1  0.55007000  0.81087000  0.44793000  1.0 -0.6128506832
O  O66  1  0.05887000  0.43913000  0.80207000  1.0 -0.6128506832
O  O67  1  0.69993000  0.80207000  0.43913000  1.0 -0.6128506832
O  O68  1  0.69993000  0.05887000  0.80207000  1.0 -0.6128506832
O  O69  1  0.43913000  0.80207000  0.05887000  1.0 -0.6128506832
O  O70  1  0.19113000  0.81087000  0.55007000  1.0 -0.6128506832
O  O71  1  0.55007000  0.19113000  0.81087000  1.0 -0.6128506832
O  O72  1  0.81087000  0.55007000  0.19113000  1.0 -0.6128506832
O  O73  1  0.29004000  0.70988000  0.94402000  1.0 -0.6128506832
O  O74  1  0.05606000  0.94402000  0.70988000  1.0 -0.6128506832
O  O75  1  0.19394000  0.30598000  0.95996000  1.0 -0.6128506832
O  O76  1  0.95996000  0.54012000  0.19394000  1.0 -0.6128506832
O  O77  1  0.30598000  0.19394000  0.54012000  1.0 -0.6128506832
O  O78  1  0.70988000  0.94402000  0.29004000  1.0 -0.6128506832
O  O79  1  0.05606000  0.29004000  0.94402000  1.0 -0.6128506832
O  O80  1  0.19394000  0.95996000  0.54012000  1.0 -0.6128506832
O  O81  1  0.95996000  0.19394000  0.30598000  1.0 -0.6128506832
O  O82  1  0.54012000  0.30598000  0.19394000  1.0 -0.6128506832
O  O83  1  0.94402000  0.29004000  0.70988000  1.0 -0.6128506832
O  O84  1  0.29004000  0.94402000  0.05606000  1.0 -0.6128506832
O  O85  1  0.19394000  0.54012000  0.30598000  1.0 -0.6128506832
O  O86  1  0.54012000  0.19394000  0.95996000  1.0 -0.6128506832
O  O87  1  0.70988000  0.05606000  0.94402000  1.0 -0.6128506832
O  O88  1  0.05606000  0.70988000  0.29004000  1.0 -0.6128506832
O  O89  1  0.30598000  0.95996000  0.19394000  1.0 -0.6128506832
O  O90  1  0.70988000  0.29004000  0.05606000  1.0 -0.6128506832
O  O91  1  0.94402000  0.05606000  0.29004000  1.0 -0.6128506832
O  O92  1  0.94402000  0.70988000  0.05606000  1.0 -0.6128506832
O  O93  1  0.29004000  0.05606000  0.70988000  1.0 -0.6128506832
O  O94  1  0.54012000  0.95996000  0.30598000  1.0 -0.6128506832
O  O95  1  0.30598000  0.54012000  0.95996000  1.0 -0.6128506832
O  O96  1  0.95996000  0.30598000  0.54012000  1.0 -0.6128506832
O  O97  1  0.45996000  0.04012000  0.80598000  1.0 -0.6128506832
O  O98  1  0.69394000  0.80598000  0.04012000  1.0 -0.6128506832
O  O99  1  0.55606000  0.44402000  0.79004000  1.0 -0.6128506832
O  O100  1  0.79004000  0.20988000  0.55606000  1.0 -0.6128506832
O  O101  1  0.44402000  0.55606000  0.20988000  1.0 -0.6128506832
O  O102  1  0.04012000  0.80598000  0.45996000  1.0 -0.6128506832
O  O103  1  0.69394000  0.45996000  0.80598000  1.0 -0.6128506832
O  O104  1  0.55606000  0.79004000  0.20988000  1.0 -0.6128506832
O  O105  1  0.79004000  0.55606000  0.44402000  1.0 -0.6128506832
O  O106  1  0.20988000  0.44402000  0.55606000  1.0 -0.6128506832
O  O107  1  0.80598000  0.45996000  0.04012000  1.0 -0.6128506832
O  O108  1  0.45996000  0.80598000  0.69394000  1.0 -0.6128506832
O  O109  1  0.55606000  0.20988000  0.44402000  1.0 -0.6128506832
O  O110  1  0.20988000  0.55606000  0.79004000  1.0 -0.6128506832
O  O111  1  0.04012000  0.69394000  0.80598000  1.0 -0.6128506832
O  O112  1  0.69394000  0.04012000  0.45996000  1.0 -0.6128506832
O  O113  1  0.44402000  0.79004000  0.55606000  1.0 -0.6128506832
O  O114  1  0.04012000  0.45996000  0.69394000  1.0 -0.6128506832
O  O115  1  0.80598000  0.69394000  0.45996000  1.0 -0.6128506832
O  O116  1  0.80598000  0.04012000  0.69394000  1.0 -0.6128506832
O  O117  1  0.45996000  0.69394000  0.04012000  1.0 -0.6128506832
O  O118  1  0.20988000  0.79004000  0.44402000  1.0 -0.6128506832
O  O119  1  0.44402000  0.20988000  0.79004000  1.0 -0.6128506832
O  O120  1  0.79004000  0.44402000  0.20988000  1.0 -0.6128506832
O  O121  1  0.39266000  0.60930000  0.97720000  1.0 -0.6503417241
O  O122  1  0.02084000  0.97720000  0.60930000  1.0 -0.6503417241
O  O123  1  0.22916000  0.27280000  0.85734000  1.0 -0.6503417241
O  O124  1  0.85734000  0.64070000  0.22916000  1.0 -0.6503417241
O  O125  1  0.27280000  0.22916000  0.64070000  1.0 -0.6503417241
O  O126  1  0.60930000  0.97720000  0.39266000  1.0 -0.6503417241
O  O127  1  0.02084000  0.39266000  0.97720000  1.0 -0.6503417241
O  O128  1  0.22916000  0.85734000  0.64070000  1.0 -0.6503417241
O  O129  1  0.85734000  0.22916000  0.27280000  1.0 -0.6503417241
O  O130  1  0.64070000  0.27280000  0.22916000  1.0 -0.6503417241
O  O131  1  0.97720000  0.39266000  0.60930000  1.0 -0.6503417241
O  O132  1  0.39266000  0.97720000  0.02084000  1.0 -0.6503417241
O  O133  1  0.22916000  0.64070000  0.27280000  1.0 -0.6503417241
O  O134  1  0.64070000  0.22916000  0.85734000  1.0 -0.6503417241
O  O135  1  0.60930000  0.02084000  0.97720000  1.0 -0.6503417241
O  O136  1  0.02084000  0.60930000  0.39266000  1.0 -0.6503417241
O  O137  1  0.27280000  0.85734000  0.22916000  1.0 -0.6503417241
O  O138  1  0.60930000  0.39266000  0.02084000  1.0 -0.6503417241
O  O139  1  0.97720000  0.02084000  0.39266000  1.0 -0.6503417241
O  O140  1  0.97720000  0.60930000  0.02084000  1.0 -0.6503417241
O  O141  1  0.39266000  0.02084000  0.60930000  1.0 -0.6503417241
O  O142  1  0.64070000  0.85734000  0.27280000  1.0 -0.6503417241
O  O143  1  0.27280000  0.64070000  0.85734000  1.0 -0.6503417241
O  O144  1  0.85734000  0.27280000  0.64070000  1.0 -0.6503417241
O  O145  1  0.35734000  0.14070000  0.77280000  1.0 -0.6503417241
O  O146  1  0.72916000  0.77280000  0.14070000  1.0 -0.6503417241
O  O147  1  0.52084000  0.47720000  0.89266000  1.0 -0.6503417241
O  O148  1  0.89266000  0.10930000  0.52084000  1.0 -0.6503417241
O  O149  1  0.47720000  0.52084000  0.10930000  1.0 -0.6503417241
O  O150  1  0.14070000  0.77280000  0.35734000  1.0 -0.6503417241
O  O151  1  0.72916000  0.35734000  0.77280000  1.0 -0.6503417241
O  O152  1  0.52084000  0.89266000  0.10930000  1.0 -0.6503417241
O  O153  1  0.89266000  0.52084000  0.47720000  1.0 -0.6503417241
O  O154  1  0.10930000  0.47720000  0.52084000  1.0 -0.6503417241
O  O155  1  0.77280000  0.35734000  0.14070000  1.0 -0.6503417241
O  O156  1  0.35734000  0.77280000  0.72916000  1.0 -0.6503417241
O  O157  1  0.52084000  0.10930000  0.47720000  1.0 -0.6503417241
O  O158  1  0.10930000  0.52084000  0.89266000  1.0 -0.6503417241
O  O159  1  0.14070000  0.72916000  0.77280000  1.0 -0.6503417241
O  O160  1  0.72916000  0.14070000  0.35734000  1.0 -0.6503417241
O  O161  1  0.47720000  0.89266000  0.52084000  1.0 -0.6503417241
O  O162  1  0.14070000  0.35734000  0.72916000  1.0 -0.6503417241
O  O163  1  0.77280000  0.72916000  0.35734000  1.0 -0.6503417241
O  O164  1  0.77280000  0.14070000  0.72916000  1.0 -0.6503417241
O  O165  1  0.35734000  0.72916000  0.14070000  1.0 -0.6503417241
O  O166  1  0.10930000  0.89266000  0.47720000  1.0 -0.6503417241
O  O167  1  0.47720000  0.10930000  0.89266000  1.0 -0.6503417241
O  O168  1  0.89266000  0.47720000  0.10930000  1.0 -0.6503417241
