# DDEC6 charges by PACMAN v1.1 (https://github.com/mtap-research/PACMAN-charge/)
data_IWAYAG_ASR_pacman
_symmetry_space_group_name_H-M   'P 1'
_cell_length_a   14.81730000
_cell_length_b   14.81730000
_cell_length_c   14.81730000
_cell_angle_alpha   90.00000000
_cell_angle_beta   90.00000000
_cell_angle_gamma   90.00000000
_symmetry_Int_Tables_number   1
_chemical_formula_structural   KCa2(C2O7)2
_chemical_formula_sum   'K6 Ca12 C24 O84'
_cell_volume   3253.17346965
_cell_formula_units_Z   6
loop_
 _symmetry_equiv_pos_site_id
 _symmetry_equiv_pos_as_xyz
  1  'x, y, z'
loop_
 _atom_site_type_symbol
 _atom_site_label
 _atom_site_symmetry_multiplicity
 _atom_site_fract_x
 _atom_site_fract_y
 _atom_site_fract_z
 _atom_site_occupancy
 _atom_site_charge
K  K1  1  0.00000000  0.00000000  0.50000000  1.0 1.1257584303
K  K2  1  0.50000000  0.00000000  0.00000000  1.0 1.1231385439
K  K3  1  0.00000000  0.50000000  0.00000000  1.0 1.1231385439
K  K4  1  0.50000000  0.50000000  0.00000000  1.0 1.1231385439
K  K5  1  0.00000000  0.50000000  0.50000000  1.0 1.1231385439
K  K6  1  0.50000000  0.00000000  0.50000000  1.0 1.1231385439
Ca  Ca1  1  0.25000000  0.00000000  0.50000000  1.0 1.2733761976
Ca  Ca2  1  0.75000000  0.00000000  0.50000000  1.0 1.2733761976
Ca  Ca3  1  0.50000000  0.25000000  0.00000000  1.0 1.2733761976
Ca  Ca4  1  0.50000000  0.75000000  0.00000000  1.0 1.2733761976
Ca  Ca5  1  0.00000000  0.50000000  0.25000000  1.0 1.2733761976
Ca  Ca6  1  0.00000000  0.50000000  0.75000000  1.0 1.2733761976
Ca  Ca7  1  0.00000000  0.25000000  0.50000000  1.0 1.2733761976
Ca  Ca8  1  0.00000000  0.75000000  0.50000000  1.0 1.2733761976
Ca  Ca9  1  0.25000000  0.50000000  0.00000000  1.0 1.2733761976
Ca  Ca10  1  0.75000000  0.50000000  0.00000000  1.0 1.2733761976
Ca  Ca11  1  0.50000000  0.00000000  0.75000000  1.0 1.2733761976
Ca  Ca12  1  0.50000000  0.00000000  0.25000000  1.0 1.2733761976
C  C1  1  0.00000000  0.68299000  0.31701000  1.0 0.8836167464
C  C2  1  0.00000000  0.31701000  0.68299000  1.0 0.8836167464
C  C3  1  0.00000000  0.31701000  0.31701000  1.0 0.8836167464
C  C4  1  0.00000000  0.68299000  0.68299000  1.0 0.8836167464
C  C5  1  0.31701000  0.00000000  0.68299000  1.0 0.8836167464
C  C6  1  0.68299000  0.00000000  0.31701000  1.0 0.8836167464
C  C7  1  0.31701000  0.00000000  0.31701000  1.0 0.8836167464
C  C8  1  0.68299000  0.00000000  0.68299000  1.0 0.8836167464
C  C9  1  0.68299000  0.31701000  0.00000000  1.0 0.8836167464
C  C10  1  0.31701000  0.68299000  0.00000000  1.0 0.8836167464
C  C11  1  0.31701000  0.31701000  0.00000000  1.0 0.8836167464
C  C12  1  0.68299000  0.68299000  0.00000000  1.0 0.8836167464
C  C13  1  0.50000000  0.18299000  0.81701000  1.0 0.8836167464
C  C14  1  0.50000000  0.81701000  0.18299000  1.0 0.8836167464
C  C15  1  0.50000000  0.81701000  0.81701000  1.0 0.8836167464
C  C16  1  0.50000000  0.18299000  0.18299000  1.0 0.8836167464
C  C17  1  0.81701000  0.50000000  0.18299000  1.0 0.8836167464
C  C18  1  0.18299000  0.50000000  0.81701000  1.0 0.8836167464
C  C19  1  0.81701000  0.50000000  0.81701000  1.0 0.8836167464
C  C20  1  0.18299000  0.50000000  0.18299000  1.0 0.8836167464
C  C21  1  0.18299000  0.81701000  0.50000000  1.0 0.8836167464
C  C22  1  0.81701000  0.18299000  0.50000000  1.0 0.8836167464
C  C23  1  0.81701000  0.81701000  0.50000000  1.0 0.8836167464
C  C24  1  0.18299000  0.18299000  0.50000000  1.0 0.8836167464
O  O1  1  0.00000000  0.00000000  0.35769000  1.0 -0.0702394685
O  O2  1  0.00000000  0.00000000  0.64231000  1.0 -0.0702394685
O  O3  1  0.35769000  0.00000000  0.00000000  1.0 -0.0702394685
O  O4  1  0.64231000  0.00000000  0.00000000  1.0 -0.0702394685
O  O5  1  0.00000000  0.35769000  0.00000000  1.0 -0.0702394685
O  O6  1  0.00000000  0.64231000  0.00000000  1.0 -0.0702394685
O  O7  1  0.50000000  0.50000000  0.85769000  1.0 -0.0702394685
O  O8  1  0.50000000  0.50000000  0.14231000  1.0 -0.0702394685
O  O9  1  0.85769000  0.50000000  0.50000000  1.0 -0.0702394685
O  O10  1  0.14231000  0.50000000  0.50000000  1.0 -0.0702394685
O  O11  1  0.50000000  0.85769000  0.50000000  1.0 -0.0702394685
O  O12  1  0.50000000  0.14231000  0.50000000  1.0 -0.0702394685
O  O13  1  0.00000000  0.76554000  0.34296000  1.0 -0.5565449747
O  O14  1  0.00000000  0.23446000  0.65704000  1.0 -0.5565449747
O  O15  1  0.00000000  0.23446000  0.34296000  1.0 -0.5565449747
O  O16  1  0.00000000  0.76554000  0.65704000  1.0 -0.5565449747
O  O17  1  0.34296000  0.00000000  0.76554000  1.0 -0.5565449747
O  O18  1  0.65704000  0.00000000  0.23446000  1.0 -0.5565449747
O  O19  1  0.34296000  0.00000000  0.23446000  1.0 -0.5565449747
O  O20  1  0.65704000  0.00000000  0.76554000  1.0 -0.5565449747
O  O21  1  0.76554000  0.34296000  0.00000000  1.0 -0.5565449747
O  O22  1  0.23446000  0.65704000  0.00000000  1.0 -0.5565449747
O  O23  1  0.23446000  0.34296000  0.00000000  1.0 -0.5565449747
O  O24  1  0.76554000  0.65704000  0.00000000  1.0 -0.5565449747
O  O25  1  0.76554000  0.00000000  0.65704000  1.0 -0.5565449747
O  O26  1  0.23446000  0.00000000  0.34296000  1.0 -0.5565449747
O  O27  1  0.23446000  0.00000000  0.65704000  1.0 -0.5565449747
O  O28  1  0.76554000  0.00000000  0.34296000  1.0 -0.5565449747
O  O29  1  0.00000000  0.34296000  0.23446000  1.0 -0.5565449747
O  O30  1  0.00000000  0.65704000  0.76554000  1.0 -0.5565449747
O  O31  1  0.00000000  0.34296000  0.76554000  1.0 -0.5565449747
O  O32  1  0.00000000  0.65704000  0.23446000  1.0 -0.5565449747
O  O33  1  0.34296000  0.76554000  0.00000000  1.0 -0.5565449747
O  O34  1  0.65704000  0.23446000  0.00000000  1.0 -0.5565449747
O  O35  1  0.34296000  0.23446000  0.00000000  1.0 -0.5565449747
O  O36  1  0.65704000  0.76554000  0.00000000  1.0 -0.5565449747
O  O37  1  0.50000000  0.26554000  0.84296000  1.0 -0.5565449747
O  O38  1  0.50000000  0.73446000  0.15704000  1.0 -0.5565449747
O  O39  1  0.50000000  0.73446000  0.84296000  1.0 -0.5565449747
O  O40  1  0.50000000  0.26554000  0.15704000  1.0 -0.5565449747
O  O41  1  0.84296000  0.50000000  0.26554000  1.0 -0.5565449747
O  O42  1  0.15704000  0.50000000  0.73446000  1.0 -0.5565449747
O  O43  1  0.84296000  0.50000000  0.73446000  1.0 -0.5565449747
O  O44  1  0.15704000  0.50000000  0.26554000  1.0 -0.5565449747
O  O45  1  0.26554000  0.84296000  0.50000000  1.0 -0.5565449747
O  O46  1  0.73446000  0.15704000  0.50000000  1.0 -0.5565449747
O  O47  1  0.73446000  0.84296000  0.50000000  1.0 -0.5565449747
O  O48  1  0.26554000  0.15704000  0.50000000  1.0 -0.5565449747
O  O49  1  0.26554000  0.50000000  0.15704000  1.0 -0.5565449747
O  O50  1  0.73446000  0.50000000  0.84296000  1.0 -0.5565449747
O  O51  1  0.73446000  0.50000000  0.15704000  1.0 -0.5565449747
O  O52  1  0.26554000  0.50000000  0.84296000  1.0 -0.5565449747
O  O53  1  0.50000000  0.84296000  0.73446000  1.0 -0.5565449747
O  O54  1  0.50000000  0.15704000  0.26554000  1.0 -0.5565449747
O  O55  1  0.50000000  0.84296000  0.26554000  1.0 -0.5565449747
O  O56  1  0.50000000  0.15704000  0.73446000  1.0 -0.5565449747
O  O57  1  0.84296000  0.26554000  0.50000000  1.0 -0.5565449747
O  O58  1  0.15704000  0.73446000  0.50000000  1.0 -0.5565449747
O  O59  1  0.84296000  0.73446000  0.50000000  1.0 -0.5565449747
O  O60  1  0.15704000  0.26554000  0.50000000  1.0 -0.5565449747
O  O61  1  0.12058000  0.12058000  0.50000000  1.0 -0.6529889594
O  O62  1  0.87942000  0.87942000  0.50000000  1.0 -0.6529889594
O  O63  1  0.87942000  0.12058000  0.50000000  1.0 -0.6529889594
O  O64  1  0.12058000  0.87942000  0.50000000  1.0 -0.6529889594
O  O65  1  0.50000000  0.12058000  0.12058000  1.0 -0.6529889594
O  O66  1  0.50000000  0.87942000  0.87942000  1.0 -0.6529889594
O  O67  1  0.50000000  0.87942000  0.12058000  1.0 -0.6529889594
O  O68  1  0.50000000  0.12058000  0.87942000  1.0 -0.6529889594
O  O69  1  0.12058000  0.50000000  0.12058000  1.0 -0.6529889594
O  O70  1  0.87942000  0.50000000  0.87942000  1.0 -0.6529889594
O  O71  1  0.12058000  0.50000000  0.87942000  1.0 -0.6529889594
O  O72  1  0.87942000  0.50000000  0.12058000  1.0 -0.6529889594
O  O73  1  0.62058000  0.62058000  0.00000000  1.0 -0.6529889594
O  O74  1  0.37942000  0.37942000  0.00000000  1.0 -0.6529889594
O  O75  1  0.37942000  0.62058000  0.00000000  1.0 -0.6529889594
O  O76  1  0.62058000  0.37942000  0.00000000  1.0 -0.6529889594
O  O77  1  0.00000000  0.62058000  0.62058000  1.0 -0.6529889594
O  O78  1  0.00000000  0.37942000  0.37942000  1.0 -0.6529889594
O  O79  1  0.00000000  0.37942000  0.62058000  1.0 -0.6529889594
O  O80  1  0.00000000  0.62058000  0.37942000  1.0 -0.6529889594
O  O81  1  0.62058000  0.00000000  0.62058000  1.0 -0.6529889594
O  O82  1  0.37942000  0.00000000  0.37942000  1.0 -0.6529889594
O  O83  1  0.62058000  0.00000000  0.37942000  1.0 -0.6529889594
O  O84  1  0.37942000  0.00000000  0.62058000  1.0 -0.6529889594
