# DDEC6 charges by PACMAN v1.1 (https://github.com/mtap-research/PACMAN-charge/)
data_IWAZEL_ion_pacman
_symmetry_space_group_name_H-M   'P 1'
_cell_length_a   20.48740000
_cell_length_b   20.48740000
_cell_length_c   20.48740000
_cell_angle_alpha   60.00000000
_cell_angle_beta   60.00000000
_cell_angle_gamma   60.00000000
_symmetry_Int_Tables_number   1
_chemical_formula_structural   Na3Zn6H48C20(N4O7)6
_chemical_formula_sum   'Na12 Zn24 H192 C80 N96 O168'
_cell_volume   6080.58750144
_cell_formula_units_Z   4
loop_
 _symmetry_equiv_pos_site_id
 _symmetry_equiv_pos_as_xyz
  1  'x, y, z'
loop_
 _atom_site_type_symbol
 _atom_site_label
 _atom_site_symmetry_multiplicity
 _atom_site_fract_x
 _atom_site_fract_y
 _atom_site_fract_z
 _atom_site_occupancy
 _atom_site_charge
Na  Na1  1  0.25000000  0.75000000  0.25000000  1.0 0.851456624
Na  Na2  1  0.25000000  0.25000000  0.75000000  1.0 0.851456624
Na  Na3  1  0.75000000  0.25000000  0.25000000  1.0 0.851456624
Na  Na4  1  0.00000000  0.50000000  0.50000000  1.0 0.851456624
Na  Na5  1  0.50000000  0.00000000  0.00000000  1.0 0.851456624
Na  Na6  1  0.00000000  0.00000000  0.50000000  1.0 0.851456624
Na  Na7  1  0.50000000  0.50000000  0.00000000  1.0 0.851456624
Na  Na8  1  0.50000000  0.00000000  0.50000000  1.0 0.851456624
Na  Na9  1  0.00000000  0.50000000  0.00000000  1.0 0.851456624
Na  Na10  1  0.75000000  0.25000000  0.75000000  1.0 0.851456624
Na  Na11  1  0.25000000  0.75000000  0.75000000  1.0 0.851456624
Na  Na12  1  0.75000000  0.75000000  0.25000000  1.0 0.851456624
Zn  Zn1  1  0.37444000  0.62500000  0.12500000  1.0 0.9195053694
Zn  Zn2  1  0.12500000  0.37444000  0.62500000  1.0 0.9195053694
Zn  Zn3  1  0.62500000  0.12500000  0.37444000  1.0 0.9195053694
Zn  Zn4  1  0.87556000  0.62500000  0.37444000  1.0 0.9195053694
Zn  Zn5  1  0.37444000  0.12500000  0.87556000  1.0 0.9195053694
Zn  Zn6  1  0.12500000  0.87556000  0.37444000  1.0 0.9195053694
Zn  Zn7  1  0.62500000  0.37444000  0.87556000  1.0 0.9195053694
Zn  Zn8  1  0.87556000  0.37444000  0.12500000  1.0 0.9195053694
Zn  Zn9  1  0.37444000  0.87556000  0.62500000  1.0 0.9195053694
Zn  Zn10  1  0.12500000  0.62500000  0.87556000  1.0 0.9195053694
Zn  Zn11  1  0.87556000  0.12500000  0.62500000  1.0 0.9195053694
Zn  Zn12  1  0.62500000  0.87556000  0.12500000  1.0 0.9195053694
Zn  Zn13  1  0.37556000  0.12500000  0.62500000  1.0 0.9195053694
Zn  Zn14  1  0.62500000  0.37556000  0.12500000  1.0 0.9195053694
Zn  Zn15  1  0.12500000  0.62500000  0.37556000  1.0 0.9195053694
Zn  Zn16  1  0.87444000  0.12500000  0.37556000  1.0 0.9195053694
Zn  Zn17  1  0.37556000  0.62500000  0.87444000  1.0 0.9195053694
Zn  Zn18  1  0.62500000  0.87444000  0.37556000  1.0 0.9195053694
Zn  Zn19  1  0.12500000  0.37556000  0.87444000  1.0 0.9195053694
Zn  Zn20  1  0.87444000  0.37556000  0.62500000  1.0 0.9195053694
Zn  Zn21  1  0.37556000  0.87444000  0.12500000  1.0 0.9195053694
Zn  Zn22  1  0.62500000  0.12500000  0.87444000  1.0 0.9195053694
Zn  Zn23  1  0.87444000  0.62500000  0.12500000  1.0 0.9195053694
Zn  Zn24  1  0.12500000  0.87444000  0.62500000  1.0 0.9195053694
H  H1  1  0.90270000  0.00450000  0.81790000  1.0 0.3324869518
H  H2  1  0.81790000  0.90270000  0.00450000  1.0 0.3324869518
H  H3  1  0.00450000  0.81790000  0.90270000  1.0 0.3324869518
H  H4  1  0.82700000  0.01020000  0.88720000  1.0 0.3324869518
H  H5  1  0.88720000  0.82700000  0.01020000  1.0 0.3324869518
H  H6  1  0.01020000  0.88720000  0.82700000  1.0 0.3324869518
H  H7  1  0.34730000  0.97510000  0.43210000  1.0 0.3324869518
H  H8  1  0.43210000  0.97510000  0.24550000  1.0 0.3324869518
H  H9  1  0.24550000  0.97510000  0.34730000  1.0 0.3324869518
H  H10  1  0.42300000  0.97440000  0.36280000  1.0 0.3324869518
H  H11  1  0.36280000  0.97440000  0.23980000  1.0 0.3324869518
H  H12  1  0.23980000  0.97440000  0.42300000  1.0 0.3324869518
H  H13  1  0.43210000  0.34730000  0.97510000  1.0 0.3324869518
H  H14  1  0.24550000  0.43210000  0.97510000  1.0 0.3324869518
H  H15  1  0.34730000  0.24550000  0.97510000  1.0 0.3324869518
H  H16  1  0.36280000  0.42300000  0.97440000  1.0 0.3324869518
H  H17  1  0.23980000  0.36280000  0.97440000  1.0 0.3324869518
H  H18  1  0.42300000  0.23980000  0.97440000  1.0 0.3324869518
H  H19  1  0.34730000  0.43210000  0.24550000  1.0 0.3324869518
H  H20  1  0.43210000  0.24550000  0.34730000  1.0 0.3324869518
H  H21  1  0.24550000  0.34730000  0.43210000  1.0 0.3324869518
H  H22  1  0.42300000  0.36280000  0.23980000  1.0 0.3324869518
H  H23  1  0.36280000  0.23980000  0.42300000  1.0 0.3324869518
H  H24  1  0.23980000  0.42300000  0.36280000  1.0 0.3324869518
H  H25  1  0.97510000  0.24550000  0.43210000  1.0 0.3324869518
H  H26  1  0.97510000  0.43210000  0.34730000  1.0 0.3324869518
H  H27  1  0.97510000  0.34730000  0.24550000  1.0 0.3324869518
H  H28  1  0.97440000  0.23980000  0.36280000  1.0 0.3324869518
H  H29  1  0.97440000  0.36280000  0.42300000  1.0 0.3324869518
H  H30  1  0.97440000  0.42300000  0.23980000  1.0 0.3324869518
H  H31  1  0.00450000  0.90270000  0.27490000  1.0 0.3324869518
H  H32  1  0.81790000  0.00450000  0.27490000  1.0 0.3324869518
H  H33  1  0.90270000  0.81790000  0.27490000  1.0 0.3324869518
H  H34  1  0.01020000  0.82700000  0.27560000  1.0 0.3324869518
H  H35  1  0.88720000  0.01020000  0.27560000  1.0 0.3324869518
H  H36  1  0.82700000  0.88720000  0.27560000  1.0 0.3324869518
H  H37  1  0.90270000  0.27490000  0.00450000  1.0 0.3324869518
H  H38  1  0.00450000  0.27490000  0.81790000  1.0 0.3324869518
H  H39  1  0.81790000  0.27490000  0.90270000  1.0 0.3324869518
H  H40  1  0.82700000  0.27560000  0.01020000  1.0 0.3324869518
H  H41  1  0.01020000  0.27560000  0.88720000  1.0 0.3324869518
H  H42  1  0.88720000  0.27560000  0.82700000  1.0 0.3324869518
H  H43  1  0.27490000  0.00450000  0.90270000  1.0 0.3324869518
H  H44  1  0.27490000  0.90270000  0.81790000  1.0 0.3324869518
H  H45  1  0.27490000  0.81790000  0.00450000  1.0 0.3324869518
H  H46  1  0.27560000  0.01020000  0.82700000  1.0 0.3324869518
H  H47  1  0.27560000  0.82700000  0.88720000  1.0 0.3324869518
H  H48  1  0.27560000  0.88720000  0.01020000  1.0 0.3324869518
H  H49  1  0.84730000  0.74550000  0.93210000  1.0 0.3324869518
H  H50  1  0.93210000  0.84730000  0.74550000  1.0 0.3324869518
H  H51  1  0.74550000  0.93210000  0.84730000  1.0 0.3324869518
H  H52  1  0.92300000  0.73980000  0.86280000  1.0 0.3324869518
H  H53  1  0.86280000  0.92300000  0.73980000  1.0 0.3324869518
H  H54  1  0.73980000  0.86280000  0.92300000  1.0 0.3324869518
H  H55  1  0.40270000  0.77490000  0.31790000  1.0 0.3324869518
H  H56  1  0.31790000  0.77490000  0.50450000  1.0 0.3324869518
H  H57  1  0.50450000  0.77490000  0.40270000  1.0 0.3324869518
H  H58  1  0.32700000  0.77560000  0.38720000  1.0 0.3324869518
H  H59  1  0.38720000  0.77560000  0.51020000  1.0 0.3324869518
H  H60  1  0.51020000  0.77560000  0.32700000  1.0 0.3324869518
H  H61  1  0.31790000  0.40270000  0.77490000  1.0 0.3324869518
H  H62  1  0.50450000  0.31790000  0.77490000  1.0 0.3324869518
H  H63  1  0.40270000  0.50450000  0.77490000  1.0 0.3324869518
H  H64  1  0.38720000  0.32700000  0.77560000  1.0 0.3324869518
H  H65  1  0.51020000  0.38720000  0.77560000  1.0 0.3324869518
H  H66  1  0.32700000  0.51020000  0.77560000  1.0 0.3324869518
H  H67  1  0.40270000  0.31790000  0.50450000  1.0 0.3324869518
H  H68  1  0.31790000  0.50450000  0.40270000  1.0 0.3324869518
H  H69  1  0.50450000  0.40270000  0.31790000  1.0 0.3324869518
H  H70  1  0.32700000  0.38720000  0.51020000  1.0 0.3324869518
H  H71  1  0.38720000  0.51020000  0.32700000  1.0 0.3324869518
H  H72  1  0.51020000  0.32700000  0.38720000  1.0 0.3324869518
H  H73  1  0.77490000  0.50450000  0.31790000  1.0 0.3324869518
H  H74  1  0.77490000  0.31790000  0.40270000  1.0 0.3324869518
H  H75  1  0.77490000  0.40270000  0.50450000  1.0 0.3324869518
H  H76  1  0.77560000  0.51020000  0.38720000  1.0 0.3324869518
H  H77  1  0.77560000  0.38720000  0.32700000  1.0 0.3324869518
H  H78  1  0.77560000  0.32700000  0.51020000  1.0 0.3324869518
H  H79  1  0.74550000  0.84730000  0.47510000  1.0 0.3324869518
H  H80  1  0.93210000  0.74550000  0.47510000  1.0 0.3324869518
H  H81  1  0.84730000  0.93210000  0.47510000  1.0 0.3324869518
H  H82  1  0.73980000  0.92300000  0.47440000  1.0 0.3324869518
H  H83  1  0.86280000  0.73980000  0.47440000  1.0 0.3324869518
H  H84  1  0.92300000  0.86280000  0.47440000  1.0 0.3324869518
H  H85  1  0.84730000  0.47510000  0.74550000  1.0 0.3324869518
H  H86  1  0.74550000  0.47510000  0.93210000  1.0 0.3324869518
H  H87  1  0.93210000  0.47510000  0.84730000  1.0 0.3324869518
H  H88  1  0.92300000  0.47440000  0.73980000  1.0 0.3324869518
H  H89  1  0.73980000  0.47440000  0.86280000  1.0 0.3324869518
H  H90  1  0.86280000  0.47440000  0.92300000  1.0 0.3324869518
H  H91  1  0.47510000  0.74550000  0.84730000  1.0 0.3324869518
H  H92  1  0.47510000  0.84730000  0.93210000  1.0 0.3324869518
H  H93  1  0.47510000  0.93210000  0.74550000  1.0 0.3324869518
H  H94  1  0.47440000  0.73980000  0.92300000  1.0 0.3324869518
H  H95  1  0.47440000  0.92300000  0.86280000  1.0 0.3324869518
H  H96  1  0.47440000  0.86280000  0.73980000  1.0 0.3324869518
H  H97  1  0.11240000  0.17260000  0.98940000  1.0 0.3324869518
H  H98  1  0.98940000  0.11240000  0.17260000  1.0 0.3324869518
H  H99  1  0.17260000  0.98940000  0.11240000  1.0 0.3324869518
H  H100  1  0.18250000  0.09750000  0.99610000  1.0 0.3324869518
H  H101  1  0.99610000  0.18250000  0.09750000  1.0 0.3324869518
H  H102  1  0.09750000  0.99610000  0.18250000  1.0 0.3324869518
H  H103  1  0.26060000  0.13760000  0.52440000  1.0 0.3324869518
H  H104  1  0.07740000  0.26060000  0.52440000  1.0 0.3324869518
H  H105  1  0.13760000  0.07740000  0.52440000  1.0 0.3324869518
H  H106  1  0.25390000  0.06750000  0.52610000  1.0 0.3324869518
H  H107  1  0.15250000  0.25390000  0.52610000  1.0 0.3324869518
H  H108  1  0.06750000  0.15250000  0.52610000  1.0 0.3324869518
H  H109  1  0.26060000  0.52440000  0.07740000  1.0 0.3324869518
H  H110  1  0.13760000  0.52440000  0.26060000  1.0 0.3324869518
H  H111  1  0.07740000  0.52440000  0.13760000  1.0 0.3324869518
H  H112  1  0.25390000  0.52610000  0.15250000  1.0 0.3324869518
H  H113  1  0.06750000  0.52610000  0.25390000  1.0 0.3324869518
H  H114  1  0.15250000  0.52610000  0.06750000  1.0 0.3324869518
H  H115  1  0.52440000  0.26060000  0.13760000  1.0 0.3324869518
H  H116  1  0.52440000  0.07740000  0.26060000  1.0 0.3324869518
H  H117  1  0.52440000  0.13760000  0.07740000  1.0 0.3324869518
H  H118  1  0.52610000  0.25390000  0.06750000  1.0 0.3324869518
H  H119  1  0.52610000  0.15250000  0.25390000  1.0 0.3324869518
H  H120  1  0.52610000  0.06750000  0.15250000  1.0 0.3324869518
H  H121  1  0.07740000  0.13760000  0.26060000  1.0 0.3324869518
H  H122  1  0.13760000  0.26060000  0.07740000  1.0 0.3324869518
H  H123  1  0.26060000  0.07740000  0.13760000  1.0 0.3324869518
H  H124  1  0.15250000  0.06750000  0.25390000  1.0 0.3324869518
H  H125  1  0.06750000  0.25390000  0.15250000  1.0 0.3324869518
H  H126  1  0.25390000  0.15250000  0.06750000  1.0 0.3324869518
H  H127  1  0.11240000  0.72560000  0.17260000  1.0 0.3324869518
H  H128  1  0.17260000  0.72560000  0.98940000  1.0 0.3324869518
H  H129  1  0.98940000  0.72560000  0.11240000  1.0 0.3324869518
H  H130  1  0.18250000  0.72390000  0.09750000  1.0 0.3324869518
H  H131  1  0.09750000  0.72390000  0.99610000  1.0 0.3324869518
H  H132  1  0.99610000  0.72390000  0.18250000  1.0 0.3324869518
H  H133  1  0.72560000  0.17260000  0.11240000  1.0 0.3324869518
H  H134  1  0.72560000  0.11240000  0.98940000  1.0 0.3324869518
H  H135  1  0.72560000  0.98940000  0.17260000  1.0 0.3324869518
H  H136  1  0.72390000  0.09750000  0.18250000  1.0 0.3324869518
H  H137  1  0.72390000  0.18250000  0.99610000  1.0 0.3324869518
H  H138  1  0.72390000  0.99610000  0.09750000  1.0 0.3324869518
H  H139  1  0.17260000  0.11240000  0.72560000  1.0 0.3324869518
H  H140  1  0.98940000  0.17260000  0.72560000  1.0 0.3324869518
H  H141  1  0.11240000  0.98940000  0.72560000  1.0 0.3324869518
H  H142  1  0.09750000  0.18250000  0.72390000  1.0 0.3324869518
H  H143  1  0.99610000  0.09750000  0.72390000  1.0 0.3324869518
H  H144  1  0.18250000  0.99610000  0.72390000  1.0 0.3324869518
H  H145  1  0.63760000  0.57740000  0.76060000  1.0 0.3324869518
H  H146  1  0.76060000  0.63760000  0.57740000  1.0 0.3324869518
H  H147  1  0.57740000  0.76060000  0.63760000  1.0 0.3324869518
H  H148  1  0.56750000  0.65250000  0.75390000  1.0 0.3324869518
H  H149  1  0.75390000  0.56750000  0.65250000  1.0 0.3324869518
H  H150  1  0.65250000  0.75390000  0.56750000  1.0 0.3324869518
H  H151  1  0.48940000  0.61240000  0.22560000  1.0 0.3324869518
H  H152  1  0.67260000  0.48940000  0.22560000  1.0 0.3324869518
H  H153  1  0.61240000  0.67260000  0.22560000  1.0 0.3324869518
H  H154  1  0.49610000  0.68250000  0.22390000  1.0 0.3324869518
H  H155  1  0.59750000  0.49610000  0.22390000  1.0 0.3324869518
H  H156  1  0.68250000  0.59750000  0.22390000  1.0 0.3324869518
H  H157  1  0.48940000  0.22560000  0.67260000  1.0 0.3324869518
H  H158  1  0.61240000  0.22560000  0.48940000  1.0 0.3324869518
H  H159  1  0.67260000  0.22560000  0.61240000  1.0 0.3324869518
H  H160  1  0.49610000  0.22390000  0.59750000  1.0 0.3324869518
H  H161  1  0.68250000  0.22390000  0.49610000  1.0 0.3324869518
H  H162  1  0.59750000  0.22390000  0.68250000  1.0 0.3324869518
H  H163  1  0.22560000  0.48940000  0.61240000  1.0 0.3324869518
H  H164  1  0.22560000  0.67260000  0.48940000  1.0 0.3324869518
H  H165  1  0.22560000  0.61240000  0.67260000  1.0 0.3324869518
H  H166  1  0.22390000  0.49610000  0.68250000  1.0 0.3324869518
H  H167  1  0.22390000  0.59750000  0.49610000  1.0 0.3324869518
H  H168  1  0.22390000  0.68250000  0.59750000  1.0 0.3324869518
H  H169  1  0.67260000  0.61240000  0.48940000  1.0 0.3324869518
H  H170  1  0.61240000  0.48940000  0.67260000  1.0 0.3324869518
H  H171  1  0.48940000  0.67260000  0.61240000  1.0 0.3324869518
H  H172  1  0.59750000  0.68250000  0.49610000  1.0 0.3324869518
H  H173  1  0.68250000  0.49610000  0.59750000  1.0 0.3324869518
H  H174  1  0.49610000  0.59750000  0.68250000  1.0 0.3324869518
H  H175  1  0.63760000  0.02440000  0.57740000  1.0 0.3324869518
H  H176  1  0.57740000  0.02440000  0.76060000  1.0 0.3324869518
H  H177  1  0.76060000  0.02440000  0.63760000  1.0 0.3324869518
H  H178  1  0.56750000  0.02610000  0.65250000  1.0 0.3324869518
H  H179  1  0.65250000  0.02610000  0.75390000  1.0 0.3324869518
H  H180  1  0.75390000  0.02610000  0.56750000  1.0 0.3324869518
H  H181  1  0.02440000  0.57740000  0.63760000  1.0 0.3324869518
H  H182  1  0.02440000  0.63760000  0.76060000  1.0 0.3324869518
H  H183  1  0.02440000  0.76060000  0.57740000  1.0 0.3324869518
H  H184  1  0.02610000  0.65250000  0.56750000  1.0 0.3324869518
H  H185  1  0.02610000  0.56750000  0.75390000  1.0 0.3324869518
H  H186  1  0.02610000  0.75390000  0.65250000  1.0 0.3324869518
H  H187  1  0.57740000  0.63760000  0.02440000  1.0 0.3324869518
H  H188  1  0.76060000  0.57740000  0.02440000  1.0 0.3324869518
H  H189  1  0.63760000  0.76060000  0.02440000  1.0 0.3324869518
H  H190  1  0.65250000  0.56750000  0.02610000  1.0 0.3324869518
H  H191  1  0.75390000  0.65250000  0.02610000  1.0 0.3324869518
H  H192  1  0.56750000  0.75390000  0.02610000  1.0 0.3324869518
C  C1  1  0.33167000  0.67007000  0.98973000  1.0 0.8081038971
C  C2  1  0.98973000  0.33167000  0.67007000  1.0 0.8081038971
C  C3  1  0.67007000  0.98973000  0.33167000  1.0 0.8081038971
C  C4  1  0.91833000  0.57993000  0.24147000  1.0 0.8081038971
C  C5  1  0.26027000  0.24147000  0.57993000  1.0 0.8081038971
C  C6  1  0.24147000  0.26027000  0.91833000  1.0 0.8081038971
C  C7  1  0.26027000  0.91833000  0.24147000  1.0 0.8081038971
C  C8  1  0.24147000  0.57993000  0.26027000  1.0 0.8081038971
C  C9  1  0.57993000  0.24147000  0.91833000  1.0 0.8081038971
C  C10  1  0.57993000  0.26027000  0.24147000  1.0 0.8081038971
C  C11  1  0.91833000  0.24147000  0.26027000  1.0 0.8081038971
C  C12  1  0.24147000  0.91833000  0.57993000  1.0 0.8081038971
C  C13  1  0.67007000  0.33167000  0.00853000  1.0 0.8081038971
C  C14  1  0.33167000  0.98973000  0.00853000  1.0 0.8081038971
C  C15  1  0.98973000  0.67007000  0.00853000  1.0 0.8081038971
C  C16  1  0.00853000  0.98973000  0.67007000  1.0 0.8081038971
C  C17  1  0.00853000  0.67007000  0.33167000  1.0 0.8081038971
C  C18  1  0.00853000  0.33167000  0.98973000  1.0 0.8081038971
C  C19  1  0.98973000  0.00853000  0.33167000  1.0 0.8081038971
C  C20  1  0.67007000  0.00853000  0.98973000  1.0 0.8081038971
C  C21  1  0.33167000  0.00853000  0.67007000  1.0 0.8081038971
C  C22  1  0.57993000  0.91833000  0.26027000  1.0 0.8081038971
C  C23  1  0.91833000  0.26027000  0.57993000  1.0 0.8081038971
C  C24  1  0.26027000  0.57993000  0.91833000  1.0 0.8081038971
C  C25  1  0.41833000  0.07993000  0.76027000  1.0 0.8081038971
C  C26  1  0.76027000  0.41833000  0.07993000  1.0 0.8081038971
C  C27  1  0.07993000  0.76027000  0.41833000  1.0 0.8081038971
C  C28  1  0.83167000  0.17007000  0.50853000  1.0 0.8081038971
C  C29  1  0.48973000  0.50853000  0.17007000  1.0 0.8081038971
C  C30  1  0.50853000  0.48973000  0.83167000  1.0 0.8081038971
C  C31  1  0.48973000  0.83167000  0.50853000  1.0 0.8081038971
C  C32  1  0.50853000  0.17007000  0.48973000  1.0 0.8081038971
C  C33  1  0.17007000  0.50853000  0.83167000  1.0 0.8081038971
C  C34  1  0.17007000  0.48973000  0.50853000  1.0 0.8081038971
C  C35  1  0.83167000  0.50853000  0.48973000  1.0 0.8081038971
C  C36  1  0.50853000  0.83167000  0.17007000  1.0 0.8081038971
C  C37  1  0.07993000  0.41833000  0.74147000  1.0 0.8081038971
C  C38  1  0.41833000  0.76027000  0.74147000  1.0 0.8081038971
C  C39  1  0.76027000  0.07993000  0.74147000  1.0 0.8081038971
C  C40  1  0.74147000  0.76027000  0.07993000  1.0 0.8081038971
C  C41  1  0.74147000  0.07993000  0.41833000  1.0 0.8081038971
C  C42  1  0.74147000  0.41833000  0.76027000  1.0 0.8081038971
C  C43  1  0.76027000  0.74147000  0.41833000  1.0 0.8081038971
C  C44  1  0.07993000  0.74147000  0.76027000  1.0 0.8081038971
C  C45  1  0.41833000  0.74147000  0.07993000  1.0 0.8081038971
C  C46  1  0.17007000  0.83167000  0.48973000  1.0 0.8081038971
C  C47  1  0.83167000  0.48973000  0.17007000  1.0 0.8081038971
C  C48  1  0.48973000  0.17007000  0.83167000  1.0 0.8081038971
C  C49  1  0.90807000  0.90807000  0.90807000  1.0 0.6696531554
C  C50  1  0.34193000  0.97421000  0.34193000  1.0 0.6696531554
C  C51  1  0.34193000  0.34193000  0.97421000  1.0 0.6696531554
C  C52  1  0.34193000  0.34193000  0.34193000  1.0 0.6696531554
C  C53  1  0.97421000  0.34193000  0.34193000  1.0 0.6696531554
C  C54  1  0.90807000  0.90807000  0.27579000  1.0 0.6696531554
C  C55  1  0.90807000  0.27579000  0.90807000  1.0 0.6696531554
C  C56  1  0.27579000  0.90807000  0.90807000  1.0 0.6696531554
C  C57  1  0.84193000  0.84193000  0.84193000  1.0 0.6696531554
C  C58  1  0.40807000  0.77579000  0.40807000  1.0 0.6696531554
C  C59  1  0.40807000  0.40807000  0.77579000  1.0 0.6696531554
C  C60  1  0.40807000  0.40807000  0.40807000  1.0 0.6696531554
C  C61  1  0.77579000  0.40807000  0.40807000  1.0 0.6696531554
C  C62  1  0.84193000  0.84193000  0.47421000  1.0 0.6696531554
C  C63  1  0.84193000  0.47421000  0.84193000  1.0 0.6696531554
C  C64  1  0.47421000  0.84193000  0.84193000  1.0 0.6696531554
C  C65  1  0.09217000  0.09217000  0.09217000  1.0 0.6696531554
C  C66  1  0.15783000  0.15783000  0.52651000  1.0 0.6696531554
C  C67  1  0.15783000  0.52651000  0.15783000  1.0 0.6696531554
C  C68  1  0.52651000  0.15783000  0.15783000  1.0 0.6696531554
C  C69  1  0.15783000  0.15783000  0.15783000  1.0 0.6696531554
C  C70  1  0.09217000  0.72349000  0.09217000  1.0 0.6696531554
C  C71  1  0.72349000  0.09217000  0.09217000  1.0 0.6696531554
C  C72  1  0.09217000  0.09217000  0.72349000  1.0 0.6696531554
C  C73  1  0.65783000  0.65783000  0.65783000  1.0 0.6696531554
C  C74  1  0.59217000  0.59217000  0.22349000  1.0 0.6696531554
C  C75  1  0.59217000  0.22349000  0.59217000  1.0 0.6696531554
C  C76  1  0.22349000  0.59217000  0.59217000  1.0 0.6696531554
C  C77  1  0.59217000  0.59217000  0.59217000  1.0 0.6696531554
C  C78  1  0.65783000  0.02651000  0.65783000  1.0 0.6696531554
C  C79  1  0.02651000  0.65783000  0.65783000  1.0 0.6696531554
C  C80  1  0.65783000  0.65783000  0.02651000  1.0 0.6696531554
N  N1  1  0.87539000  0.98313000  0.86609000  1.0 -0.597267613
N  N2  1  0.86609000  0.87539000  0.98313000  1.0 -0.597267613
N  N3  1  0.98313000  0.86609000  0.87539000  1.0 -0.597267613
N  N4  1  0.37461000  0.97461000  0.38391000  1.0 -0.597267613
N  N5  1  0.38391000  0.97461000  0.26687000  1.0 -0.597267613
N  N6  1  0.26687000  0.97461000  0.37461000  1.0 -0.597267613
N  N7  1  0.38391000  0.37461000  0.97461000  1.0 -0.597267613
N  N8  1  0.26687000  0.38391000  0.97461000  1.0 -0.597267613
N  N9  1  0.37461000  0.26687000  0.97461000  1.0 -0.597267613
N  N10  1  0.37461000  0.38391000  0.26687000  1.0 -0.597267613
N  N11  1  0.38391000  0.26687000  0.37461000  1.0 -0.597267613
N  N12  1  0.26687000  0.37461000  0.38391000  1.0 -0.597267613
N  N13  1  0.97461000  0.26687000  0.38391000  1.0 -0.597267613
N  N14  1  0.97461000  0.38391000  0.37461000  1.0 -0.597267613
N  N15  1  0.97461000  0.37461000  0.26687000  1.0 -0.597267613
N  N16  1  0.98313000  0.87539000  0.27539000  1.0 -0.597267613
N  N17  1  0.86609000  0.98313000  0.27539000  1.0 -0.597267613
N  N18  1  0.87539000  0.86609000  0.27539000  1.0 -0.597267613
N  N19  1  0.87539000  0.27539000  0.98313000  1.0 -0.597267613
N  N20  1  0.98313000  0.27539000  0.86609000  1.0 -0.597267613
N  N21  1  0.86609000  0.27539000  0.87539000  1.0 -0.597267613
N  N22  1  0.27539000  0.98313000  0.87539000  1.0 -0.597267613
N  N23  1  0.27539000  0.87539000  0.86609000  1.0 -0.597267613
N  N24  1  0.27539000  0.86609000  0.98313000  1.0 -0.597267613
N  N25  1  0.87461000  0.76687000  0.88391000  1.0 -0.597267613
N  N26  1  0.88391000  0.87461000  0.76687000  1.0 -0.597267613
N  N27  1  0.76687000  0.88391000  0.87461000  1.0 -0.597267613
N  N28  1  0.37539000  0.77539000  0.36609000  1.0 -0.597267613
N  N29  1  0.36609000  0.77539000  0.48313000  1.0 -0.597267613
N  N30  1  0.48313000  0.77539000  0.37539000  1.0 -0.597267613
N  N31  1  0.36609000  0.37539000  0.77539000  1.0 -0.597267613
N  N32  1  0.48313000  0.36609000  0.77539000  1.0 -0.597267613
N  N33  1  0.37539000  0.48313000  0.77539000  1.0 -0.597267613
N  N34  1  0.37539000  0.36609000  0.48313000  1.0 -0.597267613
N  N35  1  0.36609000  0.48313000  0.37539000  1.0 -0.597267613
N  N36  1  0.48313000  0.37539000  0.36609000  1.0 -0.597267613
N  N37  1  0.77539000  0.48313000  0.36609000  1.0 -0.597267613
N  N38  1  0.77539000  0.36609000  0.37539000  1.0 -0.597267613
N  N39  1  0.77539000  0.37539000  0.48313000  1.0 -0.597267613
N  N40  1  0.76687000  0.87461000  0.47461000  1.0 -0.597267613
N  N41  1  0.88391000  0.76687000  0.47461000  1.0 -0.597267613
N  N42  1  0.87461000  0.88391000  0.47461000  1.0 -0.597267613
N  N43  1  0.87461000  0.47461000  0.76687000  1.0 -0.597267613
N  N44  1  0.76687000  0.47461000  0.88391000  1.0 -0.597267613
N  N45  1  0.88391000  0.47461000  0.87461000  1.0 -0.597267613
N  N46  1  0.47461000  0.76687000  0.87461000  1.0 -0.597267613
N  N47  1  0.47461000  0.87461000  0.88391000  1.0 -0.597267613
N  N48  1  0.47461000  0.88391000  0.76687000  1.0 -0.597267613
N  N49  1  0.13397000  0.12457000  0.01705000  1.0 -0.597267613
N  N50  1  0.01705000  0.13397000  0.12457000  1.0 -0.597267613
N  N51  1  0.12457000  0.01705000  0.13397000  1.0 -0.597267613
N  N52  1  0.23295000  0.11603000  0.52559000  1.0 -0.597267613
N  N53  1  0.12543000  0.23295000  0.52559000  1.0 -0.597267613
N  N54  1  0.11603000  0.12543000  0.52559000  1.0 -0.597267613
N  N55  1  0.23295000  0.52559000  0.12543000  1.0 -0.597267613
N  N56  1  0.11603000  0.52559000  0.23295000  1.0 -0.597267613
N  N57  1  0.12543000  0.52559000  0.11603000  1.0 -0.597267613
N  N58  1  0.52559000  0.23295000  0.11603000  1.0 -0.597267613
N  N59  1  0.52559000  0.12543000  0.23295000  1.0 -0.597267613
N  N60  1  0.52559000  0.11603000  0.12543000  1.0 -0.597267613
N  N61  1  0.12543000  0.11603000  0.23295000  1.0 -0.597267613
N  N62  1  0.11603000  0.23295000  0.12543000  1.0 -0.597267613
N  N63  1  0.23295000  0.12543000  0.11603000  1.0 -0.597267613
N  N64  1  0.13397000  0.72441000  0.12457000  1.0 -0.597267613
N  N65  1  0.12457000  0.72441000  0.01705000  1.0 -0.597267613
N  N66  1  0.01705000  0.72441000  0.13397000  1.0 -0.597267613
N  N67  1  0.72441000  0.12457000  0.13397000  1.0 -0.597267613
N  N68  1  0.72441000  0.13397000  0.01705000  1.0 -0.597267613
N  N69  1  0.72441000  0.01705000  0.12457000  1.0 -0.597267613
N  N70  1  0.12457000  0.13397000  0.72441000  1.0 -0.597267613
N  N71  1  0.01705000  0.12457000  0.72441000  1.0 -0.597267613
N  N72  1  0.13397000  0.01705000  0.72441000  1.0 -0.597267613
N  N73  1  0.61603000  0.62543000  0.73295000  1.0 -0.597267613
N  N74  1  0.73295000  0.61603000  0.62543000  1.0 -0.597267613
N  N75  1  0.62543000  0.73295000  0.61603000  1.0 -0.597267613
N  N76  1  0.51705000  0.63397000  0.22441000  1.0 -0.597267613
N  N77  1  0.62457000  0.51705000  0.22441000  1.0 -0.597267613
N  N78  1  0.63397000  0.62457000  0.22441000  1.0 -0.597267613
N  N79  1  0.51705000  0.22441000  0.62457000  1.0 -0.597267613
N  N80  1  0.63397000  0.22441000  0.51705000  1.0 -0.597267613
N  N81  1  0.62457000  0.22441000  0.63397000  1.0 -0.597267613
N  N82  1  0.22441000  0.51705000  0.63397000  1.0 -0.597267613
N  N83  1  0.22441000  0.62457000  0.51705000  1.0 -0.597267613
N  N84  1  0.22441000  0.63397000  0.62457000  1.0 -0.597267613
N  N85  1  0.62457000  0.63397000  0.51705000  1.0 -0.597267613
N  N86  1  0.63397000  0.51705000  0.62457000  1.0 -0.597267613
N  N87  1  0.51705000  0.62457000  0.63397000  1.0 -0.597267613
N  N88  1  0.61603000  0.02559000  0.62543000  1.0 -0.597267613
N  N89  1  0.62543000  0.02559000  0.73295000  1.0 -0.597267613
N  N90  1  0.73295000  0.02559000  0.61603000  1.0 -0.597267613
N  N91  1  0.02559000  0.62543000  0.61603000  1.0 -0.597267613
N  N92  1  0.02559000  0.61603000  0.73295000  1.0 -0.597267613
N  N93  1  0.02559000  0.73295000  0.62543000  1.0 -0.597267613
N  N94  1  0.62543000  0.61603000  0.02559000  1.0 -0.597267613
N  N95  1  0.73295000  0.62543000  0.02559000  1.0 -0.597267613
N  N96  1  0.61603000  0.73295000  0.02559000  1.0 -0.597267613
O  O1  1  0.16740000  0.83260000  0.16740000  1.0 -0.3990267535
O  O2  1  0.16740000  0.16740000  0.83260000  1.0 -0.3990267535
O  O3  1  0.83260000  0.16740000  0.16740000  1.0 -0.3990267535
O  O4  1  0.08260000  0.41740000  0.41740000  1.0 -0.3990267535
O  O5  1  0.41740000  0.08260000  0.08260000  1.0 -0.3990267535
O  O6  1  0.08260000  0.08260000  0.41740000  1.0 -0.3990267535
O  O7  1  0.41740000  0.41740000  0.08260000  1.0 -0.3990267535
O  O8  1  0.41740000  0.08260000  0.41740000  1.0 -0.3990267535
O  O9  1  0.08260000  0.41740000  0.08260000  1.0 -0.3990267535
O  O10  1  0.83260000  0.16740000  0.83260000  1.0 -0.3990267535
O  O11  1  0.16740000  0.83260000  0.83260000  1.0 -0.3990267535
O  O12  1  0.83260000  0.83260000  0.16740000  1.0 -0.3990267535
O  O13  1  0.58260000  0.91740000  0.58260000  1.0 -0.3990267535
O  O14  1  0.58260000  0.58260000  0.91740000  1.0 -0.3990267535
O  O15  1  0.91740000  0.58260000  0.58260000  1.0 -0.3990267535
O  O16  1  0.66740000  0.33260000  0.33260000  1.0 -0.3990267535
O  O17  1  0.33260000  0.66740000  0.66740000  1.0 -0.3990267535
O  O18  1  0.66740000  0.66740000  0.33260000  1.0 -0.3990267535
O  O19  1  0.33260000  0.33260000  0.66740000  1.0 -0.3990267535
O  O20  1  0.33260000  0.66740000  0.33260000  1.0 -0.3990267535
O  O21  1  0.66740000  0.33260000  0.66740000  1.0 -0.3990267535
O  O22  1  0.91740000  0.58260000  0.91740000  1.0 -0.3990267535
O  O23  1  0.58260000  0.91740000  0.91740000  1.0 -0.3990267535
O  O24  1  0.91740000  0.91740000  0.58260000  1.0 -0.3990267535
O  O25  1  0.31040000  0.68984000  0.04974000  1.0 -0.6106474016
O  O26  1  0.04974000  0.31040000  0.68984000  1.0 -0.6106474016
O  O27  1  0.68984000  0.04974000  0.31040000  1.0 -0.6106474016
O  O28  1  0.93960000  0.56016000  0.29998000  1.0 -0.6106474016
O  O29  1  0.20026000  0.29998000  0.56016000  1.0 -0.6106474016
O  O30  1  0.29998000  0.20026000  0.93960000  1.0 -0.6106474016
O  O31  1  0.20026000  0.93960000  0.29998000  1.0 -0.6106474016
O  O32  1  0.29998000  0.56016000  0.20026000  1.0 -0.6106474016
O  O33  1  0.56016000  0.29998000  0.93960000  1.0 -0.6106474016
O  O34  1  0.56016000  0.20026000  0.29998000  1.0 -0.6106474016
O  O35  1  0.93960000  0.29998000  0.20026000  1.0 -0.6106474016
O  O36  1  0.29998000  0.93960000  0.56016000  1.0 -0.6106474016
O  O37  1  0.68984000  0.31040000  0.95002000  1.0 -0.6106474016
O  O38  1  0.31040000  0.04974000  0.95002000  1.0 -0.6106474016
O  O39  1  0.04974000  0.68984000  0.95002000  1.0 -0.6106474016
O  O40  1  0.95002000  0.04974000  0.68984000  1.0 -0.6106474016
O  O41  1  0.95002000  0.68984000  0.31040000  1.0 -0.6106474016
O  O42  1  0.95002000  0.31040000  0.04974000  1.0 -0.6106474016
O  O43  1  0.04974000  0.95002000  0.31040000  1.0 -0.6106474016
O  O44  1  0.68984000  0.95002000  0.04974000  1.0 -0.6106474016
O  O45  1  0.31040000  0.95002000  0.68984000  1.0 -0.6106474016
O  O46  1  0.56016000  0.93960000  0.20026000  1.0 -0.6106474016
O  O47  1  0.93960000  0.20026000  0.56016000  1.0 -0.6106474016
O  O48  1  0.20026000  0.56016000  0.93960000  1.0 -0.6106474016
O  O49  1  0.43960000  0.06016000  0.70026000  1.0 -0.6106474016
O  O50  1  0.70026000  0.43960000  0.06016000  1.0 -0.6106474016
O  O51  1  0.06016000  0.70026000  0.43960000  1.0 -0.6106474016
O  O52  1  0.81040000  0.18984000  0.45002000  1.0 -0.6106474016
O  O53  1  0.54974000  0.45002000  0.18984000  1.0 -0.6106474016
O  O54  1  0.45002000  0.54974000  0.81040000  1.0 -0.6106474016
O  O55  1  0.54974000  0.81040000  0.45002000  1.0 -0.6106474016
O  O56  1  0.45002000  0.18984000  0.54974000  1.0 -0.6106474016
O  O57  1  0.18984000  0.45002000  0.81040000  1.0 -0.6106474016
O  O58  1  0.18984000  0.54974000  0.45002000  1.0 -0.6106474016
O  O59  1  0.81040000  0.45002000  0.54974000  1.0 -0.6106474016
O  O60  1  0.45002000  0.81040000  0.18984000  1.0 -0.6106474016
O  O61  1  0.06016000  0.43960000  0.79998000  1.0 -0.6106474016
O  O62  1  0.43960000  0.70026000  0.79998000  1.0 -0.6106474016
O  O63  1  0.70026000  0.06016000  0.79998000  1.0 -0.6106474016
O  O64  1  0.79998000  0.70026000  0.06016000  1.0 -0.6106474016
O  O65  1  0.79998000  0.06016000  0.43960000  1.0 -0.6106474016
O  O66  1  0.79998000  0.43960000  0.70026000  1.0 -0.6106474016
O  O67  1  0.70026000  0.79998000  0.43960000  1.0 -0.6106474016
O  O68  1  0.06016000  0.79998000  0.70026000  1.0 -0.6106474016
O  O69  1  0.43960000  0.79998000  0.06016000  1.0 -0.6106474016
O  O70  1  0.18984000  0.81040000  0.54974000  1.0 -0.6106474016
O  O71  1  0.81040000  0.54974000  0.18984000  1.0 -0.6106474016
O  O72  1  0.54974000  0.18984000  0.81040000  1.0 -0.6106474016
O  O73  1  0.28903000  0.71077000  0.94335000  1.0 -0.6106474016
O  O74  1  0.94335000  0.28903000  0.71077000  1.0 -0.6106474016
O  O75  1  0.71077000  0.94335000  0.28903000  1.0 -0.6106474016
O  O76  1  0.96097000  0.53923000  0.19315000  1.0 -0.6106474016
O  O77  1  0.30665000  0.19315000  0.53923000  1.0 -0.6106474016
O  O78  1  0.19315000  0.30665000  0.96097000  1.0 -0.6106474016
O  O79  1  0.30665000  0.96097000  0.19315000  1.0 -0.6106474016
O  O80  1  0.19315000  0.53923000  0.30665000  1.0 -0.6106474016
O  O81  1  0.53923000  0.19315000  0.96097000  1.0 -0.6106474016
O  O82  1  0.53923000  0.30665000  0.19315000  1.0 -0.6106474016
O  O83  1  0.96097000  0.19315000  0.30665000  1.0 -0.6106474016
O  O84  1  0.19315000  0.96097000  0.53923000  1.0 -0.6106474016
O  O85  1  0.71077000  0.28903000  0.05685000  1.0 -0.6106474016
O  O86  1  0.28903000  0.94335000  0.05685000  1.0 -0.6106474016
O  O87  1  0.94335000  0.71077000  0.05685000  1.0 -0.6106474016
O  O88  1  0.05685000  0.94335000  0.71077000  1.0 -0.6106474016
O  O89  1  0.05685000  0.71077000  0.28903000  1.0 -0.6106474016
O  O90  1  0.05685000  0.28903000  0.94335000  1.0 -0.6106474016
O  O91  1  0.94335000  0.05685000  0.28903000  1.0 -0.6106474016
O  O92  1  0.71077000  0.05685000  0.94335000  1.0 -0.6106474016
O  O93  1  0.28903000  0.05685000  0.71077000  1.0 -0.6106474016
O  O94  1  0.53923000  0.96097000  0.30665000  1.0 -0.6106474016
O  O95  1  0.96097000  0.30665000  0.53923000  1.0 -0.6106474016
O  O96  1  0.30665000  0.53923000  0.96097000  1.0 -0.6106474016
O  O97  1  0.46097000  0.03923000  0.80665000  1.0 -0.6106474016
O  O98  1  0.80665000  0.46097000  0.03923000  1.0 -0.6106474016
O  O99  1  0.03923000  0.80665000  0.46097000  1.0 -0.6106474016
O  O100  1  0.78903000  0.21077000  0.55685000  1.0 -0.6106474016
O  O101  1  0.44335000  0.55685000  0.21077000  1.0 -0.6106474016
O  O102  1  0.55685000  0.44335000  0.78903000  1.0 -0.6106474016
O  O103  1  0.44335000  0.78903000  0.55685000  1.0 -0.6106474016
O  O104  1  0.55685000  0.21077000  0.44335000  1.0 -0.6106474016
O  O105  1  0.21077000  0.55685000  0.78903000  1.0 -0.6106474016
O  O106  1  0.21077000  0.44335000  0.55685000  1.0 -0.6106474016
O  O107  1  0.78903000  0.55685000  0.44335000  1.0 -0.6106474016
O  O108  1  0.55685000  0.78903000  0.21077000  1.0 -0.6106474016
O  O109  1  0.03923000  0.46097000  0.69315000  1.0 -0.6106474016
O  O110  1  0.46097000  0.80665000  0.69315000  1.0 -0.6106474016
O  O111  1  0.80665000  0.03923000  0.69315000  1.0 -0.6106474016
O  O112  1  0.69315000  0.80665000  0.03923000  1.0 -0.6106474016
O  O113  1  0.69315000  0.03923000  0.46097000  1.0 -0.6106474016
O  O114  1  0.69315000  0.46097000  0.80665000  1.0 -0.6106474016
O  O115  1  0.80665000  0.69315000  0.46097000  1.0 -0.6106474016
O  O116  1  0.03923000  0.69315000  0.80665000  1.0 -0.6106474016
O  O117  1  0.46097000  0.69315000  0.03923000  1.0 -0.6106474016
O  O118  1  0.21077000  0.78903000  0.44335000  1.0 -0.6106474016
O  O119  1  0.78903000  0.44335000  0.21077000  1.0 -0.6106474016
O  O120  1  0.44335000  0.21077000  0.78903000  1.0 -0.6106474016
O  O121  1  0.39389000  0.61137000  0.97381000  1.0 -0.6417605761
O  O122  1  0.97381000  0.39389000  0.61137000  1.0 -0.6417605761
O  O123  1  0.61137000  0.97381000  0.39389000  1.0 -0.6417605761
O  O124  1  0.85611000  0.63863000  0.22907000  1.0 -0.6417605761
O  O125  1  0.27619000  0.22907000  0.63863000  1.0 -0.6417605761
O  O126  1  0.22907000  0.27619000  0.85611000  1.0 -0.6417605761
O  O127  1  0.27619000  0.85611000  0.22907000  1.0 -0.6417605761
O  O128  1  0.22907000  0.63863000  0.27619000  1.0 -0.6417605761
O  O129  1  0.63863000  0.22907000  0.85611000  1.0 -0.6417605761
O  O130  1  0.63863000  0.27619000  0.22907000  1.0 -0.6417605761
O  O131  1  0.85611000  0.22907000  0.27619000  1.0 -0.6417605761
O  O132  1  0.22907000  0.85611000  0.63863000  1.0 -0.6417605761
O  O133  1  0.61137000  0.39389000  0.02093000  1.0 -0.6417605761
O  O134  1  0.39389000  0.97381000  0.02093000  1.0 -0.6417605761
O  O135  1  0.97381000  0.61137000  0.02093000  1.0 -0.6417605761
O  O136  1  0.02093000  0.97381000  0.61137000  1.0 -0.6417605761
O  O137  1  0.02093000  0.61137000  0.39389000  1.0 -0.6417605761
O  O138  1  0.02093000  0.39389000  0.97381000  1.0 -0.6417605761
O  O139  1  0.97381000  0.02093000  0.39389000  1.0 -0.6417605761
O  O140  1  0.61137000  0.02093000  0.97381000  1.0 -0.6417605761
O  O141  1  0.39389000  0.02093000  0.61137000  1.0 -0.6417605761
O  O142  1  0.63863000  0.85611000  0.27619000  1.0 -0.6417605761
O  O143  1  0.85611000  0.27619000  0.63863000  1.0 -0.6417605761
O  O144  1  0.27619000  0.63863000  0.85611000  1.0 -0.6417605761
O  O145  1  0.35611000  0.13863000  0.77619000  1.0 -0.6417605761
O  O146  1  0.77619000  0.35611000  0.13863000  1.0 -0.6417605761
O  O147  1  0.13863000  0.77619000  0.35611000  1.0 -0.6417605761
O  O148  1  0.89389000  0.11137000  0.52093000  1.0 -0.6417605761
O  O149  1  0.47381000  0.52093000  0.11137000  1.0 -0.6417605761
O  O150  1  0.52093000  0.47381000  0.89389000  1.0 -0.6417605761
O  O151  1  0.47381000  0.89389000  0.52093000  1.0 -0.6417605761
O  O152  1  0.52093000  0.11137000  0.47381000  1.0 -0.6417605761
O  O153  1  0.11137000  0.52093000  0.89389000  1.0 -0.6417605761
O  O154  1  0.11137000  0.47381000  0.52093000  1.0 -0.6417605761
O  O155  1  0.89389000  0.52093000  0.47381000  1.0 -0.6417605761
O  O156  1  0.52093000  0.89389000  0.11137000  1.0 -0.6417605761
O  O157  1  0.13863000  0.35611000  0.72907000  1.0 -0.6417605761
O  O158  1  0.35611000  0.77619000  0.72907000  1.0 -0.6417605761
O  O159  1  0.77619000  0.13863000  0.72907000  1.0 -0.6417605761
O  O160  1  0.72907000  0.77619000  0.13863000  1.0 -0.6417605761
O  O161  1  0.72907000  0.13863000  0.35611000  1.0 -0.6417605761
O  O162  1  0.72907000  0.35611000  0.77619000  1.0 -0.6417605761
O  O163  1  0.77619000  0.72907000  0.35611000  1.0 -0.6417605761
O  O164  1  0.13863000  0.72907000  0.77619000  1.0 -0.6417605761
O  O165  1  0.35611000  0.72907000  0.13863000  1.0 -0.6417605761
O  O166  1  0.11137000  0.89389000  0.47381000  1.0 -0.6417605761
O  O167  1  0.89389000  0.47381000  0.11137000  1.0 -0.6417605761
O  O168  1  0.47381000  0.11137000  0.89389000  1.0 -0.6417605761
