# DDEC6 charges by PACMAN v1.1 (https://github.com/mtap-research/PACMAN-charge/)
data_IWEVUD_FSR_pacman
_symmetry_space_group_name_H-M   'P 1'
_cell_length_a   19.26990000
_cell_length_b   19.26990000
_cell_length_c   30.60340000
_cell_angle_alpha   78.78670000
_cell_angle_beta   101.21300000
_cell_angle_gamma   134.43900000
_symmetry_Int_Tables_number   1
_chemical_formula_structural   Zn5H55C56I12(N4O)3
_chemical_formula_sum   'Zn20 H220 C224 I48 N48 O12'
_cell_volume   7931.28556481
_cell_formula_units_Z   4
loop_
 _symmetry_equiv_pos_site_id
 _symmetry_equiv_pos_as_xyz
  1  'x, y, z'
loop_
 _atom_site_type_symbol
 _atom_site_label
 _atom_site_symmetry_multiplicity
 _atom_site_fract_x
 _atom_site_fract_y
 _atom_site_fract_z
 _atom_site_occupancy
 _atom_site_charge
Zn  Zn1  1  0.68284000  0.03380000  0.22623000  1.0 0.259685459
Zn  Zn2  1  0.96620000  0.31716000  0.72623000  1.0 0.2684492119
Zn  Zn3  1  0.53800000  0.71040000  0.40910000  1.0 0.3262353413
Zn  Zn4  1  0.28960000  0.46200000  0.90910000  1.0 0.3262353413
Zn  Zn5  1  0.21920000  0.97160000  0.06610000  1.0 0.2534061767
Zn  Zn6  1  0.02840000  0.78080000  0.56610000  1.0 0.2534061767
Zn  Zn7  1  0.54340000  0.70160000  0.40390000  1.0 0.3233760096
Zn  Zn8  1  0.29840000  0.45660000  0.90390000  1.0 0.3233760096
Zn  Zn9  1  0.21200000  0.96760000  0.05520000  1.0 0.2154544838
Zn  Zn10  1  0.03240000  0.78800000  0.55520000  1.0 0.2154544838
Zn  Zn11  1  0.03380000  0.68284000  0.27377000  1.0 0.259685459
Zn  Zn12  1  0.31716000  0.96620000  0.77377000  1.0 0.2684492119
Zn  Zn13  1  0.71040000  0.53800000  0.09090000  1.0 0.3262353413
Zn  Zn14  1  0.46200000  0.28960000  0.59090000  1.0 0.3262353413
Zn  Zn15  1  0.97160000  0.21920000  0.43390000  1.0 0.259685459
Zn  Zn16  1  0.78080000  0.02840000  0.93390000  1.0 0.259685459
Zn  Zn17  1  0.70160000  0.54340000  0.09610000  1.0 0.3233760096
Zn  Zn18  1  0.45660000  0.29840000  0.59610000  1.0 0.3233760096
Zn  Zn19  1  0.96760000  0.21200000  0.44480000  1.0 0.2154544838
Zn  Zn20  1  0.78800000  0.03240000  0.94480000  1.0 0.2154544838
H  H1  1  0.03560000  0.88780000  0.99850000  1.0 0.070939226
H  H2  1  0.11220000  0.96440000  0.49850000  1.0 0.070939226
H  H3  1  0.88830000  0.84430000  0.99690000  1.0 0.137294589
H  H4  1  0.15570000  0.11170000  0.49690000  1.0 0.137294589
H  H5  1  0.97040000  0.94000000  0.11790000  1.0 0.137294589
H  H6  1  0.06000000  0.02960000  0.61790000  1.0 0.137294589
H  H7  1  0.11060000  0.96980000  0.11810000  1.0 0.0814947277
H  H8  1  0.03020000  0.88940000  0.61810000  1.0 0.0814947277
H  H9  1  0.81620000  0.01440000  0.21130000  1.0 0.0906403057
H  H10  1  0.98560000  0.18380000  0.71130000  1.0 0.0906403057
H  H11  1  0.83450000  0.94970000  0.16410000  1.0 0.137294589
H  H12  1  0.05030000  0.16550000  0.66410000  1.0 0.137294589
H  H13  1  0.59650000  0.87630000  0.08860000  1.0 0.1197865721
H  H14  1  0.12370000  0.40350000  0.58860000  1.0 0.1197865721
H  H15  1  0.58410000  0.93970000  0.13810000  1.0 0.0906403057
H  H16  1  0.06030000  0.41590000  0.63810000  1.0 0.0906403057
H  H17  1  0.35180000  0.58460000  0.97410000  1.0 0.0602699261
H  H18  1  0.41540000  0.64820000  0.47410000  1.0 0.0602699261
H  H19  1  0.48380000  0.70300000  0.01870000  1.0 0.137294589
H  H20  1  0.29700000  0.51620000  0.51870000  1.0 0.137294589
H  H21  1  0.63660000  0.65600000  0.98000000  1.0 0.137294589
H  H22  1  0.34400000  0.36340000  0.48000000  1.0 0.137294589
H  H23  1  0.49790000  0.53710000  0.93650000  1.0 0.0814947277
H  H24  1  0.46290000  0.50210000  0.43650000  1.0 0.0814947277
H  H25  1  0.07500000  0.75480000  0.07420000  1.0 0.0602699261
H  H26  1  0.24520000  0.92500000  0.57420000  1.0 0.0602699261
H  H27  1  0.05040000  0.62920000  0.12050000  1.0 0.1197865721
H  H28  1  0.37080000  0.94960000  0.62050000  1.0 0.1197865721
H  H29  1  0.29310000  0.83270000  0.19670000  1.0 0.1197865721
H  H30  1  0.16730000  0.70690000  0.69670000  1.0 0.1197865721
H  H31  1  0.31150000  0.95110000  0.14800000  1.0 0.070939226
H  H32  1  0.04890000  0.68850000  0.64800000  1.0 0.070939226
H  H33  1  0.75580000  0.22420000  0.17450000  1.0 0.070939226
H  H34  1  0.77580000  0.24420000  0.67450000  1.0 0.070939226
H  H35  1  0.89770000  0.38930000  0.16980000  1.0 0.1197865721
H  H36  1  0.61070000  0.10230000  0.66980000  1.0 0.1197865721
H  H37  1  0.03120000  0.32960000  0.26370000  1.0 0.1280905999
H  H38  1  0.67040000  0.96880000  0.76370000  1.0 0.1280905999
H  H39  1  0.88680000  0.16660000  0.26550000  1.0 0.070939226
H  H40  1  0.83340000  0.11320000  0.76550000  1.0 0.070939226
H  H41  1  0.49040000  0.81100000  0.34140000  1.0 0.0602699261
H  H42  1  0.18900000  0.50960000  0.84140000  1.0 0.0602699261
H  H43  1  0.37690000  0.77430000  0.28200000  1.0 0.1197865721
H  H44  1  0.22570000  0.62310000  0.78200000  1.0 0.1197865721
H  H45  1  0.23850000  0.49090000  0.30600000  1.0 0.1197865721
H  H46  1  0.50910000  0.76150000  0.80600000  1.0 0.1197865721
H  H47  1  0.35790000  0.53530000  0.36410000  1.0 0.0814947277
H  H48  1  0.46470000  0.64210000  0.86410000  1.0 0.0814947277
H  H49  1  0.88780000  0.03560000  0.50150000  1.0 0.070939226
H  H50  1  0.96440000  0.11220000  0.00150000  1.0 0.070939226
H  H51  1  0.84430000  0.88830000  0.50310000  1.0 0.137294589
H  H52  1  0.11170000  0.15570000  0.00310000  1.0 0.137294589
H  H53  1  0.94000000  0.97040000  0.38210000  1.0 0.137294589
H  H54  1  0.02960000  0.06000000  0.88210000  1.0 0.137294589
H  H55  1  0.96980000  0.11060000  0.38190000  1.0 0.0814947277
H  H56  1  0.88940000  0.03020000  0.88190000  1.0 0.0814947277
H  H57  1  0.01440000  0.81620000  0.28870000  1.0 0.0906403057
H  H58  1  0.18380000  0.98560000  0.78870000  1.0 0.0906403057
H  H59  1  0.94970000  0.83450000  0.33590000  1.0 0.137294589
H  H60  1  0.16550000  0.05030000  0.83590000  1.0 0.137294589
H  H61  1  0.87630000  0.59650000  0.41140000  1.0 0.1197865721
H  H62  1  0.40350000  0.12370000  0.91140000  1.0 0.1197865721
H  H63  1  0.93970000  0.58410000  0.36190000  1.0 0.0906403057
H  H64  1  0.41590000  0.06030000  0.86190000  1.0 0.0906403057
H  H65  1  0.58460000  0.35180000  0.52590000  1.0 0.0602699261
H  H66  1  0.64820000  0.41540000  0.02590000  1.0 0.0602699261
H  H67  1  0.70300000  0.48380000  0.48130000  1.0 0.137294589
H  H68  1  0.51620000  0.29700000  0.98130000  1.0 0.137294589
H  H69  1  0.65600000  0.63660000  0.52000000  1.0 0.137294589
H  H70  1  0.36340000  0.34400000  0.02000000  1.0 0.137294589
H  H71  1  0.53710000  0.49790000  0.56350000  1.0 0.0814947277
H  H72  1  0.50210000  0.46290000  0.06350000  1.0 0.0814947277
H  H73  1  0.75480000  0.07500000  0.42580000  1.0 0.0602699261
H  H74  1  0.92500000  0.24520000  0.92580000  1.0 0.0602699261
H  H75  1  0.62920000  0.05040000  0.37950000  1.0 0.1197865721
H  H76  1  0.94960000  0.37080000  0.87950000  1.0 0.1197865721
H  H77  1  0.83270000  0.29310000  0.30330000  1.0 0.1197865721
H  H78  1  0.70690000  0.16730000  0.80330000  1.0 0.1197865721
H  H79  1  0.95110000  0.31150000  0.35200000  1.0 0.070939226
H  H80  1  0.68850000  0.04890000  0.85200000  1.0 0.070939226
H  H81  1  0.22420000  0.75580000  0.32550000  1.0 0.070939226
H  H82  1  0.24420000  0.77580000  0.82550000  1.0 0.070939226
H  H83  1  0.38930000  0.89770000  0.33020000  1.0 0.1197865721
H  H84  1  0.10230000  0.61070000  0.83020000  1.0 0.1197865721
H  H85  1  0.32960000  0.03120000  0.23630000  1.0 0.1280905999
H  H86  1  0.96880000  0.67040000  0.73630000  1.0 0.1280905999
H  H87  1  0.16660000  0.88680000  0.23450000  1.0 0.070939226
H  H88  1  0.11320000  0.83340000  0.73450000  1.0 0.070939226
H  H89  1  0.81100000  0.49040000  0.15860000  1.0 0.0602699261
H  H90  1  0.50960000  0.18900000  0.65860000  1.0 0.0602699261
H  H91  1  0.77430000  0.37690000  0.21800000  1.0 0.1197865721
H  H92  1  0.62310000  0.22570000  0.71800000  1.0 0.1197865721
H  H93  1  0.49090000  0.23850000  0.19400000  1.0 0.1197865721
H  H94  1  0.76150000  0.50910000  0.69400000  1.0 0.1197865721
H  H95  1  0.53530000  0.35790000  0.13590000  1.0 0.0814947277
H  H96  1  0.64210000  0.46470000  0.63590000  1.0 0.0814947277
H  H97  1  0.54160000  0.21720000  0.03940000  1.0 0.0814947277
H  H98  1  0.45840000  0.78280000  0.96060000  1.0 0.0814947277
H  H99  1  0.61480000  0.30300000  0.07350000  1.0 0.0602699261
H  H100  1  0.38520000  0.69700000  0.92650000  1.0 0.0602699261
H  H101  1  0.93350000  0.49050000  0.08260000  1.0 0.0906403057
H  H102  1  0.06650000  0.50950000  0.91740000  1.0 0.0906403057
H  H103  1  0.07280000  0.55860000  0.05510000  1.0 0.0906403057
H  H104  1  0.92720000  0.44140000  0.94490000  1.0 0.0906403057
H  H105  1  0.06590000  0.48670000  0.99940000  1.0 0.0814947277
H  H106  1  0.93410000  0.51330000  0.00060000  1.0 0.0814947277
H  H107  1  0.91590000  0.33630000  0.97790000  1.0 0.0976912029
H  H108  1  0.08410000  0.66370000  0.02210000  1.0 0.0976912029
H  H109  1  0.77800000  0.25580000  0.01520000  1.0 0.0906403057
H  H110  1  0.22200000  0.74420000  0.98480000  1.0 0.0906403057
H  H111  1  0.72280000  0.34840000  0.05540000  1.0 0.1471236818
H  H112  1  0.27720000  0.65160000  0.94460000  1.0 0.1471236818
H  H113  1  0.78420000  0.36780000  0.10300000  1.0 0.0976912029
H  H114  1  0.21580000  0.63220000  0.89700000  1.0 0.0976912029
H  H115  1  0.61920000  0.27780000  0.11500000  1.0 0.0525848569
H  H116  1  0.38080000  0.72220000  0.88500000  1.0 0.0525848569
H  H117  1  0.64150000  0.21050000  0.13340000  1.0 0.137294589
H  H118  1  0.35850000  0.78950000  0.86660000  1.0 0.137294589
H  H119  1  0.55710000  0.20650000  0.04400000  1.0 0.1096480008
H  H120  1  0.44290000  0.79350000  0.95600000  1.0 0.1096480008
H  H121  1  0.49180000  0.12820000  0.08370000  1.0 0.0602699261
H  H122  1  0.50820000  0.87180000  0.91630000  1.0 0.0525848569
H  H123  1  0.53330000  0.07950000  0.03350000  1.0 0.0392277753
H  H124  1  0.46670000  0.92050000  0.96650000  1.0 0.0392277753
H  H125  1  0.54170000  0.05270000  0.08570000  1.0 0.0203261495
H  H126  1  0.45830000  0.94730000  0.91430000  1.0 0.0203261495
H  H127  1  0.68030000  0.15490000  0.02870000  1.0 -0.0067933856
H  H128  1  0.31970000  0.84510000  0.97130000  1.0 -0.0067933856
H  H129  1  0.68510000  0.11850000  0.07970000  1.0 0.0602699261
H  H130  1  0.31490000  0.88150000  0.92030000  1.0 0.0602699261
H  H131  1  0.79520000  0.26300000  0.09670000  1.0 0.1096480008
H  H132  1  0.20480000  0.73700000  0.90330000  1.0 0.1096480008
H  H133  1  0.79460000  0.29940000  0.04550000  1.0 0.0602699261
H  H134  1  0.20540000  0.70060000  0.95450000  1.0 0.0602699261
H  H135  1  0.39140000  0.00280000  0.00470000  1.0 0.070939226
H  H136  1  0.60860000  0.99720000  0.99530000  1.0 0.070939226
H  H137  1  0.38160000  0.91480000  0.99850000  1.0 0.0203261495
H  H138  1  0.61840000  0.08520000  0.00150000  1.0 0.0203261495
H  H139  1  0.53280000  0.04940000  0.04760000  1.0 -0.0067933856
H  H140  1  0.46720000  0.95060000  0.95240000  1.0 -0.0067933856
H  H141  1  0.55150000  0.01290000  0.01220000  1.0 0.0392277753
H  H142  1  0.44850000  0.98710000  0.98780000  1.0 0.0392277753
H  H143  1  0.64900000  0.19680000  0.00750000  1.0 0.0602699261
H  H144  1  0.35100000  0.80320000  0.99250000  1.0 0.0602699261
H  H145  1  0.55070000  0.16390000  0.98090000  1.0 0.0906403057
H  H146  1  0.44930000  0.83610000  0.01910000  1.0 0.0906403057
H  H147  1  0.68080000  0.15940000  0.95070000  1.0 0.1096480008
H  H148  1  0.31920000  0.84060000  0.04930000  1.0 0.1096480008
H  H149  1  0.62580000  0.19060000  0.92080000  1.0 0.1096480008
H  H150  1  0.37420000  0.80940000  0.07920000  1.0 0.1096480008
H  H151  1  0.52460000  0.02580000  0.90480000  1.0 0.0602699261
H  H152  1  0.47540000  0.97420000  0.09520000  1.0 0.0602699261
H  H153  1  0.53230000  0.99230000  0.95670000  1.0 0.0203261495
H  H154  1  0.46770000  0.00770000  0.04330000  1.0 0.0203261495
H  H155  1  0.38510000  0.97550000  0.92460000  1.0 0.0525848569
H  H156  1  0.61490000  0.02450000  0.07540000  1.0 0.0525848569
H  H157  1  0.46100000  0.08600000  0.93770000  1.0 0.0906403057
H  H158  1  0.53900000  0.91400000  0.06230000  1.0 0.0906403057
H  H159  1  0.21720000  0.54160000  0.46060000  1.0 0.0814947277
H  H160  1  0.78280000  0.45840000  0.53940000  1.0 0.0814947277
H  H161  1  0.30300000  0.61480000  0.42650000  1.0 0.0602699261
H  H162  1  0.69700000  0.38520000  0.57350000  1.0 0.0602699261
H  H163  1  0.49050000  0.93350000  0.41740000  1.0 0.0906403057
H  H164  1  0.50950000  0.06650000  0.58260000  1.0 0.0906403057
H  H165  1  0.55860000  0.07280000  0.44490000  1.0 0.0906403057
H  H166  1  0.44140000  0.92720000  0.55510000  1.0 0.0906403057
H  H167  1  0.48670000  0.06590000  0.50060000  1.0 0.0814947277
H  H168  1  0.51330000  0.93410000  0.49940000  1.0 0.0814947277
H  H169  1  0.33630000  0.91590000  0.52210000  1.0 0.0976912029
H  H170  1  0.66370000  0.08410000  0.47790000  1.0 0.0976912029
H  H171  1  0.25580000  0.77800000  0.48480000  1.0 0.0906403057
H  H172  1  0.74420000  0.22200000  0.51520000  1.0 0.0906403057
H  H173  1  0.34840000  0.72280000  0.44460000  1.0 0.1471236818
H  H174  1  0.65160000  0.27720000  0.55540000  1.0 0.1471236818
H  H175  1  0.36780000  0.78420000  0.39700000  1.0 0.0976912029
H  H176  1  0.63220000  0.21580000  0.60300000  1.0 0.0976912029
H  H177  1  0.27780000  0.61920000  0.38500000  1.0 0.0525848569
H  H178  1  0.72220000  0.38080000  0.61500000  1.0 0.0525848569
H  H179  1  0.21050000  0.64150000  0.36660000  1.0 0.137294589
H  H180  1  0.78950000  0.35850000  0.63340000  1.0 0.137294589
H  H181  1  0.20650000  0.55710000  0.45600000  1.0 0.1096480008
H  H182  1  0.79350000  0.44290000  0.54400000  1.0 0.1096480008
H  H183  1  0.12820000  0.49180000  0.41630000  1.0 0.0525848569
H  H184  1  0.87180000  0.50820000  0.58370000  1.0 0.0525848569
H  H185  1  0.07950000  0.53330000  0.46650000  1.0 0.0392277753
H  H186  1  0.92050000  0.46670000  0.53350000  1.0 0.0392277753
H  H187  1  0.05270000  0.54170000  0.41430000  1.0 0.0203261495
H  H188  1  0.94730000  0.45830000  0.58570000  1.0 0.0203261495
H  H189  1  0.15490000  0.68030000  0.47130000  1.0 -0.0067933856
H  H190  1  0.84510000  0.31970000  0.52870000  1.0 -0.0067933856
H  H191  1  0.11850000  0.68510000  0.42030000  1.0 0.0602699261
H  H192  1  0.88150000  0.31490000  0.57970000  1.0 0.0602699261
H  H193  1  0.26300000  0.79520000  0.40330000  1.0 0.1096480008
H  H194  1  0.73700000  0.20480000  0.59670000  1.0 0.1096480008
H  H195  1  0.29940000  0.79460000  0.45450000  1.0 0.0602699261
H  H196  1  0.70060000  0.20540000  0.54550000  1.0 0.0602699261
H  H197  1  0.00280000  0.39140000  0.49530000  1.0 0.070939226
H  H198  1  0.99720000  0.60860000  0.50470000  1.0 0.070939226
H  H199  1  0.91480000  0.38160000  0.50150000  1.0 0.0203261495
H  H200  1  0.08520000  0.61840000  0.49850000  1.0 0.0203261495
H  H201  1  0.04940000  0.53280000  0.45240000  1.0 -0.0067933856
H  H202  1  0.95060000  0.46720000  0.54760000  1.0 -0.0067933856
H  H203  1  0.01290000  0.55150000  0.48780000  1.0 0.0392277753
H  H204  1  0.98710000  0.44850000  0.51220000  1.0 0.0392277753
H  H205  1  0.19680000  0.64900000  0.49250000  1.0 0.0602699261
H  H206  1  0.80320000  0.35100000  0.50750000  1.0 0.0602699261
H  H207  1  0.16390000  0.55070000  0.51910000  1.0 0.0906403057
H  H208  1  0.83610000  0.44930000  0.48090000  1.0 0.0906403057
H  H209  1  0.15940000  0.68080000  0.54930000  1.0 0.1096480008
H  H210  1  0.84060000  0.31920000  0.45070000  1.0 0.1096480008
H  H211  1  0.19060000  0.62580000  0.57920000  1.0 0.1096480008
H  H212  1  0.80940000  0.37420000  0.42080000  1.0 0.1096480008
H  H213  1  0.02580000  0.52460000  0.59520000  1.0 0.0602699261
H  H214  1  0.97420000  0.47540000  0.40480000  1.0 0.0602699261
H  H215  1  0.99230000  0.53230000  0.54330000  1.0 0.0203261495
H  H216  1  0.00770000  0.46770000  0.45670000  1.0 0.0203261495
H  H217  1  0.97550000  0.38510000  0.57540000  1.0 0.0525848569
H  H218  1  0.02450000  0.61490000  0.42460000  1.0 0.0525848569
H  H219  1  0.08600000  0.46100000  0.56230000  1.0 0.0906403057
H  H220  1  0.91400000  0.53900000  0.43770000  1.0 0.0906403057
C  C1  1  0.02197000  0.89743000  0.02370000  1.0 0.0525848569
C  C2  1  0.10257000  0.97803000  0.52370000  1.0 0.0525848569
C  C3  1  0.93380000  0.87160000  0.02240000  1.0 -0.1610228534
C  C4  1  0.12840000  0.06620000  0.52240000  1.0 -0.1610228534
C  C5  1  0.91318000  0.88562000  0.05770000  1.0 0.070939226
C  C6  1  0.11438000  0.08682000  0.55770000  1.0 0.070939226
C  C7  1  0.98060000  0.92580000  0.09310000  1.0 -0.1425190441
C  C8  1  0.07420000  0.01940000  0.59310000  1.0 -0.1425190441
C  C9  1  0.06580000  0.94620000  0.09230000  1.0 0.0602699261
C  C10  1  0.05380000  0.93420000  0.59230000  1.0 0.0602699261
C  C11  1  0.81957000  0.85803000  0.05865000  1.0 0.3388847135
C  C12  1  0.14197000  0.18043000  0.55865000  1.0 0.3388847135
C  C13  1  0.72675000  0.86265000  0.08954000  1.0 0.3388847135
C  C14  1  0.13735000  0.27325000  0.58954000  1.0 0.3388847135
C  C15  1  0.66151000  0.76709000  0.03348000  1.0 0.3233760096
C  C16  1  0.23291000  0.33849000  0.53348000  1.0 0.3233760096
C  C17  1  0.77070000  0.98510000  0.18590000  1.0 0.0525848569
C  C18  1  0.01490000  0.22930000  0.68590000  1.0 0.0525848569
C  C19  1  0.78232000  0.94688000  0.15810000  1.0 -0.1472457891
C  C20  1  0.05312000  0.21768000  0.65810000  1.0 -0.1472457891
C  C21  1  0.71691000  0.90389000  0.12105000  1.0 0.0602699261
C  C22  1  0.09611000  0.28309000  0.62105000  1.0 0.0602699261
C  C23  1  0.64210000  0.90370000  0.11400000  1.0 -0.180058907
C  C24  1  0.09630000  0.35790000  0.61400000  1.0 -0.180058907
C  C25  1  0.63573000  0.94187000  0.14320000  1.0 0.0392277753
C  C26  1  0.05813000  0.36427000  0.64320000  1.0 0.0392277753
C  C27  1  0.41060000  0.59940000  0.97550000  1.0 -0.0296203924
C  C28  1  0.40060000  0.58940000  0.47550000  1.0 -0.0296203924
C  C29  1  0.48840000  0.66920000  0.00230000  1.0 -0.1891008866
C  C30  1  0.33080000  0.51160000  0.50230000  1.0 -0.1891008866
C  C31  1  0.57517000  0.69063000  0.00537000  1.0 0.070939226
C  C32  1  0.30937000  0.42483000  0.50537000  1.0 0.070939226
C  C33  1  0.57834000  0.64186000  0.97971000  1.0 -0.1610228534
C  C34  1  0.35814000  0.42166000  0.47971000  1.0 -0.1610228534
C  C35  1  0.49567000  0.57173000  0.95350000  1.0 0.0392277753
C  C36  1  0.42827000  0.50433000  0.45350000  1.0 0.0392277753
C  C37  1  0.12030000  0.77050000  0.09930000  1.0 0.0109762795
C  C38  1  0.22950000  0.87970000  0.59930000  1.0 0.0109762795
C  C39  1  0.10488000  0.69512000  0.12680000  1.0 -0.1699987911
C  C40  1  0.30488000  0.89512000  0.62680000  1.0 -0.1699987911
C  C41  1  0.16903000  0.71697000  0.16310000  1.0 0.070939226
C  C42  1  0.28303000  0.83097000  0.66310000  1.0 0.070939226
C  C43  1  0.24756000  0.81484000  0.17140000  1.0 -0.1610228534
C  C44  1  0.18516000  0.75244000  0.67140000  1.0 -0.1610228534
C  C45  1  0.25774000  0.88466000  0.14230000  1.0 0.0109762795
C  C46  1  0.11534000  0.74226000  0.64230000  1.0 0.0109762795
C  C47  1  0.15697000  0.64023000  0.19415000  1.0 0.3575725712
C  C48  1  0.35977000  0.84303000  0.69415000  1.0 0.3575725712
C  C49  1  0.07098000  0.48242000  0.21717000  1.0 0.3533332657
C  C50  1  0.51758000  0.92902000  0.71717000  1.0 0.3533332657
C  C51  1  0.21734000  0.59986000  0.25230000  1.0 0.3533332657
C  C52  1  0.40014000  0.78266000  0.75230000  1.0 0.3533332657
C  C53  1  0.81250000  0.24590000  0.19310000  1.0 0.0109762795
C  C54  1  0.75410000  0.18750000  0.69310000  1.0 0.0109762795
C  C55  1  0.89706000  0.34474000  0.19010000  1.0 -0.1891008866
C  C56  1  0.65526000  0.10294000  0.69010000  1.0 -0.1891008866
C  C57  1  0.97931000  0.37729000  0.21680000  1.0 0.0602699261
C  C58  1  0.62271000  0.02069000  0.71680000  1.0 0.0602699261
C  C59  1  0.97523000  0.30977000  0.24500000  1.0 -0.1472457891
C  C60  1  0.69023000  0.02477000  0.74500000  1.0 -0.1472457891
C  C61  1  0.88880000  0.21280000  0.24600000  1.0 0.0602699261
C  C62  1  0.78720000  0.11120000  0.74600000  1.0 0.0602699261
C  C63  1  0.43888000  0.74532000  0.33398000  1.0 -0.0477189228
C  C64  1  0.25468000  0.56112000  0.83398000  1.0 -0.0477189228
C  C65  1  0.37095000  0.72365000  0.29894000  1.0 -0.1891008866
C  C66  1  0.27635000  0.62905000  0.79894000  1.0 -0.1891008866
C  C67  1  0.29385000  0.62755000  0.28846000  1.0 0.070939226
C  C68  1  0.37245000  0.70615000  0.78846000  1.0 0.070939226
C  C69  1  0.28950000  0.55710000  0.31270000  1.0 -0.1610228534
C  C70  1  0.44290000  0.71050000  0.81270000  1.0 -0.1610228534
C  C71  1  0.36110000  0.58430000  0.34720000  1.0 0.0300687583
C  C72  1  0.41570000  0.63890000  0.84720000  1.0 0.0300687583
C  C73  1  0.89743000  0.02197000  0.47630000  1.0 0.0525848569
C  C74  1  0.97803000  0.10257000  0.97630000  1.0 0.0525848569
C  C75  1  0.87160000  0.93380000  0.47760000  1.0 -0.1610228534
C  C76  1  0.06620000  0.12840000  0.97760000  1.0 -0.1610228534
C  C77  1  0.88562000  0.91318000  0.44230000  1.0 0.070939226
C  C78  1  0.08682000  0.11438000  0.94230000  1.0 0.070939226
C  C79  1  0.92580000  0.98060000  0.40690000  1.0 -0.1425190441
C  C80  1  0.01940000  0.07420000  0.90690000  1.0 -0.1425190441
C  C81  1  0.94620000  0.06580000  0.40770000  1.0 0.0602699261
C  C82  1  0.93420000  0.05380000  0.90770000  1.0 0.0602699261
C  C83  1  0.85803000  0.81957000  0.44135000  1.0 0.3388847135
C  C84  1  0.18043000  0.14197000  0.94135000  1.0 0.3388847135
C  C85  1  0.86265000  0.72675000  0.41046000  1.0 0.3388847135
C  C86  1  0.27325000  0.13735000  0.91046000  1.0 0.3388847135
C  C87  1  0.76709000  0.66151000  0.46652000  1.0 0.3233760096
C  C88  1  0.33849000  0.23291000  0.96652000  1.0 0.3233760096
C  C89  1  0.98510000  0.77070000  0.31410000  1.0 0.0525848569
C  C90  1  0.22930000  0.01490000  0.81410000  1.0 0.0525848569
C  C91  1  0.94688000  0.78232000  0.34190000  1.0 -0.1425190441
C  C92  1  0.21768000  0.05312000  0.84190000  1.0 -0.1472457891
C  C93  1  0.90389000  0.71691000  0.37895000  1.0 0.0602699261
C  C94  1  0.28309000  0.09611000  0.87895000  1.0 0.0602699261
C  C95  1  0.90370000  0.64210000  0.38600000  1.0 -0.180058907
C  C96  1  0.35790000  0.09630000  0.88600000  1.0 -0.180058907
C  C97  1  0.94187000  0.63573000  0.35680000  1.0 0.0392277753
C  C98  1  0.36427000  0.05813000  0.85680000  1.0 0.0392277753
C  C99  1  0.59940000  0.41060000  0.52450000  1.0 -0.0296203924
C  C100  1  0.58940000  0.40060000  0.02450000  1.0 -0.0296203924
C  C101  1  0.66920000  0.48840000  0.49770000  1.0 -0.180058907
C  C102  1  0.51160000  0.33080000  0.99770000  1.0 -0.1891008866
C  C103  1  0.69063000  0.57517000  0.49463000  1.0 0.070939226
C  C104  1  0.42483000  0.30937000  0.99463000  1.0 0.070939226
C  C105  1  0.64186000  0.57834000  0.52029000  1.0 -0.1610228534
C  C106  1  0.42166000  0.35814000  0.02029000  1.0 -0.1610228534
C  C107  1  0.57173000  0.49567000  0.54650000  1.0 0.0392277753
C  C108  1  0.50433000  0.42827000  0.04650000  1.0 0.0392277753
C  C109  1  0.77050000  0.12030000  0.40070000  1.0 0.0109762795
C  C110  1  0.87970000  0.22950000  0.90070000  1.0 0.0109762795
C  C111  1  0.69512000  0.10488000  0.37320000  1.0 -0.1699987911
C  C112  1  0.89512000  0.30488000  0.87320000  1.0 -0.1699987911
C  C113  1  0.71697000  0.16903000  0.33690000  1.0 0.070939226
C  C114  1  0.83097000  0.28303000  0.83690000  1.0 0.070939226
C  C115  1  0.81484000  0.24756000  0.32860000  1.0 -0.1610228534
C  C116  1  0.75244000  0.18516000  0.82860000  1.0 -0.1610228534
C  C117  1  0.88466000  0.25774000  0.35770000  1.0 0.0109762795
C  C118  1  0.74226000  0.11534000  0.85770000  1.0 0.0109762795
C  C119  1  0.64023000  0.15697000  0.30585000  1.0 0.3575725712
C  C120  1  0.84303000  0.35977000  0.80585000  1.0 0.3575725712
C  C121  1  0.48242000  0.07098000  0.28283000  1.0 0.3575725712
C  C122  1  0.92902000  0.51758000  0.78283000  1.0 0.3533332657
C  C123  1  0.59986000  0.21734000  0.24770000  1.0 0.3533332657
C  C124  1  0.78266000  0.40014000  0.74770000  1.0 0.3533332657
C  C125  1  0.24590000  0.81250000  0.30690000  1.0 0.0109762795
C  C126  1  0.18750000  0.75410000  0.80690000  1.0 0.0109762795
C  C127  1  0.34474000  0.89706000  0.30990000  1.0 -0.1891008866
C  C128  1  0.10294000  0.65526000  0.80990000  1.0 -0.1891008866
C  C129  1  0.37729000  0.97931000  0.28320000  1.0 0.0602699261
C  C130  1  0.02069000  0.62271000  0.78320000  1.0 0.0602699261
C  C131  1  0.30977000  0.97523000  0.25500000  1.0 -0.1472457891
C  C132  1  0.02477000  0.69023000  0.75500000  1.0 -0.1472457891
C  C133  1  0.21280000  0.88880000  0.25400000  1.0 0.0602699261
C  C134  1  0.11120000  0.78720000  0.75400000  1.0 0.0602699261
C  C135  1  0.74532000  0.43888000  0.16602000  1.0 -0.0477189228
C  C136  1  0.56112000  0.25468000  0.66602000  1.0 -0.0477189228
C  C137  1  0.72365000  0.37095000  0.20106000  1.0 -0.1891008866
C  C138  1  0.62905000  0.27635000  0.70106000  1.0 -0.1891008866
C  C139  1  0.62755000  0.29385000  0.21154000  1.0 0.070939226
C  C140  1  0.70615000  0.37245000  0.71154000  1.0 0.070939226
C  C141  1  0.55710000  0.28950000  0.18730000  1.0 -0.1610228534
C  C142  1  0.71050000  0.44290000  0.68730000  1.0 -0.1610228534
C  C143  1  0.58430000  0.36110000  0.15280000  1.0 0.0300687583
C  C144  1  0.63890000  0.41570000  0.65280000  1.0 0.0300687583
C  C145  1  0.60530000  0.25670000  0.05730000  1.0 -0.0394017406
C  C146  1  0.39470000  0.74330000  0.94270000  1.0 -0.0394017406
C  C147  1  0.75840000  0.34360000  0.06640000  1.0 0.0392277753
C  C148  1  0.24160000  0.65640000  0.93360000  1.0 0.0392277753
C  C149  1  0.83890000  0.36910000  0.05050000  1.0 -0.0296203924
C  C150  1  0.16110000  0.63090000  0.94950000  1.0 -0.0296203924
C  C151  1  0.92910000  0.45690000  0.06160000  1.0 -0.2543389104
C  C152  1  0.07090000  0.54310000  0.93840000  1.0 -0.2587040923
C  C153  1  0.01250000  0.49950000  0.04470000  1.0 -0.070049049
C  C154  1  0.98750000  0.50050000  0.95530000  1.0 -0.070049049
C  C155  1  0.00840000  0.45560000  0.01280000  1.0 -0.0394017406
C  C156  1  0.99160000  0.54440000  0.98720000  1.0 -0.0394017406
C  C157  1  0.91970000  0.36630000  0.00060000  1.0 -0.2008498984
C  C158  1  0.08030000  0.63370000  0.99940000  1.0 -0.2008498984
C  C159  1  0.83700000  0.32100000  0.02130000  1.0 -0.180058907
C  C160  1  0.16300000  0.67900000  0.97870000  1.0 -0.180058907
C  C161  1  0.72980000  0.31620000  0.08290000  1.0 0.0906403057
C  C162  1  0.27020000  0.68380000  0.91710000  1.0 0.0906403057
C  C163  1  0.63570000  0.24430000  0.10630000  1.0 0.1197865721
C  C164  1  0.36430000  0.75570000  0.89370000  1.0 0.1197865721
C  C165  1  0.55700000  0.17100000  0.07210000  1.0 -0.070049049
C  C166  1  0.44300000  0.82900000  0.92790000  1.0 -0.070049049
C  C167  1  0.57040000  0.10760000  0.06220000  1.0 -0.1289349436
C  C168  1  0.42960000  0.89240000  0.93780000  1.0 -0.1289349436
C  C169  1  0.67430000  0.15770000  0.05960000  1.0 -0.3157797732
C  C170  1  0.32570000  0.84230000  0.94040000  1.0 -0.3157797732
C  C171  1  0.75430000  0.26170000  0.07110000  1.0 -0.0067933856
C  C172  1  0.24570000  0.73830000  0.92890000  1.0 -0.0067933856
C  C173  1  0.42230000  0.98570000  0.99360000  1.0 -0.180058907
C  C174  1  0.57770000  0.01430000  0.00640000  1.0 -0.180058907
C  C175  1  0.52820000  0.04380000  0.01550000  1.0 -0.0296203924
C  C176  1  0.47180000  0.95620000  0.98450000  1.0 -0.0296203924
C  C177  1  0.58950000  0.14650000  0.98880000  1.0 -0.2587040923
C  C178  1  0.41050000  0.85350000  0.01120000  1.0 -0.2587040923
C  C179  1  0.61930000  0.14470000  0.94530000  1.0 -0.2992971592
C  C180  1  0.38070000  0.85530000  0.05470000  1.0 -0.2992971592
C  C181  1  0.52940000  0.03660000  0.93590000  1.0 -0.0869072132
C  C182  1  0.47060000  0.96340000  0.06410000  1.0 -0.0869072132
C  C183  1  0.44320000  0.02280000  0.94430000  1.0 -0.2332240942
C  C184  1  0.55680000  0.97720000  0.05570000  1.0 -0.2332240942
C  C185  1  0.25670000  0.60530000  0.44270000  1.0 -0.0394017406
C  C186  1  0.74330000  0.39470000  0.55730000  1.0 -0.0394017406
C  C187  1  0.34360000  0.75840000  0.43360000  1.0 0.0392277753
C  C188  1  0.65640000  0.24160000  0.56640000  1.0 0.0392277753
C  C189  1  0.36910000  0.83890000  0.44950000  1.0 -0.0296203924
C  C190  1  0.63090000  0.16110000  0.55050000  1.0 -0.0296203924
C  C191  1  0.45690000  0.92910000  0.43840000  1.0 -0.2587040923
C  C192  1  0.54310000  0.07090000  0.56160000  1.0 -0.2587040923
C  C193  1  0.49950000  0.01250000  0.45530000  1.0 -0.070049049
C  C194  1  0.50050000  0.98750000  0.54470000  1.0 -0.070049049
C  C195  1  0.45560000  0.00840000  0.48720000  1.0 -0.0394017406
C  C196  1  0.54440000  0.99160000  0.51280000  1.0 -0.0394017406
C  C197  1  0.36630000  0.91970000  0.49940000  1.0 -0.2008498984
C  C198  1  0.63370000  0.08030000  0.50060000  1.0 -0.2008498984
C  C199  1  0.32100000  0.83700000  0.47870000  1.0 -0.180058907
C  C200  1  0.67900000  0.16300000  0.52130000  1.0 -0.180058907
C  C201  1  0.31620000  0.72980000  0.41710000  1.0 0.0906403057
C  C202  1  0.68380000  0.27020000  0.58290000  1.0 0.0906403057
C  C203  1  0.24430000  0.63570000  0.39370000  1.0 0.1197865721
C  C204  1  0.75570000  0.36430000  0.60630000  1.0 0.1197865721
C  C205  1  0.17100000  0.55700000  0.42790000  1.0 -0.070049049
C  C206  1  0.82900000  0.44300000  0.57210000  1.0 -0.070049049
C  C207  1  0.10760000  0.57040000  0.43780000  1.0 -0.1289349436
C  C208  1  0.89240000  0.42960000  0.56220000  1.0 -0.1289349436
C  C209  1  0.15770000  0.67430000  0.44040000  1.0 -0.3157797732
C  C210  1  0.84230000  0.32570000  0.55960000  1.0 -0.3157797732
C  C211  1  0.26170000  0.75430000  0.42890000  1.0 -0.0067933856
C  C212  1  0.73830000  0.24570000  0.57110000  1.0 -0.0067933856
C  C213  1  0.98570000  0.42230000  0.50640000  1.0 -0.180058907
C  C214  1  0.01430000  0.57770000  0.49360000  1.0 -0.180058907
C  C215  1  0.04380000  0.52820000  0.48450000  1.0 -0.0296203924
C  C216  1  0.95620000  0.47180000  0.51550000  1.0 -0.0296203924
C  C217  1  0.14650000  0.58950000  0.51120000  1.0 -0.2655971251
C  C218  1  0.85350000  0.41050000  0.48880000  1.0 -0.2655971251
C  C219  1  0.14470000  0.61930000  0.55470000  1.0 -0.2992971592
C  C220  1  0.85530000  0.38070000  0.44530000  1.0 -0.2992971592
C  C221  1  0.03660000  0.52940000  0.56410000  1.0 -0.0869072132
C  C222  1  0.96340000  0.47060000  0.43590000  1.0 -0.0869072132
C  C223  1  0.02280000  0.44320000  0.55570000  1.0 -0.2332240942
C  C224  1  0.97720000  0.55680000  0.44430000  1.0 -0.2332240942
I  I1  1  0.70267000  0.96463000  0.30432000  1.0 -0.0477189228
I  I2  1  0.03537000  0.29733000  0.80432000  1.0 -0.0394017406
I  I3  1  0.53020000  0.00160000  0.20354000  1.0 -0.1107845483
I  I4  1  0.99840000  0.46980000  0.70354000  1.0 -0.1107845483
I  I5  1  0.63017000  0.68603000  0.37387000  1.0 -0.0477189228
I  I6  1  0.31397000  0.36983000  0.87387000  1.0 -0.0477189228
I  I7  1  0.60915000  0.85605000  0.44680000  1.0 -0.0067933856
I  I8  1  0.14395000  0.39085000  0.94680000  1.0 -0.0067933856
I  I9  1  0.34620000  0.13400000  0.10292000  1.0 0.0109762795
I  I10  1  0.86600000  0.65380000  0.60292000  1.0 0.0109762795
I  I11  1  0.23425000  0.94815000  0.99145000  1.0 -0.0204744281
I  I12  1  0.05185000  0.76575000  0.49145000  1.0 -0.0204744281
I  I13  1  0.69487000  0.97187000  0.29460000  1.0 -0.0204744281
I  I14  1  0.02813000  0.30513000  0.79460000  1.0 -0.0204744281
I  I15  1  0.53490000  0.01410000  0.19330000  1.0 -0.1610228534
I  I16  1  0.98590000  0.46510000  0.69330000  1.0 -0.1699987911
I  I17  1  0.62159000  0.66801000  0.36712000  1.0 -0.0204744281
I  I18  1  0.33199000  0.37841000  0.86712000  1.0 -0.0296203924
I  I19  1  0.62883000  0.85521000  0.44018000  1.0 -0.0296203924
I  I20  1  0.14479000  0.37117000  0.94018000  1.0 -0.0296203924
I  I21  1  0.35159000  0.12561000  0.08986000  1.0 -0.0204744281
I  I22  1  0.87439000  0.64841000  0.58986000  1.0 -0.0204744281
I  I23  1  0.20645000  0.92135000  0.98066000  1.0 0.0109762795
I  I24  1  0.07865000  0.79355000  0.48066000  1.0 0.0109762795
I  I25  1  0.96463000  0.70267000  0.19568000  1.0 -0.0394017406
I  I26  1  0.29733000  0.03537000  0.69568000  1.0 -0.0477189228
I  I27  1  0.00160000  0.53020000  0.29646000  1.0 -0.1040506862
I  I28  1  0.46980000  0.99840000  0.79646000  1.0 -0.1107845483
I  I29  1  0.68603000  0.63017000  0.12613000  1.0 -0.0477189228
I  I30  1  0.36983000  0.31397000  0.62613000  1.0 -0.0477189228
I  I31  1  0.85605000  0.60915000  0.05320000  1.0 -0.0043359924
I  I32  1  0.39085000  0.14395000  0.55320000  1.0 -0.0067933856
I  I33  1  0.13400000  0.34620000  0.39708000  1.0 0.0039298268
I  I34  1  0.65380000  0.86600000  0.89708000  1.0 0.0109762795
I  I35  1  0.94815000  0.23425000  0.50855000  1.0 -0.0204744281
I  I36  1  0.76575000  0.05185000  0.00855000  1.0 -0.0204744281
I  I37  1  0.97187000  0.69487000  0.20540000  1.0 -0.0204744281
I  I38  1  0.30513000  0.02813000  0.70540000  1.0 -0.0204744281
I  I39  1  0.01410000  0.53490000  0.30670000  1.0 -0.1610228534
I  I40  1  0.46510000  0.98590000  0.80670000  1.0 -0.1610228534
I  I41  1  0.66801000  0.62159000  0.13288000  1.0 -0.0204744281
I  I42  1  0.37841000  0.33199000  0.63288000  1.0 -0.0296203924
I  I43  1  0.85521000  0.62883000  0.05982000  1.0 -0.0296203924
I  I44  1  0.37117000  0.14479000  0.55982000  1.0 -0.0296203924
I  I45  1  0.12561000  0.35159000  0.41014000  1.0 -0.0296203924
I  I46  1  0.64841000  0.87439000  0.91014000  1.0 -0.0204744281
I  I47  1  0.92135000  0.20645000  0.51934000  1.0 0.0109762795
I  I48  1  0.79355000  0.07865000  0.01934000  1.0 0.0109762795
N  N1  1  0.07536000  0.54624000  0.18826000  1.0 -0.4292040619
N  N2  1  0.45376000  0.92464000  0.68826000  1.0 -0.4292040619
N  N3  1  0.14124000  0.50456000  0.24854000  1.0 -0.4292040619
N  N4  1  0.49544000  0.85876000  0.74854000  1.0 -0.4292040619
N  N5  1  0.64769000  0.79851000  0.06262000  1.0 -0.4478010013
N  N6  1  0.20149000  0.35231000  0.56262000  1.0 -0.4442591868
N  N7  1  0.22916000  0.67104000  0.22620000  1.0 -0.4187409632
N  N8  1  0.32896000  0.77084000  0.72620000  1.0 -0.4187409632
N  N9  1  0.74655000  0.79645000  0.02870000  1.0 -0.4478010013
N  N10  1  0.20355000  0.25345000  0.52870000  1.0 -0.4478010013
N  N11  1  0.81373000  0.89347000  0.08982000  1.0 -0.4292040619
N  N12  1  0.10653000  0.18627000  0.58982000  1.0 -0.4292040619
N  N13  1  0.41277000  0.55103000  0.95127000  1.0 -0.2170142472
N  N14  1  0.44897000  0.58723000  0.45127000  1.0 -0.2170142472
N  N15  1  0.43403000  0.67597000  0.35776000  1.0 -0.2362911604
N  N16  1  0.32403000  0.56597000  0.85776000  1.0 -0.2362911604
N  N17  1  0.19607000  0.86433000  0.10656000  1.0 -0.2332240942
N  N18  1  0.13567000  0.80393000  0.60656000  1.0 -0.2332240942
N  N19  1  0.69881000  0.98339000  0.17940000  1.0 -0.1891008866
N  N20  1  0.01661000  0.30119000  0.67940000  1.0 -0.1891008866
N  N21  1  0.80782000  0.18098000  0.22076000  1.0 -0.180058907
N  N22  1  0.81902000  0.19218000  0.72076000  1.0 -0.180058907
N  N23  1  0.08697000  0.93443000  0.05817000  1.0 -0.2008498984
N  N24  1  0.06557000  0.91303000  0.55817000  1.0 -0.2008498984
N  N25  1  0.54624000  0.07536000  0.31174000  1.0 -0.4292040619
N  N26  1  0.92464000  0.45376000  0.81174000  1.0 -0.4292040619
N  N27  1  0.50456000  0.14124000  0.25146000  1.0 -0.4292040619
N  N28  1  0.85876000  0.49544000  0.75146000  1.0 -0.4292040619
N  N29  1  0.79851000  0.64769000  0.43738000  1.0 -0.4478010013
N  N30  1  0.35231000  0.20149000  0.93738000  1.0 -0.4478010013
N  N31  1  0.67104000  0.22916000  0.27380000  1.0 -0.4187409632
N  N32  1  0.77084000  0.32896000  0.77380000  1.0 -0.4187409632
N  N33  1  0.79645000  0.74655000  0.47130000  1.0 -0.4478010013
N  N34  1  0.25345000  0.20355000  0.97130000  1.0 -0.4478010013
N  N35  1  0.89347000  0.81373000  0.41018000  1.0 -0.4292040619
N  N36  1  0.18627000  0.10653000  0.91018000  1.0 -0.4292040619
N  N37  1  0.55103000  0.41277000  0.54873000  1.0 -0.2170142472
N  N38  1  0.58723000  0.44897000  0.04873000  1.0 -0.2170142472
N  N39  1  0.67597000  0.43403000  0.14224000  1.0 -0.2362911604
N  N40  1  0.56597000  0.32403000  0.64224000  1.0 -0.2362911604
N  N41  1  0.86433000  0.19607000  0.39344000  1.0 -0.2362911604
N  N42  1  0.80393000  0.13567000  0.89344000  1.0 -0.2362911604
N  N43  1  0.98339000  0.69881000  0.32060000  1.0 -0.1891008866
N  N44  1  0.30119000  0.01661000  0.82060000  1.0 -0.1891008866
N  N45  1  0.18098000  0.80782000  0.27924000  1.0 -0.180058907
N  N46  1  0.19218000  0.81902000  0.77924000  1.0 -0.180058907
N  N47  1  0.93443000  0.08697000  0.44183000  1.0 -0.2008498984
N  N48  1  0.91303000  0.06557000  0.94183000  1.0 -0.2008498984
O  O1  1  0.61920000  0.20280000  0.08380000  1.0 0.0109762795
O  O2  1  0.38080000  0.79720000  0.91620000  1.0 0.0109762795
O  O3  1  0.71570000  0.27830000  0.10130000  1.0 -0.070049049
O  O4  1  0.28430000  0.72170000  0.89870000  1.0 -0.070049049
O  O5  1  0.68250000  0.30150000  0.03250000  1.0 -0.2008498984
O  O6  1  0.31750000  0.69850000  0.96750000  1.0 -0.2008498984
O  O7  1  0.20280000  0.61920000  0.41620000  1.0 0.0109762795
O  O8  1  0.79720000  0.38080000  0.58380000  1.0 0.0109762795
O  O9  1  0.27830000  0.71570000  0.39870000  1.0 -0.070049049
O  O10  1  0.72170000  0.28430000  0.60130000  1.0 -0.070049049
O  O11  1  0.30150000  0.68250000  0.46750000  1.0 -0.2008498984
O  O12  1  0.69850000  0.31750000  0.53250000  1.0 -0.2008498984
