# DDEC6 charges by PACMAN v1.1 (https://github.com/mtap-research/PACMAN-charge/)
data_IWEWOY_ASR_pacman
_symmetry_space_group_name_H-M   'P 1'
_cell_length_a   31.89030000
_cell_length_b   31.89030000
_cell_length_c   17.19150000
_cell_angle_alpha   90.00000000
_cell_angle_beta   90.00000000
_cell_angle_gamma   120.00000000
_symmetry_Int_Tables_number   1
_chemical_formula_structural   In3H33C59O15
_chemical_formula_sum   'In18 H198 C354 O90'
_cell_volume   15141.24590727
_cell_formula_units_Z   6
loop_
 _symmetry_equiv_pos_site_id
 _symmetry_equiv_pos_as_xyz
  1  'x, y, z'
loop_
 _atom_site_type_symbol
 _atom_site_label
 _atom_site_symmetry_multiplicity
 _atom_site_fract_x
 _atom_site_fract_y
 _atom_site_fract_z
 _atom_site_occupancy
 _atom_site_charge
In  In1  1  0.56038000  0.49244000  0.14792000  1.0 1.5170882689
In  In2  1  0.93206000  0.43962000  0.35208000  1.0 1.5170882689
In  In3  1  0.50756000  0.06794000  0.14792000  1.0 1.5170882689
In  In4  1  0.56038000  0.49244000  0.35208000  1.0 1.5170882689
In  In5  1  0.93206000  0.43962000  0.14792000  1.0 1.5170882689
In  In6  1  0.50756000  0.06794000  0.35208000  1.0 1.5170882689
In  In7  1  0.49244000  0.56038000  0.64792000  1.0 1.5170882689
In  In8  1  0.06794000  0.50756000  0.85208000  1.0 1.5170882689
In  In9  1  0.43962000  0.93206000  0.64792000  1.0 1.5170882689
In  In10  1  0.49244000  0.56038000  0.85208000  1.0 1.5170882689
In  In11  1  0.06794000  0.50756000  0.64792000  1.0 1.5170882689
In  In12  1  0.43962000  0.93206000  0.85208000  1.0 1.5170882689
In  In13  1  0.63708000  0.46141000  0.25000000  1.0 1.5337040988
In  In14  1  0.82433000  0.36292000  0.25000000  1.0 1.5337040988
In  In15  1  0.53859000  0.17567000  0.25000000  1.0 1.5378866044
In  In16  1  0.46141000  0.63708000  0.75000000  1.0 1.5337040988
In  In17  1  0.17567000  0.53859000  0.75000000  1.0 1.5337040988
In  In18  1  0.36292000  0.82433000  0.75000000  1.0 1.5337040988
H  H1  1  0.27130000  0.42820000  0.36710000  1.0 0.1110703418
H  H2  1  0.15690000  0.72870000  0.13290000  1.0 0.1110703418
H  H3  1  0.57180000  0.84310000  0.36710000  1.0 0.1110703418
H  H4  1  0.27130000  0.42820000  0.13290000  1.0 0.1110703418
H  H5  1  0.15690000  0.72870000  0.36710000  1.0 0.1110703418
H  H6  1  0.57180000  0.84310000  0.13290000  1.0 0.1110703418
H  H7  1  0.42820000  0.27130000  0.86710000  1.0 0.1110703418
H  H8  1  0.84310000  0.57180000  0.63290000  1.0 0.1110703418
H  H9  1  0.72870000  0.15690000  0.86710000  1.0 0.1110703418
H  H10  1  0.42820000  0.27130000  0.63290000  1.0 0.1110703418
H  H11  1  0.84310000  0.57180000  0.86710000  1.0 0.1110703418
H  H12  1  0.72870000  0.15690000  0.63290000  1.0 0.1110703418
H  H13  1  0.48750000  0.08230000  0.63540000  1.0 0.1196280733
H  H14  1  0.59480000  0.51250000  0.86460000  1.0 0.1196280733
H  H15  1  0.91770000  0.40520000  0.63540000  1.0 0.1196280733
H  H16  1  0.48750000  0.08230000  0.86460000  1.0 0.1196280733
H  H17  1  0.59480000  0.51250000  0.63540000  1.0 0.1196280733
H  H18  1  0.91770000  0.40520000  0.86460000  1.0 0.1196280733
H  H19  1  0.08230000  0.48750000  0.13540000  1.0 0.1196280733
H  H20  1  0.40520000  0.91770000  0.36460000  1.0 0.1196280733
H  H21  1  0.51250000  0.59480000  0.13540000  1.0 0.1196280733
H  H22  1  0.08230000  0.48750000  0.36460000  1.0 0.1196280733
H  H23  1  0.40520000  0.91770000  0.13540000  1.0 0.1196280733
H  H24  1  0.51250000  0.59480000  0.36460000  1.0 0.1196280733
H  H25  1  0.54440000  0.36560000  0.85000000  1.0 0.1110703418
H  H26  1  0.82120000  0.45560000  0.65000000  1.0 0.1110703418
H  H27  1  0.63440000  0.17880000  0.85000000  1.0 0.1110703418
H  H28  1  0.54440000  0.36560000  0.65000000  1.0 0.1110703418
H  H29  1  0.82120000  0.45560000  0.85000000  1.0 0.1110703418
H  H30  1  0.63440000  0.17880000  0.65000000  1.0 0.1110703418
H  H31  1  0.36560000  0.54440000  0.35000000  1.0 0.1110703418
H  H32  1  0.17880000  0.63440000  0.15000000  1.0 0.1110703418
H  H33  1  0.45560000  0.82120000  0.35000000  1.0 0.1110703418
H  H34  1  0.36560000  0.54440000  0.15000000  1.0 0.1110703418
H  H35  1  0.17880000  0.63440000  0.35000000  1.0 0.1110703418
H  H36  1  0.45560000  0.82120000  0.15000000  1.0 0.1110703418
H  H37  1  0.58450000  0.35760000  0.75000000  1.0 0.1110703418
H  H38  1  0.77310000  0.41550000  0.75000000  1.0 0.1110703418
H  H39  1  0.64240000  0.22690000  0.75000000  1.0 0.1110703418
H  H40  1  0.35760000  0.58450000  0.25000000  1.0 0.1110703418
H  H41  1  0.22690000  0.64240000  0.25000000  1.0 0.1110703418
H  H42  1  0.41550000  0.77310000  0.25000000  1.0 0.1110703418
H  H43  1  0.56300000  0.56300000  0.00000000  1.0 0.0739659515
H  H44  1  0.00000000  0.43700000  0.50000000  1.0 0.0739659515
H  H45  1  0.43700000  0.00000000  0.00000000  1.0 0.0739659515
H  H46  1  0.56300000  0.56300000  0.50000000  1.0 0.0739659515
H  H47  1  0.00000000  0.43700000  0.00000000  1.0 0.0739659515
H  H48  1  0.43700000  0.00000000  0.50000000  1.0 0.0739659515
H  H49  1  0.11700000  0.39620000  0.36640000  1.0 0.1110703418
H  H50  1  0.27920000  0.88300000  0.13360000  1.0 0.1110703418
H  H51  1  0.60380000  0.72080000  0.36640000  1.0 0.1110703418
H  H52  1  0.11700000  0.39620000  0.13360000  1.0 0.1110703418
H  H53  1  0.27920000  0.88300000  0.36640000  1.0 0.1110703418
H  H54  1  0.60380000  0.72080000  0.13360000  1.0 0.1110703418
H  H55  1  0.39620000  0.11700000  0.86640000  1.0 0.1110703418
H  H56  1  0.72080000  0.60380000  0.63360000  1.0 0.1110703418
H  H57  1  0.88300000  0.27920000  0.86640000  1.0 0.1110703418
H  H58  1  0.39620000  0.11700000  0.63360000  1.0 0.1110703418
H  H59  1  0.72080000  0.60380000  0.86640000  1.0 0.1110703418
H  H60  1  0.88300000  0.27920000  0.63360000  1.0 0.1110703418
H  H61  1  0.15890000  0.42700000  0.25000000  1.0 0.1110703418
H  H62  1  0.26810000  0.84110000  0.25000000  1.0 0.1110703418
H  H63  1  0.57300000  0.73190000  0.25000000  1.0 0.1110703418
H  H64  1  0.42700000  0.15890000  0.75000000  1.0 0.1110703418
H  H65  1  0.73190000  0.57300000  0.75000000  1.0 0.1110703418
H  H66  1  0.84110000  0.26810000  0.75000000  1.0 0.1110703418
H  H67  1  0.25290000  0.47070000  0.44730000  1.0 0.1110703418
H  H68  1  0.21780000  0.74710000  0.05270000  1.0 0.1110703418
H  H69  1  0.52930000  0.78220000  0.44730000  1.0 0.1110703418
H  H70  1  0.25290000  0.47070000  0.05270000  1.0 0.1110703418
H  H71  1  0.21780000  0.74710000  0.44730000  1.0 0.1110703418
H  H72  1  0.52930000  0.78220000  0.05270000  1.0 0.1110703418
H  H73  1  0.47070000  0.25290000  0.94730000  1.0 0.1110703418
H  H74  1  0.78220000  0.52930000  0.55270000  1.0 0.1110703418
H  H75  1  0.74710000  0.21780000  0.94730000  1.0 0.1110703418
H  H76  1  0.47070000  0.25290000  0.55270000  1.0 0.1110703418
H  H77  1  0.78220000  0.52930000  0.94730000  1.0 0.1110703418
H  H78  1  0.74710000  0.21780000  0.55270000  1.0 0.1110703418
H  H79  1  0.08860000  0.41410000  0.47980000  1.0 0.1196280733
H  H80  1  0.32550000  0.91140000  0.02020000  1.0 0.1196280733
H  H81  1  0.58590000  0.67450000  0.47980000  1.0 0.1196280733
H  H82  1  0.08860000  0.41410000  0.02020000  1.0 0.1196280733
H  H83  1  0.32550000  0.91140000  0.47980000  1.0 0.1196280733
H  H84  1  0.58590000  0.67450000  0.02020000  1.0 0.1196280733
H  H85  1  0.41410000  0.08860000  0.97980000  1.0 0.1196280733
H  H86  1  0.67450000  0.58590000  0.52020000  1.0 0.1196280733
H  H87  1  0.91140000  0.32550000  0.97980000  1.0 0.1196280733
H  H88  1  0.41410000  0.08860000  0.52020000  1.0 0.1196280733
H  H89  1  0.67450000  0.58590000  0.97980000  1.0 0.1196280733
H  H90  1  0.91140000  0.32550000  0.52020000  1.0 0.1196280733
H  H91  1  0.60300000  0.29900000  0.96280000  1.0 0.1196280733
H  H92  1  0.69600000  0.39700000  0.53720000  1.0 0.1196280733
H  H93  1  0.70100000  0.30400000  0.96280000  1.0 0.1196280733
H  H94  1  0.60300000  0.29900000  0.53720000  1.0 0.1196280733
H  H95  1  0.69600000  0.39700000  0.96280000  1.0 0.1196280733
H  H96  1  0.70100000  0.30400000  0.53720000  1.0 0.1196280733
H  H97  1  0.29900000  0.60300000  0.46280000  1.0 0.1196280733
H  H98  1  0.30400000  0.70100000  0.03720000  1.0 0.1196280733
H  H99  1  0.39700000  0.69600000  0.46280000  1.0 0.1196280733
H  H100  1  0.29900000  0.60300000  0.03720000  1.0 0.1196280733
H  H101  1  0.30400000  0.70100000  0.46280000  1.0 0.1196280733
H  H102  1  0.39700000  0.69600000  0.03720000  1.0 0.1196280733
H  H103  1  0.22550000  0.48880000  0.56120000  1.0 0.1196280733
H  H104  1  0.26330000  0.77450000  0.93880000  1.0 0.1196280733
H  H105  1  0.51120000  0.73670000  0.56120000  1.0 0.1196280733
H  H106  1  0.22550000  0.48880000  0.93880000  1.0 0.1196280733
H  H107  1  0.26330000  0.77450000  0.56120000  1.0 0.1196280733
H  H108  1  0.51120000  0.73670000  0.93880000  1.0 0.1196280733
H  H109  1  0.48880000  0.22550000  0.06120000  1.0 0.1196280733
H  H110  1  0.73670000  0.51120000  0.43880000  1.0 0.1196280733
H  H111  1  0.77450000  0.26330000  0.06120000  1.0 0.1196280733
H  H112  1  0.48880000  0.22550000  0.43880000  1.0 0.1196280733
H  H113  1  0.73670000  0.51120000  0.06120000  1.0 0.1196280733
H  H114  1  0.77450000  0.26330000  0.43880000  1.0 0.1196280733
H  H115  1  0.55260000  0.23750000  0.86970000  1.0 0.1110703418
H  H116  1  0.68490000  0.44740000  0.63030000  1.0 0.1196280733
H  H117  1  0.76250000  0.31510000  0.86970000  1.0 0.1196280733
H  H118  1  0.55260000  0.23750000  0.63030000  1.0 0.1196280733
H  H119  1  0.68490000  0.44740000  0.86970000  1.0 0.1196280733
H  H120  1  0.76250000  0.31510000  0.63030000  1.0 0.1196280733
H  H121  1  0.23750000  0.55260000  0.36970000  1.0 0.1196280733
H  H122  1  0.31510000  0.76250000  0.13030000  1.0 0.1196280733
H  H123  1  0.44740000  0.68490000  0.36970000  1.0 0.1196280733
H  H124  1  0.23750000  0.55260000  0.13030000  1.0 0.1196280733
H  H125  1  0.31510000  0.76250000  0.36970000  1.0 0.1196280733
H  H126  1  0.44740000  0.68490000  0.13030000  1.0 0.1196280733
H  H127  1  0.54810000  0.40800000  0.96000000  1.0 0.1272333088
H  H128  1  0.85990000  0.45190000  0.54000000  1.0 0.1272333088
H  H129  1  0.59200000  0.14010000  0.96000000  1.0 0.1272333088
H  H130  1  0.54810000  0.40800000  0.54000000  1.0 0.1272333088
H  H131  1  0.85990000  0.45190000  0.96000000  1.0 0.1272333088
H  H132  1  0.59200000  0.14010000  0.54000000  1.0 0.1272333088
H  H133  1  0.40800000  0.54810000  0.46000000  1.0 0.1272333088
H  H134  1  0.14010000  0.59200000  0.04000000  1.0 0.1272333088
H  H135  1  0.45190000  0.85990000  0.46000000  1.0 0.1272333088
H  H136  1  0.40800000  0.54810000  0.04000000  1.0 0.1272333088
H  H137  1  0.14010000  0.59200000  0.46000000  1.0 0.1272333088
H  H138  1  0.45190000  0.85990000  0.04000000  1.0 0.1272333088
H  H139  1  0.52150000  0.16580000  0.63080000  1.0 0.1110703418
H  H140  1  0.64430000  0.47850000  0.86920000  1.0 0.1110703418
H  H141  1  0.83420000  0.35570000  0.63080000  1.0 0.1110703418
H  H142  1  0.52150000  0.16580000  0.86920000  1.0 0.1110703418
H  H143  1  0.64430000  0.47850000  0.63080000  1.0 0.1110703418
H  H144  1  0.83420000  0.35570000  0.86920000  1.0 0.1110703418
H  H145  1  0.16580000  0.52150000  0.13080000  1.0 0.1110703418
H  H146  1  0.35570000  0.83420000  0.36920000  1.0 0.1110703418
H  H147  1  0.47850000  0.64430000  0.13080000  1.0 0.1110703418
H  H148  1  0.16580000  0.52150000  0.36920000  1.0 0.1110703418
H  H149  1  0.35570000  0.83420000  0.13080000  1.0 0.1110703418
H  H150  1  0.47850000  0.64430000  0.36920000  1.0 0.1110703418
H  H151  1  0.60720000  0.34070000  0.07520000  1.0 0.1272333088
H  H152  1  0.73350000  0.39280000  0.42480000  1.0 0.1272333088
H  H153  1  0.65930000  0.26650000  0.07520000  1.0 0.1272333088
H  H154  1  0.60720000  0.34070000  0.42480000  1.0 0.1272333088
H  H155  1  0.73350000  0.39280000  0.07520000  1.0 0.1272333088
H  H156  1  0.65930000  0.26650000  0.42480000  1.0 0.1272333088
H  H157  1  0.34070000  0.60720000  0.57520000  1.0 0.1272333088
H  H158  1  0.26650000  0.65930000  0.92480000  1.0 0.1272333088
H  H159  1  0.39280000  0.73350000  0.57520000  1.0 0.1272333088
H  H160  1  0.34070000  0.60720000  0.92480000  1.0 0.1272333088
H  H161  1  0.26650000  0.65930000  0.57520000  1.0 0.1272333088
H  H162  1  0.39280000  0.73350000  0.92480000  1.0 0.1272333088
H  H163  1  0.34350000  0.45890000  0.35750000  1.0 0.1110703418
H  H164  1  0.11540000  0.65650000  0.14250000  1.0 0.1110703418
H  H165  1  0.54110000  0.88460000  0.35750000  1.0 0.1110703418
H  H166  1  0.34350000  0.45890000  0.14250000  1.0 0.1110703418
H  H167  1  0.11540000  0.65650000  0.35750000  1.0 0.1110703418
H  H168  1  0.54110000  0.88460000  0.14250000  1.0 0.1110703418
H  H169  1  0.45890000  0.34350000  0.85750000  1.0 0.1110703418
H  H170  1  0.88460000  0.54110000  0.64250000  1.0 0.1110703418
H  H171  1  0.65650000  0.11540000  0.85750000  1.0 0.1110703418
H  H172  1  0.45890000  0.34350000  0.64250000  1.0 0.1110703418
H  H173  1  0.88460000  0.54110000  0.85750000  1.0 0.1110703418
H  H174  1  0.65650000  0.11540000  0.64250000  1.0 0.1110703418
H  H175  1  0.42210000  0.46820000  0.36580000  1.0 0.1196280733
H  H176  1  0.04610000  0.57790000  0.13420000  1.0 0.1196280733
H  H177  1  0.53180000  0.95390000  0.36580000  1.0 0.1196280733
H  H178  1  0.42210000  0.46820000  0.13420000  1.0 0.1196280733
H  H179  1  0.04610000  0.57790000  0.36580000  1.0 0.1196280733
H  H180  1  0.53180000  0.95390000  0.13420000  1.0 0.1196280733
H  H181  1  0.46820000  0.42210000  0.86580000  1.0 0.1196280733
H  H182  1  0.95390000  0.53180000  0.63420000  1.0 0.1196280733
H  H183  1  0.57790000  0.04610000  0.86580000  1.0 0.1196280733
H  H184  1  0.46820000  0.42210000  0.63420000  1.0 0.1196280733
H  H185  1  0.95390000  0.53180000  0.86580000  1.0 0.1196280733
H  H186  1  0.57790000  0.04610000  0.63420000  1.0 0.1196280733
H  H187  1  0.32030000  0.40510000  0.14550000  1.0 0.1110703418
H  H188  1  0.08480000  0.67970000  0.35450000  1.0 0.1110703418
H  H189  1  0.59490000  0.91520000  0.14550000  1.0 0.1110703418
H  H190  1  0.32030000  0.40510000  0.35450000  1.0 0.1110703418
H  H191  1  0.08480000  0.67970000  0.14550000  1.0 0.1110703418
H  H192  1  0.59490000  0.91520000  0.35450000  1.0 0.1110703418
H  H193  1  0.40510000  0.32030000  0.64550000  1.0 0.1110703418
H  H194  1  0.91520000  0.59490000  0.85450000  1.0 0.1110703418
H  H195  1  0.67970000  0.08480000  0.64550000  1.0 0.1110703418
H  H196  1  0.40510000  0.32030000  0.85450000  1.0 0.1110703418
H  H197  1  0.91520000  0.59490000  0.64550000  1.0 0.1110703418
H  H198  1  0.67970000  0.08480000  0.85450000  1.0 0.1110703418
C  C1  1  0.25550000  0.42760000  0.32060000  1.0 -0.2314607057
C  C2  1  0.17210000  0.74450000  0.17940000  1.0 -0.2314607057
C  C3  1  0.57240000  0.82790000  0.32060000  1.0 -0.2314607057
C  C4  1  0.25550000  0.42760000  0.17940000  1.0 -0.2314607057
C  C5  1  0.17210000  0.74450000  0.32060000  1.0 -0.2314607057
C  C6  1  0.57240000  0.82790000  0.17940000  1.0 -0.2314607057
C  C7  1  0.42760000  0.25550000  0.82060000  1.0 -0.2314607057
C  C8  1  0.82790000  0.57240000  0.67940000  1.0 -0.2314607057
C  C9  1  0.74450000  0.17210000  0.82060000  1.0 -0.2314607057
C  C10  1  0.42760000  0.25550000  0.67940000  1.0 -0.2314607057
C  C11  1  0.82790000  0.57240000  0.82060000  1.0 -0.2314607057
C  C12  1  0.74450000  0.17210000  0.67940000  1.0 -0.2314607057
C  C13  1  0.57140000  0.30270000  0.82110000  1.0 0.0862162033
C  C14  1  0.73130000  0.42860000  0.67890000  1.0 0.0862162033
C  C15  1  0.69730000  0.26870000  0.82110000  1.0 0.0862162033
C  C16  1  0.57140000  0.30270000  0.67890000  1.0 0.0862162033
C  C17  1  0.73130000  0.42860000  0.82110000  1.0 0.0862162033
C  C18  1  0.69730000  0.26870000  0.67890000  1.0 0.0862162033
C  C19  1  0.30270000  0.57140000  0.32110000  1.0 0.0862162033
C  C20  1  0.26870000  0.69730000  0.17890000  1.0 0.0862162033
C  C21  1  0.42860000  0.73130000  0.32110000  1.0 0.0862162033
C  C22  1  0.30270000  0.57140000  0.17890000  1.0 0.0862162033
C  C23  1  0.26870000  0.69730000  0.32110000  1.0 0.0862162033
C  C24  1  0.42860000  0.73130000  0.17890000  1.0 0.0862162033
C  C25  1  0.49430000  0.09990000  0.68210000  1.0 -0.1002464149
C  C26  1  0.60560000  0.50570000  0.81790000  1.0 -0.1002464149
C  C27  1  0.90010000  0.39440000  0.68210000  1.0 -0.1002464149
C  C28  1  0.49430000  0.09990000  0.81790000  1.0 -0.1002464149
C  C29  1  0.60560000  0.50570000  0.68210000  1.0 -0.1002464149
C  C30  1  0.90010000  0.39440000  0.81790000  1.0 -0.1002464149
C  C31  1  0.09990000  0.49430000  0.18210000  1.0 -0.1002464149
C  C32  1  0.39440000  0.90010000  0.31790000  1.0 -0.1002464149
C  C33  1  0.50570000  0.60560000  0.18210000  1.0 -0.1002464149
C  C34  1  0.09990000  0.49430000  0.31790000  1.0 -0.1002464149
C  C35  1  0.39440000  0.90010000  0.18210000  1.0 -0.1002464149
C  C36  1  0.50570000  0.60560000  0.31790000  1.0 -0.1002464149
C  C37  1  0.21070000  0.42710000  0.32130000  1.0 0.09681382
C  C38  1  0.21640000  0.78930000  0.17870000  1.0 0.09681382
C  C39  1  0.57290000  0.78360000  0.32130000  1.0 0.09681382
C  C40  1  0.21070000  0.42710000  0.17870000  1.0 0.09681382
C  C41  1  0.21640000  0.78930000  0.32130000  1.0 0.09681382
C  C42  1  0.57290000  0.78360000  0.17870000  1.0 0.09681382
C  C43  1  0.42710000  0.21070000  0.82130000  1.0 0.09681382
C  C44  1  0.78360000  0.57290000  0.67870000  1.0 0.09681382
C  C45  1  0.78930000  0.21640000  0.82130000  1.0 0.09681382
C  C46  1  0.42710000  0.21070000  0.67870000  1.0 0.09681382
C  C47  1  0.78360000  0.57290000  0.82130000  1.0 0.09681382
C  C48  1  0.78930000  0.21640000  0.67870000  1.0 0.09681382
C  C49  1  0.27450000  0.42720000  0.25000000  1.0 0.0739659515
C  C50  1  0.15270000  0.72550000  0.25000000  1.0 0.0739659515
C  C51  1  0.57280000  0.84730000  0.25000000  1.0 0.0739659515
C  C52  1  0.42720000  0.27450000  0.75000000  1.0 0.0739659515
C  C53  1  0.84730000  0.57280000  0.75000000  1.0 0.0739659515
C  C54  1  0.72550000  0.15270000  0.75000000  1.0 0.0739659515
C  C55  1  0.55760000  0.36060000  0.89560000  1.0 -0.1705132725
C  C56  1  0.80300000  0.44240000  0.60440000  1.0 -0.1705132725
C  C57  1  0.63940000  0.19700000  0.89560000  1.0 -0.1705132725
C  C58  1  0.55760000  0.36060000  0.60440000  1.0 -0.1705132725
C  C59  1  0.80300000  0.44240000  0.89560000  1.0 -0.1705132725
C  C60  1  0.63940000  0.19700000  0.60440000  1.0 -0.1705132725
C  C61  1  0.36060000  0.55760000  0.39560000  1.0 -0.1705132725
C  C62  1  0.19700000  0.63940000  0.10440000  1.0 -0.1705132725
C  C63  1  0.44240000  0.80300000  0.39560000  1.0 -0.1705132725
C  C64  1  0.36060000  0.55760000  0.10440000  1.0 -0.1705132725
C  C65  1  0.19700000  0.63940000  0.39560000  1.0 -0.1705132725
C  C66  1  0.44240000  0.80300000  0.10440000  1.0 -0.1705132725
C  C67  1  0.32530000  0.43040000  0.25000000  1.0 -0.019147205
C  C68  1  0.10510000  0.67470000  0.25000000  1.0 -0.019147205
C  C69  1  0.56960000  0.89490000  0.25000000  1.0 -0.019147205
C  C70  1  0.43040000  0.32530000  0.75000000  1.0 -0.019147205
C  C71  1  0.89490000  0.56960000  0.75000000  1.0 -0.019147205
C  C72  1  0.67470000  0.10510000  0.75000000  1.0 -0.019147205
C  C73  1  0.57670000  0.32500000  0.75000000  1.0 -0.1889962308
C  C74  1  0.74830000  0.42330000  0.75000000  1.0 -0.1889962308
C  C75  1  0.67500000  0.25170000  0.75000000  1.0 -0.1889962308
C  C76  1  0.32500000  0.57670000  0.25000000  1.0 -0.1889962308
C  C77  1  0.25170000  0.67500000  0.25000000  1.0 -0.1889962308
C  C78  1  0.42330000  0.74830000  0.25000000  1.0 -0.1889962308
C  C79  1  0.53360000  0.53360000  0.00000000  1.0 0.456833407
C  C80  1  0.00000000  0.46640000  0.50000000  1.0 0.456833407
C  C81  1  0.46640000  0.00000000  0.00000000  1.0 0.456833407
C  C82  1  0.53360000  0.53360000  0.50000000  1.0 0.456833407
C  C83  1  0.00000000  0.46640000  0.00000000  1.0 0.456833407
C  C84  1  0.46640000  0.00000000  0.50000000  1.0 0.456833407
C  C85  1  0.19120000  0.43350000  0.39540000  1.0 0.0761668913
C  C86  1  0.24230000  0.80880000  0.10460000  1.0 0.0761668913
C  C87  1  0.56650000  0.75770000  0.39540000  1.0 0.0761668913
C  C88  1  0.19120000  0.43350000  0.10460000  1.0 0.0761668913
C  C89  1  0.24230000  0.80880000  0.39540000  1.0 0.0761668913
C  C90  1  0.56650000  0.75770000  0.10460000  1.0 0.0761668913
C  C91  1  0.43350000  0.19120000  0.89540000  1.0 0.0761668913
C  C92  1  0.75770000  0.56650000  0.60460000  1.0 0.0761668913
C  C93  1  0.80880000  0.24230000  0.89540000  1.0 0.0739659515
C  C94  1  0.43350000  0.19120000  0.60460000  1.0 0.0761668913
C  C95  1  0.75770000  0.56650000  0.89540000  1.0 0.0739659515
C  C96  1  0.80880000  0.24230000  0.60460000  1.0 0.0739659515
C  C97  1  0.13890000  0.41510000  0.40560000  1.0 -0.1583068738
C  C98  1  0.27620000  0.86110000  0.09440000  1.0 -0.1583068738
C  C99  1  0.58490000  0.72380000  0.40560000  1.0 -0.1583068738
C  C100  1  0.13890000  0.41510000  0.09440000  1.0 -0.1583068738
C  C101  1  0.27620000  0.86110000  0.40560000  1.0 -0.1583068738
C  C102  1  0.58490000  0.72380000  0.09440000  1.0 -0.1583068738
C  C103  1  0.41510000  0.13890000  0.90560000  1.0 -0.1583068738
C  C104  1  0.72380000  0.58490000  0.59440000  1.0 -0.1583068738
C  C105  1  0.86110000  0.27620000  0.90560000  1.0 -0.1583068738
C  C106  1  0.41510000  0.13890000  0.59440000  1.0 -0.1583068738
C  C107  1  0.72380000  0.58490000  0.90560000  1.0 -0.1583068738
C  C108  1  0.86110000  0.27620000  0.59440000  1.0 -0.1583068738
C  C109  1  0.18840000  0.42710000  0.25000000  1.0 -0.2163185927
C  C110  1  0.23870000  0.81160000  0.25000000  1.0 -0.2163185927
C  C111  1  0.57290000  0.76130000  0.25000000  1.0 -0.2163185927
C  C112  1  0.42710000  0.18840000  0.75000000  1.0 -0.2163185927
C  C113  1  0.76130000  0.57290000  0.75000000  1.0 -0.2163185927
C  C114  1  0.81160000  0.23870000  0.75000000  1.0 -0.2163185927
C  C115  1  0.21950000  0.45900000  0.45270000  1.0 -0.1319926756
C  C116  1  0.23950000  0.78050000  0.04730000  1.0 -0.1319926756
C  C117  1  0.54100000  0.76050000  0.45270000  1.0 -0.1319926756
C  C118  1  0.21950000  0.45900000  0.04730000  1.0 -0.1319926756
C  C119  1  0.23950000  0.78050000  0.45270000  1.0 -0.1319926756
C  C120  1  0.54100000  0.76050000  0.04730000  1.0 -0.1319926756
C  C121  1  0.45900000  0.21950000  0.95270000  1.0 -0.1319926756
C  C122  1  0.76050000  0.54100000  0.54730000  1.0 -0.1319926756
C  C123  1  0.78050000  0.23950000  0.95270000  1.0 -0.1319926756
C  C124  1  0.45900000  0.21950000  0.54730000  1.0 -0.1319926756
C  C125  1  0.76050000  0.54100000  0.95270000  1.0 -0.1319926756
C  C126  1  0.78050000  0.23950000  0.54730000  1.0 -0.1319926756
C  C127  1  0.12190000  0.42570000  0.47380000  1.0 -0.1002464149
C  C128  1  0.30380000  0.87810000  0.02620000  1.0 -0.1002464149
C  C129  1  0.57430000  0.69620000  0.47380000  1.0 -0.1002464149
C  C130  1  0.12190000  0.42570000  0.02620000  1.0 -0.1002464149
C  C131  1  0.30380000  0.87810000  0.47380000  1.0 -0.1002464149
C  C132  1  0.57430000  0.69620000  0.02620000  1.0 -0.1002464149
C  C133  1  0.42570000  0.12190000  0.97380000  1.0 -0.1002464149
C  C134  1  0.69620000  0.57430000  0.52620000  1.0 -0.1002464149
C  C135  1  0.87810000  0.30380000  0.97380000  1.0 -0.1002464149
C  C136  1  0.42570000  0.12190000  0.52620000  1.0 -0.1002464149
C  C137  1  0.69620000  0.57430000  0.97380000  1.0 -0.1002464149
C  C138  1  0.87810000  0.30380000  0.52620000  1.0 -0.1002464149
C  C139  1  0.57930000  0.40710000  0.10090000  1.0 0.6131324318
C  C140  1  0.82780000  0.42070000  0.39910000  1.0 0.6131324318
C  C141  1  0.59290000  0.17220000  0.10090000  1.0 0.6131324318
C  C142  1  0.57930000  0.40710000  0.39910000  1.0 0.6131324318
C  C143  1  0.82780000  0.42070000  0.10090000  1.0 0.6131324318
C  C144  1  0.59290000  0.17220000  0.39910000  1.0 0.6131324318
C  C145  1  0.40710000  0.57930000  0.60090000  1.0 0.6131324318
C  C146  1  0.17220000  0.59290000  0.89910000  1.0 0.6131324318
C  C147  1  0.42070000  0.82780000  0.60090000  1.0 0.6131324318
C  C148  1  0.40710000  0.57930000  0.89910000  1.0 0.6131324318
C  C149  1  0.17220000  0.59290000  0.60090000  1.0 0.6131324318
C  C150  1  0.42070000  0.82780000  0.89910000  1.0 0.6131324318
C  C151  1  0.13620000  0.46910000  0.59740000  1.0 0.6131324318
C  C152  1  0.33290000  0.86380000  0.90260000  1.0 0.6131324318
C  C153  1  0.53090000  0.66710000  0.59740000  1.0 0.6131324318
C  C154  1  0.13620000  0.46910000  0.90260000  1.0 0.6131324318
C  C155  1  0.33290000  0.86380000  0.59740000  1.0 0.6131324318
C  C156  1  0.53090000  0.66710000  0.90260000  1.0 0.6131324318
C  C157  1  0.46910000  0.13620000  0.09740000  1.0 0.6131324318
C  C158  1  0.66710000  0.53090000  0.40260000  1.0 0.6131324318
C  C159  1  0.86380000  0.33290000  0.09740000  1.0 0.6131324318
C  C160  1  0.46910000  0.13620000  0.40260000  1.0 0.6131324318
C  C161  1  0.66710000  0.53090000  0.09740000  1.0 0.6131324318
C  C162  1  0.86380000  0.33290000  0.40260000  1.0 0.6131324318
C  C163  1  0.55140000  0.23020000  0.75000000  1.0 0.0862162033
C  C164  1  0.67880000  0.44860000  0.75000000  1.0 0.0862162033
C  C165  1  0.76980000  0.32120000  0.75000000  1.0 0.0862162033
C  C166  1  0.23020000  0.55140000  0.25000000  1.0 0.0862162033
C  C167  1  0.32120000  0.76980000  0.25000000  1.0 0.0862162033
C  C168  1  0.44860000  0.67880000  0.25000000  1.0 0.0862162033
C  C169  1  0.57630000  0.37800000  0.02840000  1.0 -0.019147205
C  C170  1  0.80170000  0.42370000  0.47160000  1.0 -0.019147205
C  C171  1  0.62200000  0.19830000  0.02840000  1.0 -0.019147205
C  C172  1  0.57630000  0.37800000  0.47160000  1.0 -0.019147205
C  C173  1  0.80170000  0.42370000  0.02840000  1.0 -0.019147205
C  C174  1  0.62200000  0.19830000  0.47160000  1.0 -0.019147205
C  C175  1  0.37800000  0.57630000  0.52840000  1.0 -0.019147205
C  C176  1  0.19830000  0.62200000  0.97160000  1.0 -0.019147205
C  C177  1  0.42370000  0.80170000  0.52840000  1.0 -0.019147205
C  C178  1  0.37800000  0.57630000  0.97160000  1.0 -0.019147205
C  C179  1  0.19830000  0.62200000  0.52840000  1.0 -0.019147205
C  C180  1  0.42370000  0.80170000  0.97160000  1.0 -0.019147205
C  C181  1  0.46920000  0.44830000  0.25000000  1.0 0.5438829509
C  C182  1  0.97910000  0.53080000  0.25000000  1.0 0.5438829509
C  C183  1  0.55170000  0.02090000  0.25000000  1.0 0.5438829509
C  C184  1  0.44830000  0.46920000  0.75000000  1.0 0.5465120522
C  C185  1  0.02090000  0.55170000  0.75000000  1.0 0.5465120522
C  C186  1  0.53080000  0.97910000  0.75000000  1.0 0.5465120522
C  C187  1  0.59210000  0.32140000  0.96190000  1.0 -0.1583068738
C  C188  1  0.72930000  0.40790000  0.53810000  1.0 -0.1583068738
C  C189  1  0.67860000  0.27070000  0.96190000  1.0 -0.1583068738
C  C190  1  0.59210000  0.32140000  0.53810000  1.0 -0.1583068738
C  C191  1  0.72930000  0.40790000  0.96190000  1.0 -0.1583068738
C  C192  1  0.67860000  0.27070000  0.53810000  1.0 -0.1583068738
C  C193  1  0.32140000  0.59210000  0.46190000  1.0 -0.1583068738
C  C194  1  0.27070000  0.67860000  0.03810000  1.0 -0.1583068738
C  C195  1  0.40790000  0.72930000  0.46190000  1.0 -0.1583068738
C  C196  1  0.32140000  0.59210000  0.03810000  1.0 -0.1583068738
C  C197  1  0.27070000  0.67860000  0.46190000  1.0 -0.1583068738
C  C198  1  0.40790000  0.72930000  0.03810000  1.0 -0.1583068738
C  C199  1  0.15250000  0.45190000  0.53020000  1.0 -0.0454587753
C  C200  1  0.29940000  0.84750000  0.96980000  1.0 -0.0454587753
C  C201  1  0.54810000  0.70060000  0.53020000  1.0 -0.0454587753
C  C202  1  0.15250000  0.45190000  0.96980000  1.0 -0.0454587753
C  C203  1  0.29940000  0.84750000  0.53020000  1.0 -0.0454587753
C  C204  1  0.54810000  0.70060000  0.96980000  1.0 -0.0454587753
C  C205  1  0.45190000  0.15250000  0.03020000  1.0 -0.0415969494
C  C206  1  0.70060000  0.54810000  0.46980000  1.0 -0.0415969494
C  C207  1  0.84750000  0.29940000  0.03020000  1.0 -0.0415969494
C  C208  1  0.45190000  0.15250000  0.46980000  1.0 -0.0454587753
C  C209  1  0.70060000  0.54810000  0.03020000  1.0 -0.0415969494
C  C210  1  0.84750000  0.29940000  0.46980000  1.0 -0.0454587753
C  C211  1  0.20360000  0.47010000  0.52190000  1.0 -0.1053862127
C  C212  1  0.26650000  0.79640000  0.97810000  1.0 -0.1053862127
C  C213  1  0.52990000  0.73350000  0.52190000  1.0 -0.1053862127
C  C214  1  0.20360000  0.47010000  0.97810000  1.0 -0.1053862127
C  C215  1  0.26650000  0.79640000  0.52190000  1.0 -0.1053862127
C  C216  1  0.52990000  0.73350000  0.97810000  1.0 -0.1053862127
C  C217  1  0.47010000  0.20360000  0.02190000  1.0 -0.1002464149
C  C218  1  0.73350000  0.52990000  0.47810000  1.0 -0.1053862127
C  C219  1  0.79640000  0.26650000  0.02190000  1.0 -0.1002464149
C  C220  1  0.47010000  0.20360000  0.47810000  1.0 -0.1002464149
C  C221  1  0.73350000  0.52990000  0.02190000  1.0 -0.1053862127
C  C222  1  0.79640000  0.26650000  0.47810000  1.0 -0.1053862127
C  C223  1  0.53080000  0.17540000  0.75000000  1.0 0.0862162033
C  C224  1  0.64460000  0.46920000  0.75000000  1.0 0.0862162033
C  C225  1  0.82460000  0.35540000  0.75000000  1.0 0.0761668913
C  C226  1  0.17540000  0.53080000  0.25000000  1.0 0.0862162033
C  C227  1  0.35540000  0.82460000  0.25000000  1.0 0.0862162033
C  C228  1  0.46920000  0.64460000  0.25000000  1.0 0.0862162033
C  C229  1  0.55770000  0.25410000  0.82240000  1.0 -0.195104033
C  C230  1  0.69640000  0.44230000  0.67760000  1.0 -0.195104033
C  C231  1  0.74590000  0.30360000  0.82240000  1.0 -0.195104033
C  C232  1  0.55770000  0.25410000  0.67760000  1.0 -0.195104033
C  C233  1  0.69640000  0.44230000  0.82240000  1.0 -0.195104033
C  C234  1  0.74590000  0.30360000  0.67760000  1.0 -0.195104033
C  C235  1  0.25410000  0.55770000  0.32240000  1.0 -0.195104033
C  C236  1  0.30360000  0.74590000  0.17760000  1.0 -0.195104033
C  C237  1  0.44230000  0.69640000  0.32240000  1.0 -0.195104033
C  C238  1  0.25410000  0.55770000  0.17760000  1.0 -0.195104033
C  C239  1  0.30360000  0.74590000  0.32240000  1.0 -0.195104033
C  C240  1  0.44230000  0.69640000  0.17760000  1.0 -0.195104033
C  C241  1  0.57460000  0.32900000  0.89330000  1.0 0.0761668913
C  C242  1  0.75440000  0.42540000  0.60670000  1.0 0.0761668913
C  C243  1  0.67100000  0.24560000  0.89330000  1.0 0.0761668913
C  C244  1  0.57460000  0.32900000  0.60670000  1.0 0.0761668913
C  C245  1  0.75440000  0.42540000  0.89330000  1.0 0.0761668913
C  C246  1  0.67100000  0.24560000  0.60670000  1.0 0.0761668913
C  C247  1  0.32900000  0.57460000  0.39330000  1.0 0.0761668913
C  C248  1  0.24560000  0.67100000  0.10670000  1.0 0.0761668913
C  C249  1  0.42540000  0.75440000  0.39330000  1.0 0.0761668913
C  C250  1  0.32900000  0.57460000  0.10670000  1.0 0.0761668913
C  C251  1  0.24560000  0.67100000  0.39330000  1.0 0.0761668913
C  C252  1  0.42540000  0.75440000  0.10670000  1.0 0.0761668913
C  C253  1  0.55910000  0.38560000  0.96150000  1.0 -0.1002464149
C  C254  1  0.82650000  0.44090000  0.53850000  1.0 -0.1002464149
C  C255  1  0.61440000  0.17350000  0.96150000  1.0 -0.1002464149
C  C256  1  0.55910000  0.38560000  0.53850000  1.0 -0.1002464149
C  C257  1  0.82650000  0.44090000  0.96150000  1.0 -0.1002464149
C  C258  1  0.61440000  0.17350000  0.53850000  1.0 -0.1002464149
C  C259  1  0.38560000  0.55910000  0.46150000  1.0 -0.1002464149
C  C260  1  0.17350000  0.61440000  0.03850000  1.0 -0.1002464149
C  C261  1  0.44090000  0.82650000  0.46150000  1.0 -0.1002464149
C  C262  1  0.38560000  0.55910000  0.03850000  1.0 -0.1002464149
C  C263  1  0.17350000  0.61440000  0.46150000  1.0 -0.1002464149
C  C264  1  0.44090000  0.82650000  0.03850000  1.0 -0.1002464149
C  C265  1  0.51630000  0.14960000  0.67850000  1.0 -0.1583068738
C  C266  1  0.63330000  0.48370000  0.82150000  1.0 -0.1583068738
C  C267  1  0.85040000  0.36670000  0.67850000  1.0 -0.1583068738
C  C268  1  0.51630000  0.14960000  0.82150000  1.0 -0.1583068738
C  C269  1  0.63330000  0.48370000  0.67850000  1.0 -0.1583068738
C  C270  1  0.85040000  0.36670000  0.82150000  1.0 -0.1583068738
C  C271  1  0.14960000  0.51630000  0.17850000  1.0 -0.1583068738
C  C272  1  0.36670000  0.85040000  0.32150000  1.0 -0.1583068738
C  C273  1  0.48370000  0.63330000  0.17850000  1.0 -0.1583068738
C  C274  1  0.14960000  0.51630000  0.32150000  1.0 -0.1583068738
C  C275  1  0.36670000  0.85040000  0.17850000  1.0 -0.1583068738
C  C276  1  0.48370000  0.63330000  0.32150000  1.0 -0.1583068738
C  C277  1  0.59410000  0.34570000  0.02940000  1.0 -0.1002464149
C  C278  1  0.75160000  0.40590000  0.47060000  1.0 -0.1002464149
C  C279  1  0.65430000  0.24840000  0.02940000  1.0 -0.1002464149
C  C280  1  0.59410000  0.34570000  0.47060000  1.0 -0.1002464149
C  C281  1  0.75160000  0.40590000  0.02940000  1.0 -0.1002464149
C  C282  1  0.65430000  0.24840000  0.47060000  1.0 -0.1002464149
C  C283  1  0.34570000  0.59410000  0.52940000  1.0 -0.1002464149
C  C284  1  0.24840000  0.65430000  0.97060000  1.0 -0.1002464149
C  C285  1  0.40590000  0.75160000  0.52940000  1.0 -0.1002464149
C  C286  1  0.34570000  0.59410000  0.97060000  1.0 -0.1002464149
C  C287  1  0.24840000  0.65430000  0.52940000  1.0 -0.1002464149
C  C288  1  0.40590000  0.75160000  0.97060000  1.0 -0.1002464149
C  C289  1  0.48210000  0.07530000  0.75000000  1.0 -0.019147205
C  C290  1  0.59320000  0.51790000  0.75000000  1.0 -0.019147205
C  C291  1  0.92470000  0.40680000  0.75000000  1.0 -0.019147205
C  C292  1  0.07530000  0.48210000  0.25000000  1.0 -0.019147205
C  C293  1  0.40680000  0.92470000  0.25000000  1.0 -0.019147205
C  C294  1  0.51790000  0.59320000  0.25000000  1.0 -0.019147205
C  C295  1  0.45230000  0.01730000  0.75000000  1.0 0.5981806663
C  C296  1  0.56500000  0.54770000  0.75000000  1.0 0.5981806663
C  C297  1  0.98270000  0.43500000  0.75000000  1.0 0.5981806663
C  C298  1  0.01730000  0.45230000  0.25000000  1.0 0.5981806663
C  C299  1  0.43500000  0.98270000  0.25000000  1.0 0.5981806663
C  C300  1  0.54770000  0.56500000  0.25000000  1.0 0.5981806663
C  C301  1  0.41450000  0.43690000  0.25000000  1.0 -0.0132875762
C  C302  1  0.02240000  0.58550000  0.25000000  1.0 -0.0132875762
C  C303  1  0.56310000  0.97760000  0.25000000  1.0 -0.0132875762
C  C304  1  0.43690000  0.41450000  0.75000000  1.0 -0.0132875762
C  C305  1  0.97760000  0.56310000  0.75000000  1.0 -0.0132875762
C  C306  1  0.58550000  0.02240000  0.75000000  1.0 -0.0132875762
C  C307  1  0.35500000  0.44900000  0.31500000  1.0 -0.0684100752
C  C308  1  0.09400000  0.64500000  0.18500000  1.0 -0.0684100752
C  C309  1  0.55100000  0.90600000  0.31500000  1.0 -0.0684100752
C  C310  1  0.35500000  0.44900000  0.18500000  1.0 -0.0684100752
C  C311  1  0.09400000  0.64500000  0.31500000  1.0 -0.0684100752
C  C312  1  0.55100000  0.90600000  0.18500000  1.0 -0.0684100752
C  C313  1  0.44900000  0.35500000  0.81500000  1.0 -0.0684100752
C  C314  1  0.90600000  0.55100000  0.68500000  1.0 -0.0684100752
C  C315  1  0.64500000  0.09400000  0.81500000  1.0 -0.0684100752
C  C316  1  0.44900000  0.35500000  0.68500000  1.0 -0.0684100752
C  C317  1  0.90600000  0.55100000  0.81500000  1.0 -0.0684100752
C  C318  1  0.64500000  0.09400000  0.68500000  1.0 -0.0684100752
C  C319  1  0.40200000  0.45500000  0.32200000  1.0 -0.0415969494
C  C320  1  0.05300000  0.59800000  0.17800000  1.0 -0.0415969494
C  C321  1  0.54500000  0.94700000  0.32200000  1.0 -0.0415969494
C  C322  1  0.40200000  0.45500000  0.17800000  1.0 -0.0415969494
C  C323  1  0.05300000  0.59800000  0.32200000  1.0 -0.0415969494
C  C324  1  0.54500000  0.94700000  0.17800000  1.0 -0.0415969494
C  C325  1  0.45500000  0.40200000  0.82200000  1.0 -0.0415969494
C  C326  1  0.94700000  0.54500000  0.67800000  1.0 -0.0415969494
C  C327  1  0.59800000  0.05300000  0.82200000  1.0 -0.0415969494
C  C328  1  0.45500000  0.40200000  0.67800000  1.0 -0.0415969494
C  C329  1  0.94700000  0.54500000  0.82200000  1.0 -0.0415969494
C  C330  1  0.59800000  0.05300000  0.67800000  1.0 -0.0415969494
C  C331  1  0.34000000  0.41900000  0.18900000  1.0 -0.0684100752
C  C332  1  0.07900000  0.66000000  0.31100000  1.0 -0.0684100752
C  C333  1  0.58100000  0.92100000  0.18900000  1.0 -0.0684100752
C  C334  1  0.34000000  0.41900000  0.31100000  1.0 -0.0684100752
C  C335  1  0.07900000  0.66000000  0.18900000  1.0 -0.0684100752
C  C336  1  0.58100000  0.92100000  0.31100000  1.0 -0.0684100752
C  C337  1  0.41900000  0.34000000  0.68900000  1.0 -0.0684100752
C  C338  1  0.92100000  0.58100000  0.81100000  1.0 -0.0684100752
C  C339  1  0.66000000  0.07900000  0.68900000  1.0 -0.0684100752
C  C340  1  0.41900000  0.34000000  0.81100000  1.0 -0.0684100752
C  C341  1  0.92100000  0.58100000  0.68900000  1.0 -0.0684100752
C  C342  1  0.66000000  0.07900000  0.81100000  1.0 -0.0684100752
C  C343  1  0.39200000  0.42900000  0.31000000  1.0 0.0167831554
C  C344  1  0.03700000  0.60800000  0.19000000  1.0 0.0167831554
C  C345  1  0.57100000  0.96300000  0.31000000  1.0 0.0167831554
C  C346  1  0.39200000  0.42900000  0.19000000  1.0 0.0167831554
C  C347  1  0.03700000  0.60800000  0.31000000  1.0 0.0167831554
C  C348  1  0.57100000  0.96300000  0.19000000  1.0 0.0167831554
C  C349  1  0.42900000  0.39200000  0.81000000  1.0 0.0167831554
C  C350  1  0.96300000  0.57100000  0.69000000  1.0 0.0167831554
C  C351  1  0.60800000  0.03700000  0.81000000  1.0 0.0167831554
C  C352  1  0.42900000  0.39200000  0.69000000  1.0 0.0167831554
C  C353  1  0.96300000  0.57100000  0.81000000  1.0 0.0167831554
C  C354  1  0.60800000  0.03700000  0.69000000  1.0 0.0167831554
O  O1  1  0.58920000  0.48470000  0.25000000  1.0 -1.0754482898
O  O2  1  0.89550000  0.41080000  0.25000000  1.0 -1.0746315869
O  O3  1  0.51530000  0.10450000  0.25000000  1.0 -1.0746315869
O  O4  1  0.48470000  0.58920000  0.75000000  1.0 -1.0754482898
O  O5  1  0.10450000  0.51530000  0.75000000  1.0 -1.0746315869
O  O6  1  0.41080000  0.89550000  0.75000000  1.0 -1.0746315869
O  O7  1  0.16520000  0.48920000  0.65430000  1.0 -0.5979161811
O  O8  1  0.32400000  0.83480000  0.84570000  1.0 -0.5979161811
O  O9  1  0.51080000  0.67600000  0.65430000  1.0 -0.5979161811
O  O10  1  0.16520000  0.48920000  0.84570000  1.0 -0.5979161811
O  O11  1  0.32400000  0.83480000  0.65430000  1.0 -0.5979161811
O  O12  1  0.51080000  0.67600000  0.84570000  1.0 -0.5979161811
O  O13  1  0.48920000  0.16520000  0.15430000  1.0 -0.5979161811
O  O14  1  0.67600000  0.51080000  0.34570000  1.0 -0.5979161811
O  O15  1  0.83480000  0.32400000  0.15430000  1.0 -0.5979161811
O  O16  1  0.48920000  0.16520000  0.34570000  1.0 -0.5979161811
O  O17  1  0.67600000  0.51080000  0.15430000  1.0 -0.5979161811
O  O18  1  0.83480000  0.32400000  0.34570000  1.0 -0.5979161811
O  O19  1  0.55930000  0.43250000  0.09530000  1.0 -0.5776942723
O  O20  1  0.87320000  0.44070000  0.40470000  1.0 -0.5776942723
O  O21  1  0.56750000  0.12680000  0.09530000  1.0 -0.5776942723
O  O22  1  0.55930000  0.43250000  0.40470000  1.0 -0.5776942723
O  O23  1  0.87320000  0.44070000  0.09530000  1.0 -0.5776942723
O  O24  1  0.56750000  0.12680000  0.40470000  1.0 -0.5776942723
O  O25  1  0.43250000  0.55930000  0.59530000  1.0 -0.5776942723
O  O26  1  0.12680000  0.56750000  0.90470000  1.0 -0.5776942723
O  O27  1  0.44070000  0.87320000  0.59530000  1.0 -0.5776942723
O  O28  1  0.43250000  0.55930000  0.90470000  1.0 -0.5776942723
O  O29  1  0.12680000  0.56750000  0.59530000  1.0 -0.5776942723
O  O30  1  0.44070000  0.87320000  0.90470000  1.0 -0.5776942723
O  O31  1  0.60360000  0.40650000  0.15840000  1.0 -0.5776942723
O  O32  1  0.80290000  0.39640000  0.34160000  1.0 -0.5776942723
O  O33  1  0.59350000  0.19710000  0.15840000  1.0 -0.5776942723
O  O34  1  0.60360000  0.40650000  0.34160000  1.0 -0.5776942723
O  O35  1  0.80290000  0.39640000  0.15840000  1.0 -0.5776942723
O  O36  1  0.59350000  0.19710000  0.34160000  1.0 -0.5776942723
O  O37  1  0.40650000  0.60360000  0.65840000  1.0 -0.5776942723
O  O38  1  0.19710000  0.59350000  0.84160000  1.0 -0.5776942723
O  O39  1  0.39640000  0.80290000  0.65840000  1.0 -0.5776942723
O  O40  1  0.40650000  0.60360000  0.84160000  1.0 -0.5776942723
O  O41  1  0.19710000  0.59350000  0.65840000  1.0 -0.5776942723
O  O42  1  0.39640000  0.80290000  0.84160000  1.0 -0.5776942723
O  O43  1  0.44720000  0.99750000  0.68380000  1.0 -0.5924973043
O  O44  1  0.55030000  0.55280000  0.81620000  1.0 -0.5924973043
O  O45  1  0.00250000  0.44970000  0.68380000  1.0 -0.5924973043
O  O46  1  0.44720000  0.99750000  0.81620000  1.0 -0.5924973043
O  O47  1  0.55030000  0.55280000  0.68380000  1.0 -0.5924973043
O  O48  1  0.00250000  0.44970000  0.81620000  1.0 -0.5924973043
O  O49  1  0.99750000  0.44720000  0.18380000  1.0 -0.5924973043
O  O50  1  0.44970000  0.00250000  0.31620000  1.0 -0.5924973043
O  O51  1  0.55280000  0.55030000  0.18380000  1.0 -0.5924973043
O  O52  1  0.99750000  0.44720000  0.31620000  1.0 -0.5924973043
O  O53  1  0.44970000  0.00250000  0.18380000  1.0 -0.5924973043
O  O54  1  0.55280000  0.55030000  0.31620000  1.0 -0.5924973043
O  O55  1  0.09420000  0.46360000  0.59220000  1.0 -0.5776942723
O  O56  1  0.36940000  0.90580000  0.90780000  1.0 -0.5776942723
O  O57  1  0.53640000  0.63060000  0.59220000  1.0 -0.5776942723
O  O58  1  0.09420000  0.46360000  0.90780000  1.0 -0.5776942723
O  O59  1  0.36940000  0.90580000  0.59220000  1.0 -0.5776942723
O  O60  1  0.53640000  0.63060000  0.90780000  1.0 -0.5776942723
O  O61  1  0.46360000  0.09420000  0.09220000  1.0 -0.5776942723
O  O62  1  0.63060000  0.53640000  0.40780000  1.0 -0.5776942723
O  O63  1  0.90580000  0.36940000  0.09220000  1.0 -0.5776942723
O  O64  1  0.46360000  0.09420000  0.40780000  1.0 -0.5776942723
O  O65  1  0.63060000  0.53640000  0.09220000  1.0 -0.5776942723
O  O66  1  0.90580000  0.36940000  0.40780000  1.0 -0.5776942723
O  O67  1  0.52470000  0.49580000  0.04390000  1.0 -0.5317503415
O  O68  1  0.97110000  0.47530000  0.45610000  1.0 -0.5317503415
O  O69  1  0.50420000  0.02890000  0.04390000  1.0 -0.5317503415
O  O70  1  0.52470000  0.49580000  0.45610000  1.0 -0.5317503415
O  O71  1  0.97110000  0.47530000  0.04390000  1.0 -0.5317503415
O  O72  1  0.50420000  0.02890000  0.45610000  1.0 -0.5317503415
O  O73  1  0.49580000  0.52470000  0.54390000  1.0 -0.5317503415
O  O74  1  0.02890000  0.50420000  0.95610000  1.0 -0.5317503415
O  O75  1  0.47530000  0.97110000  0.54390000  1.0 -0.5317503415
O  O76  1  0.49580000  0.52470000  0.95610000  1.0 -0.5317503415
O  O77  1  0.02890000  0.50420000  0.54390000  1.0 -0.5317503415
O  O78  1  0.47530000  0.97110000  0.95610000  1.0 -0.5317503415
O  O79  1  0.48740000  0.45100000  0.18530000  1.0 -0.5097246024
O  O80  1  0.96360000  0.51260000  0.31470000  1.0 -0.5097246024
O  O81  1  0.54900000  0.03640000  0.18530000  1.0 -0.5097246024
O  O82  1  0.48740000  0.45100000  0.31470000  1.0 -0.5097246024
O  O83  1  0.96360000  0.51260000  0.18530000  1.0 -0.5097246024
O  O84  1  0.54900000  0.03640000  0.31470000  1.0 -0.5097246024
O  O85  1  0.45100000  0.48740000  0.68530000  1.0 -0.5097246024
O  O86  1  0.03640000  0.54900000  0.81470000  1.0 -0.5097246024
O  O87  1  0.51260000  0.96360000  0.68530000  1.0 -0.5097246024
O  O88  1  0.45100000  0.48740000  0.81470000  1.0 -0.5097246024
O  O89  1  0.03640000  0.54900000  0.68530000  1.0 -0.5097246024
O  O90  1  0.51260000  0.96360000  0.81470000  1.0 -0.5097246024
