# DDEC6 charges by PACMAN v1.1 (https://github.com/mtap-research/PACMAN-charge/)
data_IWOKOW_FSR_pacman
_symmetry_space_group_name_H-M   'P 1'
_cell_length_a   13.85860000
_cell_length_b   13.85860000
_cell_length_c   50.62300000
_cell_angle_alpha   87.48900000
_cell_angle_beta   92.51100000
_cell_angle_gamma   51.63130000
_symmetry_Int_Tables_number   1
_chemical_formula_structural   FeH68C66(S5N3)2
_chemical_formula_sum   'Fe4 H272 C264 S40 N24'
_cell_volume   7584.23407706
_cell_formula_units_Z   4
loop_
 _symmetry_equiv_pos_site_id
 _symmetry_equiv_pos_as_xyz
  1  'x, y, z'
loop_
 _atom_site_type_symbol
 _atom_site_label
 _atom_site_symmetry_multiplicity
 _atom_site_fract_x
 _atom_site_fract_y
 _atom_site_fract_z
 _atom_site_occupancy
 _atom_site_charge
Fe  Fe1  1  0.07141000  0.07141000  0.75000000  1.0 0.6380788299
Fe  Fe2  1  0.92859000  0.92859000  0.25000000  1.0 0.6380788299
Fe  Fe3  1  0.50000000  0.00000000  0.00000000  1.0 0.6657029602
Fe  Fe4  1  0.00000000  0.50000000  0.50000000  1.0 0.6657029602
H  H1  1  0.84310000  0.43450000  0.81510000  1.0 0.1208920461
H  H2  1  0.43450000  0.84310000  0.68490000  1.0 0.1208920461
H  H3  1  0.15690000  0.56550000  0.18490000  1.0 0.1208920461
H  H4  1  0.56550000  0.15690000  0.31510000  1.0 0.1208920461
H  H5  1  0.59800000  0.78120000  0.83390000  1.0 0.1208920461
H  H6  1  0.78120000  0.59800000  0.66610000  1.0 0.1208920461
H  H7  1  0.40200000  0.21880000  0.16610000  1.0 0.1208920461
H  H8  1  0.21880000  0.40200000  0.33390000  1.0 0.1208920461
H  H9  1  0.34750000  0.57470000  0.78110000  1.0 0.1471448864
H  H10  1  0.57470000  0.34750000  0.71890000  1.0 0.1471448864
H  H11  1  0.65250000  0.42530000  0.21890000  1.0 0.1471448864
H  H12  1  0.42530000  0.65250000  0.28110000  1.0 0.1471448864
H  H13  1  0.49340000  0.49740000  0.78040000  1.0 0.1309681418
H  H14  1  0.49740000  0.49340000  0.71960000  1.0 0.1309681418
H  H15  1  0.50660000  0.50260000  0.21960000  1.0 0.1309681418
H  H16  1  0.50260000  0.50660000  0.28040000  1.0 0.1309681418
H  H17  1  0.20890000  0.79670000  0.77180000  1.0 0.1208920461
H  H18  1  0.79670000  0.20890000  0.72820000  1.0 0.1208920461
H  H19  1  0.79110000  0.20330000  0.22820000  1.0 0.1208920461
H  H20  1  0.20330000  0.79110000  0.27180000  1.0 0.1208920461
H  H21  1  0.34200000  0.95700000  0.74420000  1.0 0.1000886278
H  H22  1  0.95700000  0.34200000  0.75580000  1.0 0.1000886278
H  H23  1  0.65800000  0.04300000  0.25580000  1.0 0.1000886278
H  H24  1  0.04300000  0.65800000  0.24420000  1.0 0.1000886278
H  H25  1  0.54230000  0.77890000  0.75240000  1.0 0.1309681418
H  H26  1  0.77890000  0.54230000  0.74760000  1.0 0.1309681418
H  H27  1  0.45770000  0.22110000  0.24760000  1.0 0.1309681418
H  H28  1  0.22110000  0.45770000  0.25240000  1.0 0.1309681418
H  H29  1  0.57800000  0.60540000  0.77560000  1.0 0.1114892864
H  H30  1  0.60540000  0.57800000  0.72440000  1.0 0.1114892864
H  H31  1  0.42200000  0.39460000  0.22440000  1.0 0.1114892864
H  H32  1  0.39460000  0.42200000  0.27560000  1.0 0.1114892864
H  H33  1  0.82870000  0.60930000  0.78070000  1.0 0.1114892864
H  H34  1  0.60930000  0.82870000  0.71930000  1.0 0.1114892864
H  H35  1  0.17130000  0.39070000  0.21930000  1.0 0.1114892864
H  H36  1  0.39070000  0.17130000  0.28070000  1.0 0.1114892864
H  H37  1  0.73660000  0.75220000  0.78610000  1.0 0.1208920461
H  H38  1  0.75220000  0.73660000  0.71390000  1.0 0.1208920461
H  H39  1  0.26340000  0.24780000  0.21390000  1.0 0.1208920461
H  H40  1  0.24780000  0.26340000  0.28610000  1.0 0.1208920461
H  H41  1  0.88240000  0.68020000  0.78780000  1.0 0.138971735
H  H42  1  0.68020000  0.88240000  0.71220000  1.0 0.138971735
H  H43  1  0.11760000  0.31980000  0.21220000  1.0 0.138971735
H  H44  1  0.31980000  0.11760000  0.28780000  1.0 0.138971735
H  H45  1  0.72190000  0.81330000  0.83170000  1.0 0.1309681418
H  H46  1  0.81330000  0.72190000  0.66830000  1.0 0.1309681418
H  H47  1  0.27810000  0.18670000  0.16830000  1.0 0.1309681418
H  H48  1  0.18670000  0.27810000  0.33170000  1.0 0.1309681418
H  H49  1  0.81960000  0.70920000  0.85470000  1.0 0.138971735
H  H50  1  0.70920000  0.81960000  0.64530000  1.0 0.138971735
H  H51  1  0.18040000  0.29080000  0.14530000  1.0 0.138971735
H  H52  1  0.29080000  0.18040000  0.35470000  1.0 0.138971735
H  H53  1  0.86490000  0.75230000  0.83180000  1.0 0.138971735
H  H54  1  0.75230000  0.86490000  0.66820000  1.0 0.138971735
H  H55  1  0.13510000  0.24770000  0.16820000  1.0 0.138971735
H  H56  1  0.24770000  0.13510000  0.33180000  1.0 0.138971735
H  H57  1  0.00890000  0.54550000  0.82990000  1.0 0.1309681418
H  H58  1  0.54550000  0.00890000  0.67010000  1.0 0.1309681418
H  H59  1  0.99110000  0.45450000  0.17010000  1.0 0.1309681418
H  H60  1  0.45450000  0.99110000  0.32990000  1.0 0.1309681418
H  H61  1  0.95860000  0.47420000  0.84000000  1.0 0.1309681418
H  H62  1  0.47420000  0.95860000  0.66000000  1.0 0.1309681418
H  H63  1  0.04140000  0.52580000  0.16000000  1.0 0.1309681418
H  H64  1  0.52580000  0.04140000  0.34000000  1.0 0.1309681418
H  H65  1  0.98310000  0.47770000  0.80940000  1.0 0.1208920461
H  H66  1  0.47770000  0.98310000  0.69060000  1.0 0.1208920461
H  H67  1  0.01690000  0.52230000  0.19060000  1.0 0.1208920461
H  H68  1  0.52230000  0.01690000  0.30940000  1.0 0.1208920461
H  H69  1  0.68150000  0.14070000  0.90650000  1.0 0.1208920461
H  H70  1  0.14070000  0.68150000  0.59350000  1.0 0.1208920461
H  H71  1  0.31850000  0.85930000  0.09350000  1.0 0.1208920461
H  H72  1  0.85930000  0.31850000  0.40650000  1.0 0.1208920461
H  H73  1  0.56990000  0.27830000  0.83020000  1.0 0.1114892864
H  H74  1  0.27830000  0.56990000  0.66980000  1.0 0.1114892864
H  H75  1  0.43010000  0.72170000  0.16980000  1.0 0.1114892864
H  H76  1  0.72170000  0.43010000  0.33020000  1.0 0.1114892864
H  H77  1  0.01140000  0.05460000  0.84990000  1.0 0.138971735
H  H78  1  0.05460000  0.01140000  0.65010000  1.0 0.138971735
H  H79  1  0.98860000  0.94540000  0.15010000  1.0 0.138971735
H  H80  1  0.94540000  0.98860000  0.34990000  1.0 0.138971735
H  H81  1  0.10350000  0.04410000  0.87280000  1.0 0.1309681418
H  H82  1  0.04410000  0.10350000  0.62720000  1.0 0.1309681418
H  H83  1  0.89650000  0.95590000  0.12720000  1.0 0.1309681418
H  H84  1  0.95590000  0.89650000  0.37280000  1.0 0.1309681418
H  H85  1  0.01660000  0.08380000  0.81100000  1.0 0.1000886278
H  H86  1  0.08380000  0.01660000  0.68900000  1.0 0.1000886278
H  H87  1  0.98340000  0.91620000  0.18900000  1.0 0.1000886278
H  H88  1  0.91620000  0.98340000  0.31100000  1.0 0.1000886278
H  H89  1  0.22170000  0.15830000  0.77490000  1.0 0.0891979058
H  H90  1  0.15830000  0.22170000  0.72510000  1.0 0.0891979058
H  H91  1  0.77830000  0.84170000  0.22510000  1.0 0.0891979058
H  H92  1  0.84170000  0.77830000  0.27490000  1.0 0.0891979058
H  H93  1  0.26780000  0.20200000  0.81550000  1.0 0.1309681418
H  H94  1  0.20200000  0.26780000  0.68450000  1.0 0.1309681418
H  H95  1  0.73220000  0.79800000  0.18450000  1.0 0.1309681418
H  H96  1  0.79800000  0.73220000  0.31550000  1.0 0.1309681418
H  H97  1  0.18820000  0.18660000  0.85390000  1.0 0.138971735
H  H98  1  0.18660000  0.18820000  0.64610000  1.0 0.138971735
H  H99  1  0.81180000  0.81340000  0.14610000  1.0 0.138971735
H  H100  1  0.81340000  0.81180000  0.35390000  1.0 0.138971735
H  H101  1  0.54880000  0.10760000  0.90570000  1.0 0.1309681418
H  H102  1  0.10760000  0.54880000  0.59430000  1.0 0.1309681418
H  H103  1  0.45120000  0.89240000  0.09430000  1.0 0.1309681418
H  H104  1  0.89240000  0.45120000  0.40570000  1.0 0.1309681418
H  H105  1  0.45260000  0.25540000  0.90240000  1.0 0.1309681418
H  H106  1  0.25540000  0.45260000  0.59760000  1.0 0.1309681418
H  H107  1  0.54740000  0.74460000  0.09760000  1.0 0.1309681418
H  H108  1  0.74460000  0.54740000  0.40240000  1.0 0.1309681418
H  H109  1  0.41010000  0.17670000  0.89330000  1.0 0.1309681418
H  H110  1  0.17670000  0.41010000  0.60670000  1.0 0.1309681418
H  H111  1  0.58990000  0.82330000  0.10670000  1.0 0.1309681418
H  H112  1  0.82330000  0.58990000  0.39330000  1.0 0.1309681418
H  H113  1  0.63980000  0.99420000  0.86930000  1.0 0.1309681418
H  H114  1  0.99420000  0.63980000  0.63070000  1.0 0.1309681418
H  H115  1  0.36020000  0.00580000  0.13070000  1.0 0.1309681418
H  H116  1  0.00580000  0.36020000  0.36930000  1.0 0.1309681418
H  H117  1  0.51020000  0.04940000  0.85360000  1.0 0.1208920461
H  H118  1  0.04940000  0.51020000  0.64640000  1.0 0.1208920461
H  H119  1  0.48980000  0.95060000  0.14640000  1.0 0.1208920461
H  H120  1  0.95060000  0.48980000  0.35360000  1.0 0.1208920461
H  H121  1  0.60760000  0.05540000  0.83950000  1.0 0.1309681418
H  H122  1  0.05540000  0.60760000  0.66050000  1.0 0.1309681418
H  H123  1  0.39240000  0.94460000  0.16050000  1.0 0.1309681418
H  H124  1  0.94460000  0.39240000  0.33950000  1.0 0.1309681418
H  H125  1  0.34540000  0.26220000  0.84590000  1.0 0.1208920461
H  H126  1  0.26220000  0.34540000  0.65410000  1.0 0.1208920461
H  H127  1  0.65460000  0.73780000  0.15410000  1.0 0.1208920461
H  H128  1  0.73780000  0.65460000  0.34590000  1.0 0.1208920461
H  H129  1  0.35930000  0.36210000  0.85530000  1.0 0.138971735
H  H130  1  0.36210000  0.35930000  0.64470000  1.0 0.138971735
H  H131  1  0.64070000  0.63790000  0.14470000  1.0 0.138971735
H  H132  1  0.63790000  0.64070000  0.35530000  1.0 0.138971735
H  H133  1  0.42570000  0.28830000  0.83020000  1.0 0.1208920461
H  H134  1  0.28830000  0.42570000  0.66980000  1.0 0.1208920461
H  H135  1  0.57430000  0.71170000  0.16980000  1.0 0.1208920461
H  H136  1  0.71170000  0.57430000  0.33020000  1.0 0.1208920461
H  H137  1  0.72130000  0.61230000  0.94770000  1.0 0.1208920461
H  H138  1  0.61230000  0.72130000  0.55230000  1.0 0.1208920461
H  H139  1  0.27870000  0.38770000  0.05230000  1.0 0.1208920461
H  H140  1  0.38770000  0.27870000  0.44770000  1.0 0.1208920461
H  H141  1  0.97750000  0.26790000  0.92620000  1.0 0.1114892864
H  H142  1  0.26790000  0.97750000  0.57380000  1.0 0.1114892864
H  H143  1  0.02250000  0.73210000  0.07380000  1.0 0.1114892864
H  H144  1  0.73210000  0.02250000  0.42620000  1.0 0.1114892864
H  H145  1  0.59400000  0.39200000  0.98270000  1.0 0.1309681418
H  H146  1  0.39200000  0.59400000  0.51730000  1.0 0.1309681418
H  H147  1  0.40600000  0.60800000  0.01730000  1.0 0.1309681418
H  H148  1  0.60800000  0.40600000  0.48270000  1.0 0.1309681418
H  H149  1  0.68050000  0.24910000  0.97690000  1.0 0.138971735
H  H150  1  0.24910000  0.68050000  0.52310000  1.0 0.138971735
H  H151  1  0.31950000  0.75090000  0.02310000  1.0 0.138971735
H  H152  1  0.75090000  0.31950000  0.47690000  1.0 0.138971735
H  H153  1  0.60910000  0.13430000  0.98010000  1.0 0.1114892864
H  H154  1  0.13430000  0.60910000  0.51990000  1.0 0.1114892864
H  H155  1  0.39090000  0.86570000  0.01990000  1.0 0.1114892864
H  H156  1  0.86570000  0.39090000  0.48010000  1.0 0.1114892864
H  H157  1  0.26690000  0.28130000  0.99460000  1.0 0.1114892864
H  H158  1  0.28130000  0.26690000  0.50540000  1.0 0.1114892864
H  H159  1  0.73310000  0.71870000  0.00540000  1.0 0.1114892864
H  H160  1  0.71870000  0.73310000  0.49460000  1.0 0.1114892864
H  H161  1  0.20790000  0.48050000  0.98780000  1.0 0.138971735
H  H162  1  0.48050000  0.20790000  0.51220000  1.0 0.138971735
H  H163  1  0.79210000  0.51950000  0.01220000  1.0 0.138971735
H  H164  1  0.51950000  0.79210000  0.48780000  1.0 0.138971735
H  H165  1  0.35720000  0.50380000  0.97890000  1.0 0.1309681418
H  H166  1  0.50380000  0.35720000  0.52110000  1.0 0.1309681418
H  H167  1  0.64280000  0.49620000  0.02110000  1.0 0.1309681418
H  H168  1  0.49620000  0.64280000  0.47890000  1.0 0.1309681418
H  H169  1  0.01050000  0.55250000  0.95820000  1.0 0.1309681418
H  H170  1  0.55250000  0.01050000  0.54180000  1.0 0.1309681418
H  H171  1  0.98950000  0.44750000  0.04180000  1.0 0.1309681418
H  H172  1  0.44750000  0.98950000  0.45820000  1.0 0.1309681418
H  H173  1  0.87620000  0.59660000  0.96370000  1.0 0.1208920461
H  H174  1  0.59660000  0.87620000  0.53630000  1.0 0.1208920461
H  H175  1  0.12380000  0.40340000  0.03630000  1.0 0.1208920461
H  H176  1  0.40340000  0.12380000  0.46370000  1.0 0.1208920461
H  H177  1  0.99680000  0.46240000  0.97540000  1.0 0.1208920461
H  H178  1  0.46240000  0.99680000  0.52460000  1.0 0.1208920461
H  H179  1  0.00320000  0.53760000  0.02460000  1.0 0.1208920461
H  H180  1  0.53760000  0.00320000  0.47540000  1.0 0.1208920461
H  H181  1  0.88000000  0.54480000  0.89600000  1.0 0.138971735
H  H182  1  0.54480000  0.88000000  0.60400000  1.0 0.138971735
H  H183  1  0.12000000  0.45520000  0.10400000  1.0 0.138971735
H  H184  1  0.45520000  0.12000000  0.39600000  1.0 0.138971735
H  H185  1  0.82960000  0.65040000  0.91580000  1.0 0.1309681418
H  H186  1  0.65040000  0.82960000  0.58420000  1.0 0.1309681418
H  H187  1  0.17040000  0.34960000  0.08420000  1.0 0.1309681418
H  H188  1  0.34960000  0.17040000  0.41580000  1.0 0.1309681418
H  H189  1  0.96560000  0.57840000  0.90640000  1.0 0.138971735
H  H190  1  0.57840000  0.96560000  0.59360000  1.0 0.138971735
H  H191  1  0.03440000  0.42160000  0.09360000  1.0 0.138971735
H  H192  1  0.42160000  0.03440000  0.40640000  1.0 0.138971735
H  H193  1  0.10510000  0.29310000  0.94390000  1.0 0.1208920461
H  H194  1  0.29310000  0.10510000  0.55610000  1.0 0.1208920461
H  H195  1  0.89490000  0.70690000  0.05610000  1.0 0.1208920461
H  H196  1  0.70690000  0.89490000  0.44390000  1.0 0.1208920461
H  H197  1  0.08900000  0.34200000  0.91350000  1.0 0.1309681418
H  H198  1  0.34200000  0.08900000  0.58650000  1.0 0.1309681418
H  H199  1  0.91100000  0.65800000  0.08650000  1.0 0.1309681418
H  H200  1  0.65800000  0.91100000  0.41350000  1.0 0.1309681418
H  H201  1  0.13970000  0.38090000  0.93620000  1.0 0.1309681418
H  H202  1  0.38090000  0.13970000  0.56380000  1.0 0.1309681418
H  H203  1  0.86030000  0.61910000  0.06380000  1.0 0.1309681418
H  H204  1  0.61910000  0.86030000  0.43620000  1.0 0.1309681418
H  H205  1  0.21470000  0.77750000  0.85460000  1.0 0.1309681418
H  H206  1  0.77750000  0.21470000  0.64540000  1.0 0.1309681418
H  H207  1  0.78530000  0.22250000  0.14540000  1.0 0.1309681418
H  H208  1  0.22250000  0.78530000  0.35460000  1.0 0.1309681418
H  H209  1  0.31210000  0.64190000  0.93090000  1.0 0.1208920461
H  H210  1  0.64190000  0.31210000  0.56910000  1.0 0.1208920461
H  H211  1  0.68790000  0.35810000  0.06910000  1.0 0.1208920461
H  H212  1  0.35810000  0.68790000  0.43090000  1.0 0.1208920461
H  H213  1  0.37160000  0.96220000  0.87970000  1.0 0.1208920461
H  H214  1  0.96220000  0.37160000  0.62030000  1.0 0.1208920461
H  H215  1  0.62840000  0.03780000  0.12030000  1.0 0.1208920461
H  H216  1  0.03780000  0.62840000  0.37970000  1.0 0.1208920461
H  H217  1  0.47950000  0.96230000  0.89230000  1.0 0.1471448864
H  H218  1  0.96230000  0.47950000  0.60770000  1.0 0.1471448864
H  H219  1  0.52050000  0.03770000  0.10770000  1.0 0.1471448864
H  H220  1  0.03770000  0.52050000  0.39230000  1.0 0.1471448864
H  H221  1  0.50210000  0.96930000  0.93920000  1.0 0.1114892864
H  H222  1  0.96930000  0.50210000  0.56080000  1.0 0.1114892864
H  H223  1  0.49790000  0.03070000  0.06080000  1.0 0.1114892864
H  H224  1  0.03070000  0.49790000  0.43920000  1.0 0.1114892864
H  H225  1  0.23770000  0.06230000  0.98400000  1.0 0.1000886278
H  H226  1  0.06230000  0.23770000  0.51600000  1.0 0.1000886278
H  H227  1  0.76230000  0.93770000  0.01600000  1.0 0.1000886278
H  H228  1  0.93770000  0.76230000  0.48400000  1.0 0.1000886278
H  H229  1  0.14120000  0.03220000  0.95020000  1.0 0.1309681418
H  H230  1  0.03220000  0.14120000  0.54980000  1.0 0.1309681418
H  H231  1  0.85880000  0.96780000  0.04980000  1.0 0.1309681418
H  H232  1  0.96780000  0.85880000  0.45020000  1.0 0.1309681418
H  H233  1  0.22350000  0.97990000  0.90950000  1.0 0.1309681418
H  H234  1  0.97990000  0.22350000  0.59050000  1.0 0.1309681418
H  H235  1  0.77650000  0.02010000  0.09050000  1.0 0.1309681418
H  H236  1  0.02010000  0.77650000  0.40950000  1.0 0.1309681418
H  H237  1  0.19870000  0.61630000  0.85590000  1.0 0.1309681418
H  H238  1  0.61630000  0.19870000  0.64410000  1.0 0.1309681418
H  H239  1  0.80130000  0.38370000  0.14410000  1.0 0.1309681418
H  H240  1  0.38370000  0.80130000  0.35590000  1.0 0.1309681418
H  H241  1  0.22560000  0.51820000  0.87910000  1.0 0.1309681418
H  H242  1  0.51820000  0.22560000  0.62090000  1.0 0.1309681418
H  H243  1  0.77440000  0.48180000  0.12090000  1.0 0.1309681418
H  H244  1  0.48180000  0.77440000  0.37910000  1.0 0.1309681418
H  H245  1  0.08790000  0.62050000  0.86560000  1.0 0.138971735
H  H246  1  0.62050000  0.08790000  0.63440000  1.0 0.138971735
H  H247  1  0.91210000  0.37950000  0.13440000  1.0 0.138971735
H  H248  1  0.37950000  0.91210000  0.36560000  1.0 0.138971735
H  H249  1  0.05220000  0.72040000  0.92640000  1.0 0.138971735
H  H250  1  0.72040000  0.05220000  0.57360000  1.0 0.138971735
H  H251  1  0.94780000  0.27960000  0.07360000  1.0 0.138971735
H  H252  1  0.27960000  0.94780000  0.42640000  1.0 0.138971735
H  H253  1  0.11750000  0.58570000  0.91680000  1.0 0.1309681418
H  H254  1  0.58570000  0.11750000  0.58320000  1.0 0.1309681418
H  H255  1  0.88250000  0.41430000  0.08320000  1.0 0.1309681418
H  H256  1  0.41430000  0.88250000  0.41680000  1.0 0.1309681418
H  H257  1  0.19890000  0.61610000  0.93170000  1.0 0.1208920461
H  H258  1  0.61610000  0.19890000  0.56830000  1.0 0.1208920461
H  H259  1  0.80110000  0.38390000  0.06830000  1.0 0.1208920461
H  H260  1  0.38390000  0.80110000  0.43170000  1.0 0.1208920461
H  H261  1  0.02150000  0.88450000  0.89330000  1.0 0.1309681418
H  H262  1  0.88450000  0.02150000  0.60670000  1.0 0.1309681418
H  H263  1  0.97850000  0.11550000  0.10670000  1.0 0.1309681418
H  H264  1  0.11550000  0.97850000  0.39330000  1.0 0.1309681418
H  H265  1  0.01980000  0.84380000  0.86430000  1.0 0.1309681418
H  H266  1  0.84380000  0.01980000  0.63570000  1.0 0.1309681418
H  H267  1  0.98020000  0.15620000  0.13570000  1.0 0.1309681418
H  H268  1  0.15620000  0.98020000  0.36430000  1.0 0.1309681418
H  H269  1  0.95090000  0.82950000  0.88680000  1.0 0.138971735
H  H270  1  0.82950000  0.95090000  0.61320000  1.0 0.138971735
H  H271  1  0.04910000  0.17050000  0.11320000  1.0 0.138971735
H  H272  1  0.17050000  0.04910000  0.38680000  1.0 0.138971735
C  C1  1  0.52930000  0.68650000  0.83288000  1.0 0.0384453746
C  C2  1  0.68650000  0.52930000  0.66712000  1.0 0.0384453746
C  C3  1  0.47070000  0.31350000  0.16712000  1.0 0.0384453746
C  C4  1  0.31350000  0.47070000  0.33288000  1.0 0.0384453746
C  C5  1  0.55470000  0.57550000  0.82737000  1.0 -0.03090352
C  C6  1  0.57550000  0.55470000  0.67263000  1.0 -0.03090352
C  C7  1  0.44530000  0.42450000  0.17263000  1.0 -0.03090352
C  C8  1  0.42450000  0.44530000  0.32737000  1.0 -0.03090352
C  C9  1  0.67720000  0.47840000  0.82141000  1.0 0.0201982488
C  C10  1  0.47840000  0.67720000  0.67859000  1.0 0.0201982488
C  C11  1  0.32280000  0.52160000  0.17859000  1.0 0.0201982488
C  C12  1  0.52160000  0.32280000  0.32141000  1.0 0.0201982488
C  C13  1  0.76230000  0.50030000  0.81940000  1.0 -0.2268640988
C  C14  1  0.50030000  0.76230000  0.68060000  1.0 -0.2268640988
C  C15  1  0.23770000  0.49970000  0.18060000  1.0 -0.2268640988
C  C16  1  0.49970000  0.23770000  0.31940000  1.0 -0.2268640988
C  C17  1  0.73570000  0.61210000  0.82330000  1.0 0.1114892864
C  C18  1  0.61210000  0.73570000  0.67670000  1.0 0.1114892864
C  C19  1  0.26430000  0.38790000  0.17670000  1.0 0.1114892864
C  C20  1  0.38790000  0.26430000  0.32330000  1.0 0.1114892864
C  C21  1  0.61890000  0.70370000  0.83048000  1.0 -0.2238857721
C  C22  1  0.70370000  0.61890000  0.66952000  1.0 -0.2238857721
C  C23  1  0.38110000  0.29630000  0.16952000  1.0 -0.2238857721
C  C24  1  0.29630000  0.38110000  0.33048000  1.0 -0.2238857721
C  C25  1  0.41830000  0.57230000  0.78670000  1.0 -0.2918960241
C  C26  1  0.57230000  0.41830000  0.71330000  1.0 -0.2918960241
C  C27  1  0.58170000  0.42770000  0.21330000  1.0 -0.2918960241
C  C28  1  0.42770000  0.58170000  0.28670000  1.0 -0.2918960241
C  C29  1  0.39820000  0.67980000  0.77450000  1.0 0.0891979058
C  C30  1  0.67980000  0.39820000  0.72550000  1.0 0.0891979058
C  C31  1  0.60180000  0.32020000  0.22550000  1.0 0.0891979058
C  C32  1  0.32020000  0.60180000  0.27450000  1.0 0.0891979058
C  C33  1  0.27790000  0.79270000  0.76800000  1.0 0.0523176218
C  C34  1  0.79270000  0.27790000  0.73200000  1.0 0.0523176218
C  C35  1  0.72210000  0.20730000  0.23200000  1.0 0.0523176218
C  C36  1  0.20730000  0.72210000  0.26800000  1.0 0.0523176218
C  C37  1  0.35670000  0.88490000  0.75200000  1.0 0.0201982488
C  C38  1  0.88490000  0.35670000  0.74800000  1.0 0.0201982488
C  C39  1  0.64330000  0.11510000  0.24800000  1.0 0.0201982488
C  C40  1  0.11510000  0.64330000  0.25200000  1.0 0.0201982488
C  C41  1  0.47550000  0.78110000  0.75720000  1.0 -0.1328511921
C  C42  1  0.78110000  0.47550000  0.74280000  1.0 -0.1328511921
C  C43  1  0.52450000  0.21890000  0.24280000  1.0 -0.1328511921
C  C44  1  0.21890000  0.52450000  0.25720000  1.0 -0.1328511921
C  C45  1  0.49620000  0.67720000  0.77000000  1.0 -0.1096073019
C  C46  1  0.67720000  0.49620000  0.73000000  1.0 -0.1096073019
C  C47  1  0.50380000  0.32280000  0.23000000  1.0 -0.1096073019
C  C48  1  0.32280000  0.50380000  0.27000000  1.0 -0.1096073019
C  C49  1  0.82810000  0.63790000  0.81920000  1.0 0.24960897
C  C50  1  0.63790000  0.82810000  0.68080000  1.0 0.24960897
C  C51  1  0.17190000  0.36210000  0.18080000  1.0 0.24960897
C  C52  1  0.36210000  0.17190000  0.31920000  1.0 0.24960897
C  C53  1  0.81810000  0.67270000  0.79120000  1.0 -0.4467142907
C  C54  1  0.67270000  0.81810000  0.70880000  1.0 -0.4467142907
C  C55  1  0.18190000  0.32730000  0.20880000  1.0 -0.4467142907
C  C56  1  0.32730000  0.18190000  0.29120000  1.0 -0.4467142907
C  C57  1  0.80680000  0.73700000  0.83580000  1.0 -0.460165025
C  C58  1  0.73700000  0.80680000  0.66420000  1.0 -0.460165025
C  C59  1  0.19320000  0.26300000  0.16420000  1.0 -0.460165025
C  C60  1  0.26300000  0.19320000  0.33580000  1.0 -0.460165025
C  C61  1  0.95510000  0.52450000  0.82510000  1.0 -0.4704295841
C  C62  1  0.52450000  0.95510000  0.67490000  1.0 -0.4704295841
C  C63  1  0.04490000  0.47550000  0.17490000  1.0 -0.4704295841
C  C64  1  0.47550000  0.04490000  0.32510000  1.0 -0.4704295841
C  C65  1  0.71380000  0.27320000  0.84500000  1.0 0.0305446221
C  C66  1  0.27320000  0.71380000  0.65500000  1.0 0.0305446221
C  C67  1  0.28620000  0.72680000  0.15500000  1.0 0.0305446221
C  C68  1  0.72680000  0.28620000  0.34500000  1.0 0.0305446221
C  C69  1  0.79000000  0.24360000  0.86793000  1.0 -0.03090352
C  C70  1  0.24360000  0.79000000  0.63207000  1.0 -0.03090352
C  C71  1  0.21000000  0.75640000  0.13207000  1.0 -0.03090352
C  C72  1  0.75640000  0.21000000  0.36793000  1.0 -0.03090352
C  C73  1  0.77480000  0.19740000  0.89140000  1.0 0.0305446221
C  C74  1  0.19740000  0.77480000  0.60860000  1.0 0.0305446221
C  C75  1  0.22520000  0.80260000  0.10860000  1.0 0.0305446221
C  C76  1  0.80260000  0.22520000  0.39140000  1.0 0.0305446221
C  C77  1  0.68880000  0.17540000  0.89080000  1.0 -0.2065213146
C  C78  1  0.17540000  0.68880000  0.60920000  1.0 -0.2065213146
C  C79  1  0.31120000  0.82460000  0.10920000  1.0 -0.2065213146
C  C80  1  0.82460000  0.31120000  0.39080000  1.0 -0.2065213146
C  C81  1  0.61240000  0.20360000  0.86750000  1.0 0.1000886278
C  C82  1  0.20360000  0.61240000  0.63250000  1.0 0.1000886278
C  C83  1  0.38760000  0.79640000  0.13250000  1.0 0.1000886278
C  C84  1  0.79640000  0.38760000  0.36750000  1.0 0.1000886278
C  C85  1  0.62390000  0.25430000  0.84570000  1.0 -0.2065213146
C  C86  1  0.25430000  0.62390000  0.65430000  1.0 -0.2065213146
C  C87  1  0.37610000  0.74570000  0.15430000  1.0 -0.2065213146
C  C88  1  0.74570000  0.37610000  0.34570000  1.0 -0.2065213146
C  C89  1  0.04160000  0.09700000  0.85760000  1.0 -0.2745679108
C  C90  1  0.09700000  0.04160000  0.64240000  1.0 -0.2745679108
C  C91  1  0.95840000  0.90300000  0.14240000  1.0 -0.2745679108
C  C92  1  0.90300000  0.95840000  0.35760000  1.0 -0.2745679108
C  C93  1  0.09490000  0.13370000  0.83610000  1.0 0.1000886278
C  C94  1  0.13370000  0.09490000  0.66390000  1.0 0.1000886278
C  C95  1  0.90510000  0.86630000  0.16390000  1.0 0.1000886278
C  C96  1  0.86630000  0.90510000  0.33610000  1.0 0.1000886278
C  C97  1  0.06760000  0.10780000  0.81190000  1.0 -0.0185696754
C  C98  1  0.10780000  0.06760000  0.68810000  1.0 -0.0185696754
C  C99  1  0.93240000  0.89220000  0.18810000  1.0 -0.0185696754
C  C100  1  0.89220000  0.93240000  0.31190000  1.0 -0.0185696754
C  C101  1  0.18950000  0.15210000  0.79050000  1.0 0.0115160582
C  C102  1  0.15210000  0.18950000  0.70950000  1.0 0.0115160582
C  C103  1  0.81050000  0.84790000  0.20950000  1.0 0.0201982488
C  C104  1  0.84790000  0.81050000  0.29050000  1.0 0.0201982488
C  C105  1  0.21680000  0.17800000  0.81460000  1.0 -0.1328511921
C  C106  1  0.17800000  0.21680000  0.68540000  1.0 -0.1328511921
C  C107  1  0.78320000  0.82200000  0.18540000  1.0 -0.1328511921
C  C108  1  0.82200000  0.78320000  0.31460000  1.0 -0.1328511921
C  C109  1  0.16950000  0.16890000  0.83741000  1.0 -0.1195667677
C  C110  1  0.16890000  0.16950000  0.66259000  1.0 -0.1195667677
C  C111  1  0.83050000  0.83110000  0.16259000  1.0 -0.1195667677
C  C112  1  0.83110000  0.83050000  0.33741000  1.0 -0.1195667677
C  C113  1  0.51840000  0.18000000  0.86630000  1.0 0.2706230643
C  C114  1  0.18000000  0.51840000  0.63370000  1.0 0.2706230643
C  C115  1  0.48160000  0.82000000  0.13370000  1.0 0.2706230643
C  C116  1  0.82000000  0.48160000  0.36630000  1.0 0.2706230643
C  C117  1  0.47880000  0.18000000  0.89450000  1.0 -0.4823553723
C  C118  1  0.18000000  0.47880000  0.60550000  1.0 -0.4823553723
C  C119  1  0.52120000  0.82000000  0.10550000  1.0 -0.4823553723
C  C120  1  0.82000000  0.52120000  0.39450000  1.0 -0.4823553723
C  C121  1  0.57350000  0.05990000  0.85630000  1.0 -0.460165025
C  C122  1  0.05990000  0.57350000  0.64370000  1.0 -0.460165025
C  C123  1  0.42650000  0.94010000  0.14370000  1.0 -0.460165025
C  C124  1  0.94010000  0.42650000  0.35630000  1.0 -0.460165025
C  C125  1  0.40140000  0.28260000  0.84770000  1.0 -0.460165025
C  C126  1  0.28260000  0.40140000  0.65230000  1.0 -0.460165025
C  C127  1  0.59860000  0.71740000  0.15230000  1.0 -0.460165025
C  C128  1  0.71740000  0.59860000  0.34770000  1.0 -0.460165025
C  C129  1  0.80780000  0.31140000  0.93038000  1.0 0.0305446221
C  C130  1  0.31140000  0.80780000  0.56962000  1.0 0.0305446221
C  C131  1  0.19220000  0.68860000  0.06962000  1.0 0.0305446221
C  C132  1  0.68860000  0.19220000  0.43038000  1.0 0.0305446221
C  C133  1  0.68820000  0.40240000  0.93613000  1.0 -0.037030821
C  C134  1  0.40240000  0.68820000  0.56387000  1.0 -0.03090352
C  C135  1  0.31180000  0.59760000  0.06387000  1.0 -0.037030821
C  C136  1  0.59760000  0.31180000  0.43613000  1.0 -0.037030821
C  C137  1  0.65420000  0.51900000  0.94161000  1.0 0.0305446221
C  C138  1  0.51900000  0.65420000  0.55839000  1.0 0.0305446221
C  C139  1  0.34580000  0.48100000  0.05839000  1.0 0.0305446221
C  C140  1  0.48100000  0.34580000  0.44161000  1.0 0.0305446221
C  C141  1  0.74340000  0.53600000  0.94269000  1.0 -0.2065213146
C  C142  1  0.53600000  0.74340000  0.55731000  1.0 -0.2022989628
C  C143  1  0.25660000  0.46400000  0.05731000  1.0 -0.2022989628
C  C144  1  0.46400000  0.25660000  0.44269000  1.0 -0.2022989628
C  C145  1  0.86380000  0.44480000  0.93665000  1.0 0.1000886278
C  C146  1  0.44480000  0.86380000  0.56335000  1.0 0.1000886278
C  C147  1  0.13620000  0.55520000  0.06335000  1.0 0.1000886278
C  C148  1  0.55520000  0.13620000  0.43665000  1.0 0.1000886278
C  C149  1  0.89590000  0.33170000  0.93042000  1.0 -0.2268640988
C  C150  1  0.33170000  0.89590000  0.56958000  1.0 -0.2268640988
C  C151  1  0.10410000  0.66830000  0.06958000  1.0 -0.2268640988
C  C152  1  0.66830000  0.10410000  0.43042000  1.0 -0.2268640988
C  C153  1  0.59850000  0.33050000  0.97236000  1.0 -0.2918960241
C  C154  1  0.33050000  0.59850000  0.52764000  1.0 -0.2918960241
C  C155  1  0.40150000  0.66950000  0.02764000  1.0 -0.2918960241
C  C156  1  0.66950000  0.40150000  0.47236000  1.0 -0.2918960241
C  C157  1  0.49660000  0.32340000  0.97915000  1.0 0.0891979058
C  C158  1  0.32340000  0.49660000  0.52085000  1.0 0.0891979058
C  C159  1  0.50340000  0.67660000  0.02085000  1.0 0.0891979058
C  C160  1  0.67660000  0.50340000  0.47915000  1.0 0.0891979058
C  C161  1  0.52710000  0.20490000  0.98232000  1.0 0.0384453746
C  C162  1  0.20490000  0.52710000  0.51768000  1.0 0.0384453746
C  C163  1  0.47290000  0.79510000  0.01768000  1.0 0.0384453746
C  C164  1  0.79510000  0.47290000  0.48232000  1.0 0.0384453746
C  C165  1  0.32650000  0.29130000  0.99045000  1.0 0.0384453746
C  C166  1  0.29130000  0.32650000  0.50955000  1.0 0.0384453746
C  C167  1  0.67350000  0.70870000  0.00955000  1.0 0.0384453746
C  C168  1  0.70870000  0.67350000  0.49045000  1.0 0.0384453746
C  C169  1  0.29130000  0.41010000  0.98670000  1.0 -0.1195667677
C  C170  1  0.41010000  0.29130000  0.51330000  1.0 -0.1195667677
C  C171  1  0.70870000  0.58990000  0.01330000  1.0 -0.1195667677
C  C172  1  0.58990000  0.70870000  0.48670000  1.0 -0.1195667677
C  C173  1  0.37950000  0.42370000  0.98122000  1.0 -0.1195667677
C  C174  1  0.42370000  0.37950000  0.51878000  1.0 -0.1195667677
C  C175  1  0.62050000  0.57630000  0.01878000  1.0 -0.1195667677
C  C176  1  0.57630000  0.62050000  0.48122000  1.0 -0.1195667677
C  C177  1  0.95550000  0.47230000  0.93520000  1.0 0.2706230643
C  C178  1  0.47230000  0.95550000  0.56480000  1.0 0.2706230643
C  C179  1  0.04450000  0.52770000  0.06480000  1.0 0.2706230643
C  C180  1  0.52770000  0.04450000  0.43520000  1.0 0.2706230643
C  C181  1  0.96010000  0.52570000  0.96030000  1.0 -0.460165025
C  C182  1  0.52570000  0.96010000  0.53970000  1.0 -0.460165025
C  C183  1  0.03990000  0.47430000  0.03970000  1.0 -0.460165025
C  C184  1  0.47430000  0.03990000  0.46030000  1.0 -0.460165025
C  C185  1  0.90280000  0.57060000  0.91110000  1.0 -0.4704295841
C  C186  1  0.57060000  0.90280000  0.58890000  1.0 -0.4704295841
C  C187  1  0.09720000  0.42940000  0.08890000  1.0 -0.4704295841
C  C188  1  0.42940000  0.09720000  0.41110000  1.0 -0.4704295841
C  C189  1  0.08300000  0.36300000  0.93190000  1.0 -0.4704295841
C  C190  1  0.36300000  0.08300000  0.56810000  1.0 -0.4704295841
C  C191  1  0.91700000  0.63700000  0.06810000  1.0 -0.4704295841
C  C192  1  0.63700000  0.91700000  0.43190000  1.0 -0.4704295841
C  C193  1  0.41630000  0.68490000  0.91667000  1.0 0.0384453746
C  C194  1  0.68490000  0.41630000  0.58333000  1.0 0.0384453746
C  C195  1  0.58370000  0.31510000  0.08333000  1.0 0.0384453746
C  C196  1  0.31510000  0.58370000  0.41667000  1.0 0.0384453746
C  C197  1  0.43450000  0.73250000  0.89430000  1.0 -0.037030821
C  C198  1  0.73250000  0.43450000  0.60570000  1.0 -0.037030821
C  C199  1  0.56550000  0.26750000  0.10570000  1.0 -0.037030821
C  C200  1  0.26750000  0.56550000  0.39430000  1.0 -0.037030821
C  C201  1  0.36180000  0.76020000  0.87032000  1.0 0.0305446221
C  C202  1  0.76020000  0.36180000  0.62968000  1.0 0.0305446221
C  C203  1  0.63820000  0.23980000  0.12968000  1.0 0.0305446221
C  C204  1  0.23980000  0.63820000  0.37032000  1.0 0.0305446221
C  C205  1  0.26720000  0.75220000  0.87045000  1.0 -0.2022989628
C  C206  1  0.75220000  0.26720000  0.62955000  1.0 -0.2022989628
C  C207  1  0.73280000  0.24780000  0.12955000  1.0 -0.2022989628
C  C208  1  0.24780000  0.73280000  0.37045000  1.0 -0.2022989628
C  C209  1  0.24630000  0.70850000  0.89302000  1.0 0.1000886278
C  C210  1  0.70850000  0.24630000  0.60698000  1.0 0.1000886278
C  C211  1  0.75370000  0.29150000  0.10698000  1.0 0.1000886278
C  C212  1  0.29150000  0.75370000  0.39302000  1.0 0.1000886278
C  C213  1  0.32310000  0.67430000  0.91548000  1.0 -0.2065213146
C  C214  1  0.67430000  0.32310000  0.58452000  1.0 -0.2065213146
C  C215  1  0.67690000  0.32570000  0.08452000  1.0 -0.2065213146
C  C216  1  0.32570000  0.67690000  0.41548000  1.0 -0.2065213146
C  C217  1  0.43480000  0.92860000  0.89490000  1.0 -0.3002043155
C  C218  1  0.92860000  0.43480000  0.60510000  1.0 -0.3002043155
C  C219  1  0.56520000  0.07140000  0.10510000  1.0 -0.3002043155
C  C220  1  0.07140000  0.56520000  0.39490000  1.0 -0.3002043155
C  C221  1  0.37200000  0.97000000  0.92000000  1.0 0.1000886278
C  C222  1  0.97000000  0.37200000  0.58000000  1.0 0.1000886278
C  C223  1  0.62800000  0.03000000  0.08000000  1.0 0.1000886278
C  C224  1  0.03000000  0.62800000  0.42000000  1.0 0.1000886278
C  C225  1  0.42720000  0.98240000  0.94160000  1.0 0.0305446221
C  C226  1  0.98240000  0.42720000  0.55840000  1.0 0.0305446221
C  C227  1  0.57280000  0.01760000  0.05840000  1.0 0.0305446221
C  C228  1  0.01760000  0.57280000  0.44160000  1.0 0.0305446221
C  C229  1  0.27470000  0.03490000  0.96780000  1.0 0.0305446221
C  C230  1  0.03490000  0.27470000  0.53220000  1.0 0.0305446221
C  C231  1  0.72530000  0.96510000  0.03220000  1.0 0.0384453746
C  C232  1  0.96510000  0.72530000  0.46780000  1.0 0.0384453746
C  C233  1  0.21520000  0.02040000  0.94750000  1.0 -0.1195667677
C  C234  1  0.02040000  0.21520000  0.55250000  1.0 -0.1195667677
C  C235  1  0.78480000  0.97960000  0.05250000  1.0 -0.1195667677
C  C236  1  0.97960000  0.78480000  0.44750000  1.0 -0.1195667677
C  C237  1  0.26410000  0.98890000  0.92360000  1.0 -0.1096073019
C  C238  1  0.98890000  0.26410000  0.57640000  1.0 -0.1096073019
C  C239  1  0.73590000  0.01110000  0.07640000  1.0 -0.1096073019
C  C240  1  0.01110000  0.73590000  0.42360000  1.0 -0.1096073019
C  C241  1  0.14310000  0.69230000  0.89210000  1.0 0.2960404443
C  C242  1  0.69230000  0.14310000  0.60790000  1.0 0.2960404443
C  C243  1  0.85690000  0.30770000  0.10790000  1.0 0.2960404443
C  C244  1  0.30770000  0.85690000  0.39210000  1.0 0.2960404443
C  C245  1  0.16590000  0.60390000  0.87130000  1.0 -0.489838065
C  C246  1  0.60390000  0.16590000  0.62870000  1.0 -0.489838065
C  C247  1  0.83410000  0.39610000  0.12870000  1.0 -0.489838065
C  C248  1  0.39610000  0.83410000  0.37130000  1.0 -0.489838065
C  C249  1  0.12610000  0.65010000  0.91930000  1.0 -0.4823553723
C  C250  1  0.65010000  0.12610000  0.58070000  1.0 -0.4823553723
C  C251  1  0.87390000  0.34990000  0.08070000  1.0 -0.4823553723
C  C252  1  0.34990000  0.87390000  0.41930000  1.0 -0.4823553723
C  C253  1  0.02270000  0.82470000  0.88330000  1.0 -0.4704295841
C  C254  1  0.82470000  0.02270000  0.61670000  1.0 -0.4704295841
C  C255  1  0.97730000  0.17530000  0.11670000  1.0 -0.4704295841
C  C256  1  0.17530000  0.97730000  0.38330000  1.0 -0.4704295841
C  C257  1  0.94710000  0.98610000  0.78690000  1.0 0.276829763
C  C258  1  0.98610000  0.94710000  0.71310000  1.0 0.276829763
C  C259  1  0.05290000  0.01390000  0.21310000  1.0 0.276829763
C  C260  1  0.01390000  0.05290000  0.28690000  1.0 0.276829763
C  C261  1  0.28300000  0.09380000  0.03810000  1.0 0.24960897
C  C262  1  0.09380000  0.28300000  0.46190000  1.0 0.24960897
C  C263  1  0.71700000  0.90620000  0.96190000  1.0 0.24960897
C  C264  1  0.90620000  0.71700000  0.53810000  1.0 0.24960897
S  S1  1  0.37928000  0.81718000  0.84003000  1.0 -0.0185696754
S  S2  1  0.81718000  0.37928000  0.65997000  1.0 -0.0185696754
S  S3  1  0.62072000  0.18282000  0.15997000  1.0 -0.0185696754
S  S4  1  0.18282000  0.62072000  0.34003000  1.0 -0.0185696754
S  S5  1  0.43710000  0.56122000  0.82410000  1.0 0.0115160582
S  S6  1  0.56122000  0.43710000  0.67590000  1.0 0.0115160582
S  S7  1  0.56290000  0.43878000  0.17590000  1.0 0.0115160582
S  S8  1  0.43878000  0.56290000  0.32410000  1.0 0.0115160582
S  S9  1  0.72540000  0.33056000  0.81414000  1.0 -0.0074423778
S  S10  1  0.33056000  0.72540000  0.68586000  1.0 -0.0074423778
S  S11  1  0.27460000  0.66944000  0.18586000  1.0 -0.0074423778
S  S12  1  0.66944000  0.27460000  0.31414000  1.0 -0.0074423778
S  S13  1  0.91244000  0.25264000  0.86712000  1.0 -0.0029776397
S  S14  1  0.25264000  0.91244000  0.63288000  1.0 -0.0029776397
S  S15  1  0.08756000  0.74736000  0.13288000  1.0 -0.0029776397
S  S16  1  0.74736000  0.08756000  0.36712000  1.0 -0.0029776397
S  S17  1  0.86236000  0.16036000  0.92200000  1.0 -0.0185696754
S  S18  1  0.16036000  0.86236000  0.57800000  1.0 -0.0185696754
S  S19  1  0.13764000  0.83964000  0.07800000  1.0 -0.0185696754
S  S20  1  0.83964000  0.13764000  0.42200000  1.0 -0.0185696754
S  S21  1  0.57809000  0.37489000  0.93731000  1.0 0.0201982488
S  S22  1  0.37489000  0.57809000  0.56269000  1.0 0.0201982488
S  S23  1  0.42191000  0.62511000  0.06269000  1.0 0.0201982488
S  S24  1  0.62511000  0.42191000  0.43731000  1.0 0.0201982488
S  S25  1  0.50176000  0.64580000  0.94826000  1.0 -0.03090352
S  S26  1  0.64580000  0.50176000  0.55174000  1.0 -0.03090352
S  S27  1  0.49824000  0.35420000  0.05174000  1.0 -0.03090352
S  S28  1  0.35420000  0.49824000  0.44826000  1.0 -0.03090352
S  S29  1  0.54423000  0.75989000  0.89534000  1.0 0.0305446221
S  S30  1  0.75989000  0.54423000  0.60466000  1.0 0.0305446221
S  S31  1  0.45577000  0.24011000  0.10466000  1.0 0.0305446221
S  S32  1  0.24011000  0.45577000  0.39534000  1.0 0.0305446221
S  S33  1  0.90899000  0.92919000  0.80833000  1.0 -0.410724928
S  S34  1  0.92919000  0.90899000  0.69167000  1.0 -0.410724928
S  S35  1  0.09101000  0.07081000  0.19167000  1.0 -0.410724928
S  S36  1  0.07081000  0.09101000  0.30833000  1.0 -0.410724928
S  S37  1  0.19975000  0.10895000  0.06150000  1.0 -0.3673644674
S  S38  1  0.10895000  0.19975000  0.43850000  1.0 -0.3673644674
S  S39  1  0.80025000  0.89105000  0.93850000  1.0 -0.3673644674
S  S40  1  0.89105000  0.80025000  0.56150000  1.0 -0.3673644674
N  N1  1  0.25790000  0.89150000  0.75717000  1.0 -0.2022989628
N  N2  1  0.89150000  0.25790000  0.74283000  1.0 -0.2022989628
N  N3  1  0.74210000  0.10850000  0.24283000  1.0 -0.2022989628
N  N4  1  0.10850000  0.74210000  0.25717000  1.0 -0.2022989628
N  N5  1  0.11480000  0.11700000  0.78920000  1.0 -0.2540071693
N  N6  1  0.11700000  0.11480000  0.71080000  1.0 -0.2540071693
N  N7  1  0.88520000  0.88300000  0.21080000  1.0 -0.2540071693
N  N8  1  0.88300000  0.88520000  0.28920000  1.0 -0.2540071693
N  N9  1  0.44580000  0.18900000  0.98825000  1.0 -0.2065213146
N  N10  1  0.18900000  0.44580000  0.51175000  1.0 -0.2065213146
N  N11  1  0.55420000  0.81100000  0.01175000  1.0 -0.2065213146
N  N12  1  0.81100000  0.55420000  0.48825000  1.0 -0.2065213146
N  N13  1  0.38460000  0.01100000  0.96497000  1.0 -0.2065213146
N  N14  1  0.01100000  0.38460000  0.53503000  1.0 -0.2065213146
N  N15  1  0.61540000  0.98900000  0.03503000  1.0 -0.2065213146
N  N16  1  0.98900000  0.61540000  0.46497000  1.0 -0.2065213146
N  N17  1  0.99120000  0.00520000  0.77040000  1.0 -0.410724928
N  N18  1  0.00520000  0.99120000  0.72960000  1.0 -0.410724928
N  N19  1  0.00880000  0.99480000  0.22960000  1.0 -0.410724928
N  N20  1  0.99480000  0.00880000  0.27040000  1.0 -0.410724928
N  N21  1  0.34760000  0.07920000  0.02278000  1.0 -0.4704295841
N  N22  1  0.07920000  0.34760000  0.47722000  1.0 -0.4704295841
N  N23  1  0.65240000  0.92080000  0.97722000  1.0 -0.4704295841
N  N24  1  0.92080000  0.65240000  0.52278000  1.0 -0.4704295841
