# DDEC6 charges by PACMAN v1.1 (https://github.com/mtap-research/PACMAN-charge/)
data_IXAMAW_FSR_pacman
_symmetry_space_group_name_H-M   'P 1'
_cell_length_a   8.72594000
_cell_length_b   8.72594000
_cell_length_c   8.72594000
_cell_angle_alpha   107.72300000
_cell_angle_beta   107.72300000
_cell_angle_gamma   113.02600000
_symmetry_Int_Tables_number   1
_chemical_formula_structural   Fe4P4O17
_chemical_formula_sum   'Fe4 P4 O17'
_cell_volume   509.98472625
_cell_formula_units_Z   1
loop_
 _symmetry_equiv_pos_site_id
 _symmetry_equiv_pos_as_xyz
  1  'x, y, z'
loop_
 _atom_site_type_symbol
 _atom_site_label
 _atom_site_symmetry_multiplicity
 _atom_site_fract_x
 _atom_site_fract_y
 _atom_site_fract_z
 _atom_site_occupancy
 _atom_site_charge
Fe  Fe1  1  0.99962000  0.99962000  0.26884000  1.0 1.3447458506
Fe  Fe2  1  0.26922000  0.00038000  0.00000000  1.0 1.3594782909
Fe  Fe3  1  0.73078000  0.73078000  0.73116000  1.0 1.3594782909
Fe  Fe4  1  0.00038000  0.26922000  0.00000000  1.0 1.3594782909
P  P1  1  0.35460000  0.35460000  0.32620000  1.0 1.4458229701
P  P2  1  0.97160000  0.64540000  0.00000000  1.0 1.4420394659
P  P3  1  0.02840000  0.02840000  0.67380000  1.0 1.4458229701
P  P4  1  0.64540000  0.97160000  0.00000000  1.0 1.4458229701
O  O1  1  0.00000000  0.00000000  0.00000000  1.0 -0.712289238
O  O2  1  0.24850000  0.24850000  0.40520000  1.0 -0.6893238813
O  O3  1  0.15670000  0.75150000  0.00000000  1.0 -0.6893238813
O  O4  1  0.84330000  0.84330000  0.59480000  1.0 -0.6893238813
O  O5  1  0.75150000  0.15670000  0.00000000  1.0 -0.6893238813
O  O6  1  0.24640000  0.41800000  0.21860000  1.0 -0.6781783044
O  O7  1  0.97220000  0.75360000  0.17160000  1.0 -0.6781783044
O  O8  1  0.19940000  0.02780000  0.78140000  1.0 -0.6781783044
O  O9  1  0.58200000  0.80060000  0.82840000  1.0 -0.6781783044
O  O10  1  0.80060000  0.58200000  0.82840000  1.0 -0.6781783044
O  O11  1  0.02780000  0.19940000  0.78140000  1.0 -0.6781783044
O  O12  1  0.75360000  0.97220000  0.17160000  1.0 -0.6781783044
O  O13  1  0.41800000  0.24640000  0.21860000  1.0 -0.6781783044
O  O14  1  0.53320000  0.53320000  0.47640000  1.0 -0.5769194752
O  O15  1  0.94320000  0.46680000  0.00000000  1.0 -0.5769194752
O  O16  1  0.05680000  0.05680000  0.52360000  1.0 -0.5769194752
O  O17  1  0.46680000  0.94320000  0.00000000  1.0 -0.5769194752
