# DDEC6 charges by PACMAN v1.1 (https://github.com/mtap-research/PACMAN-charge/)
data_IXEBEU_FSR_pacman
_symmetry_space_group_name_H-M   'P 1'
_cell_length_a   29.06290000
_cell_length_b   27.49650000
_cell_length_c   11.08260000
_cell_angle_alpha   86.78040000
_cell_angle_beta   70.84070000
_cell_angle_gamma   22.37890000
_symmetry_Int_Tables_number   1
_chemical_formula_structural   CoH36C40(N6O)2
_chemical_formula_sum   'Co2 H72 C80 N24 O4'
_cell_volume   2312.47499795
_cell_formula_units_Z   2
loop_
 _symmetry_equiv_pos_site_id
 _symmetry_equiv_pos_as_xyz
  1  'x, y, z'
loop_
 _atom_site_type_symbol
 _atom_site_label
 _atom_site_symmetry_multiplicity
 _atom_site_fract_x
 _atom_site_fract_y
 _atom_site_fract_z
 _atom_site_occupancy
 _atom_site_charge
Co  Co1  1  0.25000000  0.25000000  0.25000000  1.0 0.4680582741
Co  Co2  1  0.00000000  0.00000000  0.00000000  1.0 0.4680582741
H  H1  1  0.25950000  0.95050000  0.70030000  1.0 0.0967337908
H  H2  1  0.95050000  0.25950000  0.08970000  1.0 0.0967337908
H  H3  1  0.70030000  0.08970000  0.25950000  1.0 0.0967337908
H  H4  1  0.08970000  0.70030000  0.95050000  1.0 0.0967337908
H  H5  1  0.99050000  0.29950000  0.54970000  1.0 0.0967337908
H  H6  1  0.29950000  0.99050000  0.16030000  1.0 0.0967337908
H  H7  1  0.54970000  0.16030000  0.99050000  1.0 0.0967337908
H  H8  1  0.16030000  0.54970000  0.29950000  1.0 0.0967337908
H  H9  1  0.43010000  0.90710000  0.28030000  1.0 0.1238781838
H  H10  1  0.90710000  0.43010000  0.38250000  1.0 0.1238781838
H  H11  1  0.28030000  0.38250000  0.43010000  1.0 0.1238781838
H  H12  1  0.38250000  0.28030000  0.90710000  1.0 0.1238781838
H  H13  1  0.81990000  0.34290000  0.96970000  1.0 0.1238781838
H  H14  1  0.34290000  0.81990000  0.86750000  1.0 0.1238781838
H  H15  1  0.96970000  0.86750000  0.81990000  1.0 0.1238781838
H  H16  1  0.86750000  0.96970000  0.34290000  1.0 0.1238781838
H  H17  1  0.56850000  0.73130000  0.66150000  1.0 0.0894644757
H  H18  1  0.73130000  0.56850000  0.03870000  1.0 0.0894644757
H  H19  1  0.66150000  0.03870000  0.56850000  1.0 0.0894644757
H  H20  1  0.03870000  0.66150000  0.73130000  1.0 0.0894644757
H  H21  1  0.68150000  0.51870000  0.58850000  1.0 0.0894644757
H  H22  1  0.51870000  0.68150000  0.21130000  1.0 0.0894644757
H  H23  1  0.58850000  0.21130000  0.68150000  1.0 0.0894644757
H  H24  1  0.21130000  0.58850000  0.51870000  1.0 0.0894644757
H  H25  1  0.52670000  0.83910000  0.56030000  1.0 0.131157545
H  H26  1  0.83910000  0.52670000  0.07390000  1.0 0.131157545
H  H27  1  0.56030000  0.07390000  0.52670000  1.0 0.131157545
H  H28  1  0.07390000  0.56030000  0.83910000  1.0 0.131157545
H  H29  1  0.72330000  0.41090000  0.68970000  1.0 0.131157545
H  H30  1  0.41090000  0.72330000  0.17610000  1.0 0.131157545
H  H31  1  0.68970000  0.17610000  0.72330000  1.0 0.131157545
H  H32  1  0.17610000  0.68970000  0.41090000  1.0 0.131157545
H  H33  1  0.39240000  0.00820000  0.17080000  1.0 0.0894644757
H  H34  1  0.00820000  0.39240000  0.42860000  1.0 0.0894644757
H  H35  1  0.17080000  0.42860000  0.39240000  1.0 0.0894644757
H  H36  1  0.42860000  0.17080000  0.00820000  1.0 0.0894644757
H  H37  1  0.85760000  0.24180000  0.07920000  1.0 0.0894644757
H  H38  1  0.24180000  0.85760000  0.82140000  1.0 0.0894644757
H  H39  1  0.07920000  0.82140000  0.85760000  1.0 0.0894644757
H  H40  1  0.82140000  0.07920000  0.24180000  1.0 0.0894644757
H  H41  1  0.25860000  0.15520000  0.66200000  1.0 0.131157545
H  H42  1  0.15520000  0.25860000  0.92420000  1.0 0.131157545
H  H43  1  0.66200000  0.92420000  0.25860000  1.0 0.131157545
H  H44  1  0.92420000  0.66200000  0.15520000  1.0 0.131157545
H  H45  1  0.99140000  0.09480000  0.58800000  1.0 0.131157545
H  H46  1  0.09480000  0.99140000  0.32580000  1.0 0.131157545
H  H47  1  0.58800000  0.32580000  0.99140000  1.0 0.131157545
H  H48  1  0.32580000  0.58800000  0.09480000  1.0 0.131157545
H  H49  1  0.22470000  0.25010000  0.54450000  1.0 0.0894644757
H  H50  1  0.25010000  0.22470000  0.98070000  1.0 0.0894644757
H  H51  1  0.54450000  0.98070000  0.22470000  1.0 0.0894644757
H  H52  1  0.98070000  0.54450000  0.25010000  1.0 0.0894644757
H  H53  1  0.02530000  0.99990000  0.70550000  1.0 0.0894644757
H  H54  1  0.99990000  0.02530000  0.26930000  1.0 0.0894644757
H  H55  1  0.70550000  0.26930000  0.02530000  1.0 0.0894644757
H  H56  1  0.26930000  0.70550000  0.99990000  1.0 0.0894644757
H  H57  1  0.93560000  0.53600000  0.54440000  1.0 0.1376207331
H  H58  1  0.53600000  0.93560000  0.98400000  1.0 0.1376207331
H  H59  1  0.54440000  0.98400000  0.93560000  1.0 0.1376207331
H  H60  1  0.98400000  0.54440000  0.53600000  1.0 0.1376207331
H  H61  1  0.31440000  0.71400000  0.70560000  1.0 0.1376207331
H  H62  1  0.71400000  0.31440000  0.26600000  1.0 0.1376207331
H  H63  1  0.70560000  0.26600000  0.31440000  1.0 0.1376207331
H  H64  1  0.26600000  0.70560000  0.71400000  1.0 0.1376207331
H  H65  1  0.94350000  0.57750000  0.50190000  1.0 0.131157545
H  H66  1  0.57750000  0.94350000  0.97710000  1.0 0.131157545
H  H67  1  0.50190000  0.97710000  0.94350000  1.0 0.131157545
H  H68  1  0.97710000  0.50190000  0.57750000  1.0 0.131157545
H  H69  1  0.30650000  0.67250000  0.74810000  1.0 0.131157545
H  H70  1  0.67250000  0.30650000  0.27290000  1.0 0.131157545
H  H71  1  0.74810000  0.27290000  0.30650000  1.0 0.131157545
H  H72  1  0.27290000  0.74810000  0.67250000  1.0 0.131157545
C  C1  1  0.33983000  0.02783000  0.49317000  1.0 0.1115953736
C  C2  1  0.02783000  0.33983000  0.13917000  1.0 0.1115953736
C  C3  1  0.49317000  0.13917000  0.33983000  1.0 0.1115953736
C  C4  1  0.13917000  0.49317000  0.02783000  1.0 0.1115953736
C  C5  1  0.91017000  0.22217000  0.75683000  1.0 0.1115953736
C  C6  1  0.22217000  0.91017000  0.11083000  1.0 0.1115953736
C  C7  1  0.75683000  0.11083000  0.91017000  1.0 0.1115953736
C  C8  1  0.11083000  0.75683000  0.22217000  1.0 0.1115953736
C  C9  1  0.36389000  0.96269000  0.56391000  1.0 0.0328338435
C  C10  1  0.96269000  0.36389000  0.10951000  1.0 0.0328338435
C  C11  1  0.56391000  0.10951000  0.36389000  1.0 0.0328338435
C  C12  1  0.10951000  0.56391000  0.96269000  1.0 0.0328338435
C  C13  1  0.88611000  0.28731000  0.68609000  1.0 0.0328338435
C  C14  1  0.28731000  0.88611000  0.14049000  1.0 0.0328338435
C  C15  1  0.68609000  0.14049000  0.88611000  1.0 0.0328338435
C  C16  1  0.14049000  0.68609000  0.28731000  1.0 0.0328338435
C  C17  1  0.31519000  0.92659000  0.67001000  1.0 -0.0138460929
C  C18  1  0.92659000  0.31519000  0.08821000  1.0 -0.0138460929
C  C19  1  0.67001000  0.08821000  0.31519000  1.0 -0.0138460929
C  C20  1  0.08821000  0.67001000  0.92659000  1.0 -0.0138460929
C  C21  1  0.93481000  0.32341000  0.57999000  1.0 -0.0138460929
C  C22  1  0.32341000  0.93481000  0.16179000  1.0 -0.0138460929
C  C23  1  0.57999000  0.16179000  0.93481000  1.0 -0.0138460929
C  C24  1  0.16179000  0.57999000  0.32341000  1.0 -0.0138460929
C  C25  1  0.28173000  0.99733000  0.61127000  1.0 0.0614305469
C  C26  1  0.99733000  0.28173000  0.10967000  1.0 0.0614305469
C  C27  1  0.61127000  0.10967000  0.28173000  1.0 0.0614305469
C  C28  1  0.10967000  0.61127000  0.99733000  1.0 0.0614305469
C  C29  1  0.96827000  0.25267000  0.63873000  1.0 0.0614305469
C  C30  1  0.25267000  0.96827000  0.14033000  1.0 0.0614305469
C  C31  1  0.63873000  0.14033000  0.96827000  1.0 0.0614305469
C  C32  1  0.14033000  0.63873000  0.25267000  1.0 0.0614305469
C  C33  1  0.38543000  0.97923000  0.33797000  1.0 -0.2103635173
C  C34  1  0.97923000  0.38543000  0.29737000  1.0 -0.2103635173
C  C35  1  0.33797000  0.29737000  0.38543000  1.0 -0.2103635173
C  C36  1  0.29737000  0.33797000  0.97923000  1.0 -0.2103635173
C  C37  1  0.86457000  0.27077000  0.91203000  1.0 -0.2103635173
C  C38  1  0.27077000  0.86457000  0.95263000  1.0 -0.2103635173
C  C39  1  0.91203000  0.95263000  0.86457000  1.0 -0.2103635173
C  C40  1  0.95263000  0.91203000  0.27077000  1.0 -0.2103635173
C  C41  1  0.49612000  0.79792000  0.64728000  1.0 0.0751160318
C  C42  1  0.79792000  0.49612000  0.05868000  1.0 0.0751160318
C  C43  1  0.64728000  0.05868000  0.49612000  1.0 0.0751160318
C  C44  1  0.05868000  0.64728000  0.79792000  1.0 0.0751160318
C  C45  1  0.75388000  0.45208000  0.60272000  1.0 0.0751160318
C  C46  1  0.45208000  0.75388000  0.19132000  1.0 0.0751160318
C  C47  1  0.60272000  0.19132000  0.75388000  1.0 0.0751160318
C  C48  1  0.19132000  0.60272000  0.45208000  1.0 0.0751160318
C  C49  1  0.47145000  0.86285000  0.58595000  1.0 -0.2154541006
C  C50  1  0.86285000  0.47145000  0.07975000  1.0 -0.2103635173
C  C51  1  0.58595000  0.07975000  0.47145000  1.0 -0.2103635173
C  C52  1  0.07975000  0.58595000  0.86285000  1.0 -0.2103635173
C  C53  1  0.77855000  0.38715000  0.66405000  1.0 -0.2103635173
C  C54  1  0.38715000  0.77855000  0.17025000  1.0 -0.2103635173
C  C55  1  0.66405000  0.17025000  0.77855000  1.0 -0.2103635173
C  C56  1  0.17025000  0.66405000  0.38715000  1.0 -0.2103635173
C  C57  1  0.36245000  0.04065000  0.27295000  1.0 0.0614305469
C  C58  1  0.04065000  0.36245000  0.32395000  1.0 0.0614305469
C  C59  1  0.27295000  0.32395000  0.36245000  1.0 0.0614305469
C  C60  1  0.32395000  0.27295000  0.04065000  1.0 0.0614305469
C  C61  1  0.88755000  0.20935000  0.97705000  1.0 0.0614305469
C  C62  1  0.20935000  0.88755000  0.92605000  1.0 0.0614305469
C  C63  1  0.97705000  0.92605000  0.88755000  1.0 0.0614305469
C  C64  1  0.92605000  0.97705000  0.20935000  1.0 0.0614305469
C  C65  1  0.28435000  0.12515000  0.56305000  1.0 -0.187758713
C  C66  1  0.12515000  0.28435000  0.02745000  1.0 -0.187758713
C  C67  1  0.56305000  0.02745000  0.28435000  1.0 -0.187758713
C  C68  1  0.02745000  0.56305000  0.12515000  1.0 -0.187758713
C  C69  1  0.96565000  0.12485000  0.68695000  1.0 -0.187758713
C  C70  1  0.12485000  0.96565000  0.22255000  1.0 -0.187758713
C  C71  1  0.68695000  0.22255000  0.96565000  1.0 -0.187758713
C  C72  1  0.22255000  0.68695000  0.12485000  1.0 -0.187758713
C  C73  1  0.26465000  0.18185000  0.49115000  1.0 0.0363787613
C  C74  1  0.18185000  0.26465000  0.06235000  1.0 0.0363787613
C  C75  1  0.49115000  0.06235000  0.26465000  1.0 0.0363787613
C  C76  1  0.06235000  0.49115000  0.18185000  1.0 0.0363787613
C  C77  1  0.98535000  0.06815000  0.75885000  1.0 0.0363787613
C  C78  1  0.06815000  0.98535000  0.18765000  1.0 0.0363787613
C  C79  1  0.75885000  0.18765000  0.98535000  1.0 0.0363787613
C  C80  1  0.18765000  0.75885000  0.06815000  1.0 0.0363787613
N  N1  1  0.30026000  0.14316000  0.34824000  1.0 -0.2954378864
N  N2  1  0.14316000  0.30026000  0.20834000  1.0 -0.2954378864
N  N3  1  0.34824000  0.20834000  0.30026000  1.0 -0.2954378864
N  N4  1  0.20834000  0.34824000  0.14316000  1.0 -0.2942005297
N  N5  1  0.94974000  0.10684000  0.90176000  1.0 -0.2942005297
N  N6  1  0.10684000  0.94974000  0.04166000  1.0 -0.2942005297
N  N7  1  0.90176000  0.04166000  0.94974000  1.0 -0.2942005297
N  N8  1  0.04166000  0.90176000  0.10684000  1.0 -0.2942005297
N  N9  1  0.15932000  0.11224000  0.60376000  1.0 -0.1149589932
N  N10  1  0.11224000  0.15932000  0.12468000  1.0 -0.1149589932
N  N11  1  0.60376000  0.12468000  0.15932000  1.0 -0.1154098278
N  N12  1  0.12468000  0.60376000  0.11224000  1.0 -0.1154098278
N  N13  1  0.09068000  0.13776000  0.64624000  1.0 -0.1154098278
N  N14  1  0.13776000  0.09068000  0.12532000  1.0 -0.1149589932
N  N15  1  0.64624000  0.12532000  0.09068000  1.0 -0.1149589932
N  N16  1  0.12532000  0.64624000  0.13776000  1.0 -0.1149589932
N  N17  1  0.42370000  0.82570000  0.68510000  1.0 -0.2388717337
N  N18  1  0.82570000  0.42370000  0.06550000  1.0 -0.2388717337
N  N19  1  0.68510000  0.06550000  0.42370000  1.0 -0.2388717337
N  N20  1  0.06550000  0.68510000  0.82570000  1.0 -0.2388717337
N  N21  1  0.82630000  0.42430000  0.56490000  1.0 -0.2388717337
N  N22  1  0.42430000  0.82630000  0.18450000  1.0 -0.2388717337
N  N23  1  0.56490000  0.18450000  0.82630000  1.0 -0.2388717337
N  N24  1  0.18450000  0.56490000  0.42430000  1.0 -0.2388717337
O  O1  1  0.99460000  0.50540000  0.50540000  1.0 -0.4885319015
O  O2  1  0.50540000  0.99460000  0.99460000  1.0 -0.4885319015
O  O3  1  0.25540000  0.74460000  0.74460000  1.0 -0.4885319015
O  O4  1  0.74460000  0.25540000  0.25540000  1.0 -0.4885319015
