# DDEC6 charges by PACMAN v1.1 (https://github.com/mtap-research/PACMAN-charge/)
data_IXECET_FSR_pacman
_symmetry_space_group_name_H-M   'P 1'
_cell_length_a   18.68420000
_cell_length_b   18.68420000
_cell_length_c   9.40800000
_cell_angle_alpha   90.00000000
_cell_angle_beta   90.00000000
_cell_angle_gamma   90.00000000
_symmetry_Int_Tables_number   1
_chemical_formula_structural   Al12NiP12C24(NO14)4
_chemical_formula_sum   'Al24 Ni2 P24 C48 N8 O112'
_cell_volume   3284.32649325
_cell_formula_units_Z   2
loop_
 _symmetry_equiv_pos_site_id
 _symmetry_equiv_pos_as_xyz
  1  'x, y, z'
loop_
 _atom_site_type_symbol
 _atom_site_label
 _atom_site_symmetry_multiplicity
 _atom_site_fract_x
 _atom_site_fract_y
 _atom_site_fract_z
 _atom_site_occupancy
 _atom_site_charge
Al  Al1  1  0.79424000  0.41453000  0.15671000  1.0 1.7645902723
Al  Al2  1  0.91453000  0.70576000  0.15671000  1.0 1.7645902723
Al  Al3  1  0.08547000  0.29424000  0.15671000  1.0 1.7645902723
Al  Al4  1  0.29424000  0.91453000  0.84329000  1.0 1.7671834915
Al  Al5  1  0.70576000  0.08547000  0.84329000  1.0 1.7671834915
Al  Al6  1  0.58547000  0.79424000  0.84329000  1.0 1.7671834915
Al  Al7  1  0.41453000  0.20576000  0.84329000  1.0 1.7671834915
Al  Al8  1  0.20576000  0.58547000  0.15671000  1.0 1.7645902723
Al  Al9  1  0.58414000  0.31542000  0.08060000  1.0 1.7308656662
Al  Al10  1  0.81542000  0.91586000  0.08060000  1.0 1.7308656662
Al  Al11  1  0.18458000  0.08414000  0.08060000  1.0 1.7308656662
Al  Al12  1  0.08414000  0.81542000  0.91940000  1.0 1.7308656662
Al  Al13  1  0.91586000  0.18458000  0.91940000  1.0 1.7308656662
Al  Al14  1  0.68458000  0.58414000  0.91940000  1.0 1.7308656662
Al  Al15  1  0.31542000  0.41586000  0.91940000  1.0 1.7308656662
Al  Al16  1  0.41586000  0.68458000  0.08060000  1.0 1.7308656662
Al  Al17  1  0.68361000  0.30063000  0.66453000  1.0 1.7379111736
Al  Al18  1  0.80063000  0.81639000  0.66453000  1.0 1.7379111736
Al  Al19  1  0.19937000  0.18361000  0.66453000  1.0 1.7379111736
Al  Al20  1  0.18361000  0.80063000  0.33547000  1.0 1.7379111736
Al  Al21  1  0.81639000  0.19937000  0.33547000  1.0 1.7379111736
Al  Al22  1  0.69937000  0.68361000  0.33547000  1.0 1.7379111736
Al  Al23  1  0.30063000  0.31639000  0.33547000  1.0 1.7379111736
Al  Al24  1  0.31639000  0.69937000  0.66453000  1.0 1.7379111736
Ni  Ni1  1  0.00000000  0.50000000  0.64310000  1.0 0.3911942779
Ni  Ni2  1  0.50000000  0.00000000  0.35690000  1.0 0.3911942779
P  P1  1  0.69340000  0.31421000  0.33485000  1.0 1.5610810607
P  P2  1  0.81421000  0.80660000  0.33485000  1.0 1.5610810607
P  P3  1  0.18579000  0.19340000  0.33485000  1.0 1.566940841
P  P4  1  0.19340000  0.81421000  0.66515000  1.0 1.566940841
P  P5  1  0.80660000  0.18579000  0.66515000  1.0 1.566940841
P  P6  1  0.68579000  0.69340000  0.66515000  1.0 1.566940841
P  P7  1  0.31421000  0.30660000  0.66515000  1.0 1.566940841
P  P8  1  0.30660000  0.68579000  0.33485000  1.0 1.5610810607
P  P9  1  0.80057000  0.58333000  0.16026000  1.0 1.5539979428
P  P10  1  0.08333000  0.69943000  0.16026000  1.0 1.5539979428
P  P11  1  0.91667000  0.30057000  0.16026000  1.0 1.5539979428
P  P12  1  0.30057000  0.08333000  0.83974000  1.0 1.5539979428
P  P13  1  0.69943000  0.91667000  0.83974000  1.0 1.5539979428
P  P14  1  0.41667000  0.80057000  0.83974000  1.0 1.5539979428
P  P15  1  0.58333000  0.19943000  0.83974000  1.0 1.5539979428
P  P16  1  0.19943000  0.41667000  0.16026000  1.0 1.5539979428
P  P17  1  0.68222000  0.41652000  0.90426000  1.0 1.5610810607
P  P18  1  0.91652000  0.81778000  0.90426000  1.0 1.5610810607
P  P19  1  0.08348000  0.18222000  0.90426000  1.0 1.5610810607
P  P20  1  0.18222000  0.91652000  0.09574000  1.0 1.5610810607
P  P21  1  0.81778000  0.08348000  0.09574000  1.0 1.5610810607
P  P22  1  0.58348000  0.68222000  0.09574000  1.0 1.5610810607
P  P23  1  0.41652000  0.31778000  0.09574000  1.0 1.5610810607
P  P24  1  0.31778000  0.58348000  0.90426000  1.0 1.5610810607
C  C1  1  0.90190000  0.59410000  0.78460000  1.0 -0.0973204938
C  C2  1  0.09410000  0.59810000  0.78460000  1.0 -0.0973204938
C  C3  1  0.90590000  0.40190000  0.78460000  1.0 -0.0973204938
C  C4  1  0.40190000  0.09410000  0.21540000  1.0 -0.0973204938
C  C5  1  0.59810000  0.90590000  0.21540000  1.0 -0.0973204938
C  C6  1  0.40590000  0.90190000  0.21540000  1.0 -0.0973204938
C  C7  1  0.59410000  0.09810000  0.21540000  1.0 -0.0973204938
C  C8  1  0.09810000  0.40590000  0.78460000  1.0 -0.0973204938
C  C9  1  0.85210000  0.55040000  0.56020000  1.0 0.1004561312
C  C10  1  0.05040000  0.64790000  0.56020000  1.0 0.1004561312
C  C11  1  0.94960000  0.35210000  0.56020000  1.0 0.1004561312
C  C12  1  0.35210000  0.05040000  0.43980000  1.0 0.1004561312
C  C13  1  0.64790000  0.94960000  0.43980000  1.0 0.1004561312
C  C14  1  0.44960000  0.85210000  0.43980000  1.0 0.1004561312
C  C15  1  0.55040000  0.14790000  0.43980000  1.0 0.1004561312
C  C16  1  0.14790000  0.44960000  0.56020000  1.0 0.1004561312
C  C17  1  0.85760000  0.54000000  0.69280000  1.0 0.0871134899
C  C18  1  0.04000000  0.64240000  0.69280000  1.0 0.0871134899
C  C19  1  0.96000000  0.35760000  0.69280000  1.0 0.0871134899
C  C20  1  0.35760000  0.04000000  0.30720000  1.0 0.0871134899
C  C21  1  0.64240000  0.96000000  0.30720000  1.0 0.0871134899
C  C22  1  0.46000000  0.85760000  0.30720000  1.0 0.0871134899
C  C23  1  0.54000000  0.14240000  0.30720000  1.0 0.0871134899
C  C24  1  0.14240000  0.46000000  0.69280000  1.0 0.0871134899
C  C25  1  0.95300000  0.64090000  0.55190000  1.0 0.1084539756
C  C26  1  0.14090000  0.54700000  0.55190000  1.0 0.1084539756
C  C27  1  0.85910000  0.45300000  0.55190000  1.0 0.1084539756
C  C28  1  0.45300000  0.14090000  0.44810000  1.0 0.1084539756
C  C29  1  0.54700000  0.85910000  0.44810000  1.0 0.1084539756
C  C30  1  0.35910000  0.95300000  0.44810000  1.0 0.1084539756
C  C31  1  0.64090000  0.04700000  0.44810000  1.0 0.1084539756
C  C32  1  0.04700000  0.35910000  0.55190000  1.0 0.1084539756
C  C33  1  0.84460000  0.48760000  0.63960000  1.0 0.0205848841
C  C34  1  0.98760000  0.65540000  0.63960000  1.0 0.0205848841
C  C35  1  0.01240000  0.34460000  0.63960000  1.0 0.0205848841
C  C36  1  0.34460000  0.98760000  0.36040000  1.0 0.0205848841
C  C37  1  0.65540000  0.01240000  0.36040000  1.0 0.0205848841
C  C38  1  0.51240000  0.84460000  0.36040000  1.0 0.0205848841
C  C39  1  0.48760000  0.15540000  0.36040000  1.0 0.0205848841
C  C40  1  0.15540000  0.51240000  0.63960000  1.0 0.0205848841
C  C41  1  0.90180000  0.59320000  0.48090000  1.0 -0.0589235294
C  C42  1  0.09320000  0.59820000  0.48090000  1.0 -0.0589235294
C  C43  1  0.90680000  0.40180000  0.48090000  1.0 -0.0589235294
C  C44  1  0.40180000  0.09320000  0.51910000  1.0 -0.0589235294
C  C45  1  0.59820000  0.90680000  0.51910000  1.0 -0.0589235294
C  C46  1  0.40680000  0.90180000  0.51910000  1.0 -0.0589235294
C  C47  1  0.59320000  0.09820000  0.51910000  1.0 -0.0589235294
C  C48  1  0.09820000  0.40680000  0.48090000  1.0 -0.0589235294
N  N1  1  0.92540000  0.57490000  0.64320000  1.0 0.0871134899
N  N2  1  0.07490000  0.57460000  0.64320000  1.0 0.0871134899
N  N3  1  0.92510000  0.42540000  0.64320000  1.0 0.0871134899
N  N4  1  0.42540000  0.07490000  0.35680000  1.0 0.0871134899
N  N5  1  0.57460000  0.92510000  0.35680000  1.0 0.0871134899
N  N6  1  0.42510000  0.92540000  0.35680000  1.0 0.0871134899
N  N7  1  0.57490000  0.07460000  0.35680000  1.0 0.0871134899
N  N8  1  0.07460000  0.42510000  0.64320000  1.0 0.0871134899
O  O1  1  0.66880000  0.32340000  0.48710000  1.0 -0.8511304629
O  O2  1  0.82340000  0.83120000  0.48710000  1.0 -0.8511304629
O  O3  1  0.17660000  0.16880000  0.48710000  1.0 -0.8511304629
O  O4  1  0.16880000  0.82340000  0.51290000  1.0 -0.8511304629
O  O5  1  0.83120000  0.17660000  0.51290000  1.0 -0.8511304629
O  O6  1  0.67660000  0.66880000  0.51290000  1.0 -0.8511304629
O  O7  1  0.32340000  0.33120000  0.51290000  1.0 -0.8511304629
O  O8  1  0.33120000  0.67660000  0.48710000  1.0 -0.8511304629
O  O9  1  0.62680000  0.30840000  0.24230000  1.0 -0.8601076344
O  O10  1  0.80840000  0.87320000  0.24230000  1.0 -0.8601076344
O  O11  1  0.19160000  0.12680000  0.24230000  1.0 -0.8511304629
O  O12  1  0.12680000  0.80840000  0.75770000  1.0 -0.8511304629
O  O13  1  0.87320000  0.19160000  0.75770000  1.0 -0.8511304629
O  O14  1  0.69160000  0.62680000  0.75770000  1.0 -0.8511304629
O  O15  1  0.30840000  0.37320000  0.75770000  1.0 -0.8511304629
O  O16  1  0.37320000  0.69160000  0.24230000  1.0 -0.8511304629
O  O17  1  0.73880000  0.37860000  0.29330000  1.0 -0.8982230355
O  O18  1  0.87860000  0.76120000  0.29330000  1.0 -0.8982230355
O  O19  1  0.12140000  0.23880000  0.29330000  1.0 -0.8982230355
O  O20  1  0.23880000  0.87860000  0.70670000  1.0 -0.8982230355
O  O21  1  0.76120000  0.12140000  0.70670000  1.0 -0.8982230355
O  O22  1  0.62140000  0.73880000  0.70670000  1.0 -0.8982230355
O  O23  1  0.37860000  0.26120000  0.70670000  1.0 -0.8982230355
O  O24  1  0.26120000  0.62140000  0.29330000  1.0 -0.8982230355
O  O25  1  0.73490000  0.24510000  0.32170000  1.0 -0.8982230355
O  O26  1  0.74510000  0.76510000  0.32170000  1.0 -0.8982230355
O  O27  1  0.25490000  0.23490000  0.32170000  1.0 -0.8982230355
O  O28  1  0.23490000  0.74510000  0.67830000  1.0 -0.8982230355
O  O29  1  0.76510000  0.25490000  0.67830000  1.0 -0.8982230355
O  O30  1  0.75490000  0.73490000  0.67830000  1.0 -0.8982230355
O  O31  1  0.24510000  0.26510000  0.67830000  1.0 -0.8982230355
O  O32  1  0.26510000  0.75490000  0.32170000  1.0 -0.8982230355
O  O33  1  0.74930000  0.40530000  0.98860000  1.0 -0.8982230355
O  O34  1  0.90530000  0.75070000  0.98860000  1.0 -0.8982230355
O  O35  1  0.09470000  0.24930000  0.98860000  1.0 -0.8982230355
O  O36  1  0.24930000  0.90530000  0.01140000  1.0 -0.8982230355
O  O37  1  0.75070000  0.09470000  0.01140000  1.0 -0.8982230355
O  O38  1  0.59470000  0.74930000  0.01140000  1.0 -0.8982230355
O  O39  1  0.40530000  0.25070000  0.01140000  1.0 -0.8982230355
O  O40  1  0.25070000  0.59470000  0.98860000  1.0 -0.8982230355
O  O41  1  0.81290000  0.50600000  0.19170000  1.0 -0.8601076344
O  O42  1  0.00600000  0.68710000  0.19170000  1.0 -0.8601076344
O  O43  1  0.99400000  0.31290000  0.19170000  1.0 -0.8601076344
O  O44  1  0.31290000  0.00600000  0.80830000  1.0 -0.8601076344
O  O45  1  0.68710000  0.99400000  0.80830000  1.0 -0.8601076344
O  O46  1  0.49400000  0.81290000  0.80830000  1.0 -0.8601076344
O  O47  1  0.50600000  0.18710000  0.80830000  1.0 -0.8601076344
O  O48  1  0.18710000  0.49400000  0.19170000  1.0 -0.8601076344
O  O49  1  0.87170000  0.62330000  0.15550000  1.0 -0.8723800148
O  O50  1  0.12330000  0.62830000  0.15550000  1.0 -0.8723800148
O  O51  1  0.87670000  0.37170000  0.15550000  1.0 -0.8723800148
O  O52  1  0.37170000  0.12330000  0.84450000  1.0 -0.8723800148
O  O53  1  0.62830000  0.87670000  0.84450000  1.0 -0.8723800148
O  O54  1  0.37670000  0.87170000  0.84450000  1.0 -0.8723800148
O  O55  1  0.62330000  0.12830000  0.84450000  1.0 -0.8723800148
O  O56  1  0.12830000  0.37670000  0.15550000  1.0 -0.8723800148
O  O57  1  0.76400000  0.59220000  0.01730000  1.0 -0.8799961395
O  O58  1  0.09220000  0.73600000  0.01730000  1.0 -0.8799961395
O  O59  1  0.90780000  0.26400000  0.01730000  1.0 -0.8799961395
O  O60  1  0.26400000  0.09220000  0.98270000  1.0 -0.8799961395
O  O61  1  0.73600000  0.90780000  0.98270000  1.0 -0.8799961395
O  O62  1  0.40780000  0.76400000  0.98270000  1.0 -0.8799961395
O  O63  1  0.59220000  0.23600000  0.98270000  1.0 -0.8799961395
O  O64  1  0.23600000  0.40780000  0.01730000  1.0 -0.8799961395
O  O65  1  0.75480000  0.61380000  0.27810000  1.0 -0.8723800148
O  O66  1  0.11380000  0.74520000  0.27810000  1.0 -0.8723800148
O  O67  1  0.88620000  0.25480000  0.27810000  1.0 -0.8799961395
O  O68  1  0.25480000  0.11380000  0.72190000  1.0 -0.8799961395
O  O69  1  0.74520000  0.88620000  0.72190000  1.0 -0.8799961395
O  O70  1  0.38620000  0.75480000  0.72190000  1.0 -0.8799961395
O  O71  1  0.61380000  0.24520000  0.72190000  1.0 -0.8799961395
O  O72  1  0.24520000  0.38620000  0.27810000  1.0 -0.8723800148
O  O73  1  0.61650000  0.38760000  0.98270000  1.0 -0.8982230355
O  O74  1  0.88760000  0.88350000  0.98270000  1.0 -0.8982230355
O  O75  1  0.11240000  0.11650000  0.98270000  1.0 -0.8982230355
O  O76  1  0.11650000  0.88760000  0.01730000  1.0 -0.8982230355
O  O77  1  0.88350000  0.11240000  0.01730000  1.0 -0.8982230355
O  O78  1  0.61240000  0.61650000  0.01730000  1.0 -0.8982230355
O  O79  1  0.38760000  0.38350000  0.01730000  1.0 -0.8982230355
O  O80  1  0.38350000  0.61240000  0.98270000  1.0 -0.8982230355
O  O81  1  0.66940000  0.49460000  0.87720000  1.0 -0.8511304629
O  O82  1  0.99460000  0.83060000  0.87720000  1.0 -0.8511304629
O  O83  1  0.00540000  0.16940000  0.87720000  1.0 -0.8511304629
O  O84  1  0.16940000  0.99460000  0.12280000  1.0 -0.8511304629
O  O85  1  0.83060000  0.00540000  0.12280000  1.0 -0.8511304629
O  O86  1  0.50540000  0.66940000  0.12280000  1.0 -0.8511304629
O  O87  1  0.49460000  0.33060000  0.12280000  1.0 -0.8511304629
O  O88  1  0.33060000  0.50540000  0.87720000  1.0 -0.8511304629
O  O89  1  0.68990000  0.37970000  0.76050000  1.0 -0.8601076344
O  O90  1  0.87970000  0.81010000  0.76050000  1.0 -0.8601076344
O  O91  1  0.12030000  0.18990000  0.76050000  1.0 -0.8601076344
O  O92  1  0.18990000  0.87970000  0.23950000  1.0 -0.8511304629
O  O93  1  0.81010000  0.12030000  0.23950000  1.0 -0.8511304629
O  O94  1  0.62030000  0.68990000  0.23950000  1.0 -0.8511304629
O  O95  1  0.37970000  0.31010000  0.23950000  1.0 -0.8511304629
O  O96  1  0.31010000  0.62030000  0.76050000  1.0 -0.8601076344
O  O97  1  0.02150000  0.46760000  0.00200000  1.0 0.31146712
O  O98  1  0.96760000  0.47850000  0.00200000  1.0 0.31146712
O  O99  1  0.03240000  0.52150000  0.00200000  1.0 0.31146712
O  O100  1  0.52150000  0.96760000  0.99800000  1.0 0.3158887415
O  O101  1  0.47850000  0.03240000  0.99800000  1.0 0.3158887415
O  O102  1  0.53240000  0.02150000  0.99800000  1.0 0.3158887415
O  O103  1  0.46760000  0.97850000  0.99800000  1.0 0.3158887415
O  O104  1  0.97850000  0.53240000  0.00200000  1.0 0.31146712
O  O105  1  0.99800000  0.48930000  0.28060000  1.0 -0.079669843
O  O106  1  0.98930000  0.50200000  0.28060000  1.0 -0.079669843
O  O107  1  0.01070000  0.49800000  0.28060000  1.0 -0.079669843
O  O108  1  0.49800000  0.98930000  0.71940000  1.0 -0.079669843
O  O109  1  0.50200000  0.01070000  0.71940000  1.0 -0.079669843
O  O110  1  0.51070000  0.99800000  0.71940000  1.0 -0.079669843
O  O111  1  0.48930000  0.00200000  0.71940000  1.0 -0.079669843
O  O112  1  0.00200000  0.51070000  0.28060000  1.0 -0.079669843
