# DDEC6 charges by PACMAN v1.1 (https://github.com/mtap-research/PACMAN-charge/)
data_IXEDUK_ion_pacman
_symmetry_space_group_name_H-M   'P 1'
_cell_length_a   24.04600000
_cell_length_b   24.15730000
_cell_length_c   24.38340000
_cell_angle_alpha   83.86100000
_cell_angle_beta   118.16300000
_cell_angle_gamma   118.29900000
_symmetry_Int_Tables_number   1
_chemical_formula_structural   Yb3H96C122S2N24O30F7
_chemical_formula_sum   'Yb6 H192 C244 S4 N48 O60 F14'
_cell_volume   10869.49910244
_cell_formula_units_Z   2
loop_
 _symmetry_equiv_pos_site_id
 _symmetry_equiv_pos_as_xyz
  1  'x, y, z'
loop_
 _atom_site_type_symbol
 _atom_site_label
 _atom_site_symmetry_multiplicity
 _atom_site_fract_x
 _atom_site_fract_y
 _atom_site_fract_z
 _atom_site_occupancy
 _atom_site_charge
Yb  Yb1  1  0.65862000  0.21992000  0.36347000  1.0 1.9695459428
Yb  Yb2  1  0.34138000  0.78008000  0.63653000  1.0 1.9695459428
Yb  Yb3  1  0.75340000  0.77969000  0.23044000  1.0 1.9695459428
Yb  Yb4  1  0.24660000  0.22031000  0.76956000  1.0 1.9695459428
Yb  Yb5  1  0.14750000  0.35268000  0.20892000  1.0 1.9695459428
Yb  Yb6  1  0.85250000  0.64732000  0.79108000  1.0 1.9695459428
H  H1  1  0.79720000  0.40830000  0.42350000  1.0 0.1114530767
H  H2  1  0.20280000  0.59170000  0.57650000  1.0 0.1114530767
H  H3  1  0.82630000  0.50160000  0.37680000  1.0 0.1308441507
H  H4  1  0.17370000  0.49840000  0.62320000  1.0 0.1308441507
H  H5  1  0.83400000  0.59510000  0.36010000  1.0 0.1308441507
H  H6  1  0.16600000  0.40490000  0.63990000  1.0 0.1308441507
H  H7  1  0.59000000  0.34320000  0.30810000  1.0 0.1114530767
H  H8  1  0.41000000  0.65680000  0.69190000  1.0 0.1114530767
H  H9  1  0.61270000  0.43280000  0.26000000  1.0 0.1308441507
H  H10  1  0.38730000  0.56720000  0.74000000  1.0 0.1308441507
H  H11  1  0.64910000  0.50060000  0.19740000  1.0 0.1308441507
H  H12  1  0.35090000  0.49940000  0.80260000  1.0 0.1308441507
H  H13  1  0.85770000  0.68820000  0.31850000  1.0 0.1199267076
H  H14  1  0.14230000  0.31180000  0.68150000  1.0 0.1199267076
H  H15  1  0.67300000  0.59460000  0.15690000  1.0 0.1199267076
H  H16  1  0.32700000  0.40540000  0.84310000  1.0 0.1199267076
H  H17  1  0.91160000  0.56060000  0.73090000  1.0 0.1199267076
H  H18  1  0.08840000  0.43940000  0.26910000  1.0 0.1199267076
H  H19  1  0.88980000  0.47030000  0.68370000  1.0 0.1308441507
H  H20  1  0.11020000  0.52970000  0.31630000  1.0 0.1308441507
H  H21  1  0.71690000  0.53600000  0.60680000  1.0 0.1199267076
H  H22  1  0.28310000  0.46400000  0.39320000  1.0 0.1199267076
H  H23  1  0.68670000  0.44070000  0.56020000  1.0 0.138201894
H  H24  1  0.31330000  0.55930000  0.43980000  1.0 0.138201894
H  H25  1  0.67060000  0.32610000  0.57600000  1.0 0.138201894
H  H26  1  0.32940000  0.67390000  0.42400000  1.0 0.138201894
H  H27  1  0.86520000  0.42440000  0.58220000  1.0 0.138201894
H  H28  1  0.13480000  0.57560000  0.41780000  1.0 0.138201894
H  H29  1  0.83730000  0.33890000  0.52180000  1.0 0.1199267076
H  H30  1  0.16270000  0.66110000  0.47820000  1.0 0.1199267076
H  H31  1  0.64830000  0.24050000  0.51680000  1.0 0.1199267076
H  H32  1  0.35170000  0.75950000  0.48320000  1.0 0.1199267076
H  H33  1  0.90220000  0.81140000  0.60530000  1.0 0.1308441507
H  H34  1  0.09780000  0.18860000  0.39470000  1.0 0.1308441507
H  H35  1  0.90020000  0.79200000  0.69880000  1.0 0.1199267076
H  H36  1  0.09980000  0.20800000  0.30120000  1.0 0.1199267076
H  H37  1  0.70650000  0.65740000  0.51590000  1.0 0.1308441507
H  H38  1  0.29350000  0.34260000  0.48410000  1.0 0.1308441507
H  H39  1  0.70670000  0.64190000  0.61090000  1.0 0.1308441507
H  H40  1  0.29330000  0.35810000  0.38910000  1.0 0.1308441507
H  H41  1  0.73810000  0.65510000  0.44470000  1.0 0.1199267076
H  H42  1  0.26190000  0.34490000  0.55530000  1.0 0.1199267076
H  H43  1  0.74710000  0.67230000  0.35410000  1.0 0.1199267076
H  H44  1  0.25290000  0.32770000  0.64590000  1.0 0.1199267076
H  H45  1  0.88850000  0.85480000  0.42180000  1.0 0.1114530767
H  H46  1  0.11150000  0.14520000  0.57820000  1.0 0.1114530767
H  H47  1  0.88370000  0.84100000  0.51330000  1.0 0.1199267076
H  H48  1  0.11630000  0.15900000  0.48670000  1.0 0.1199267076
H  H49  1  0.74990000  0.58720000  0.88270000  1.0 0.1114530767
H  H50  1  0.25010000  0.41280000  0.11730000  1.0 0.1114530767
H  H51  1  0.72570000  0.62080000  0.94980000  1.0 0.1308441507
H  H52  1  0.27430000  0.37920000  0.05020000  1.0 0.1308441507
H  H53  1  0.93570000  0.74970000  0.05010000  1.0 0.1308441507
H  H54  1  0.06430000  0.25030000  0.94990000  1.0 0.1308441507
H  H55  1  0.95890000  0.71220000  0.98270000  1.0 0.1199267076
H  H56  1  0.04110000  0.28780000  0.01730000  1.0 0.1199267076
H  H57  1  0.96290000  0.33960000  0.06180000  1.0 0.1199267076
H  H58  1  0.03710000  0.66040000  0.93820000  1.0 0.1199267076
H  H59  1  0.93130000  0.39370000  0.97830000  1.0 0.1308441507
H  H60  1  0.06870000  0.60630000  0.02170000  1.0 0.1308441507
H  H61  1  0.09220000  0.55740000  0.09090000  1.0 0.1308441507
H  H62  1  0.90780000  0.44260000  0.90910000  1.0 0.1308441507
H  H63  1  0.12300000  0.50120000  0.17650000  1.0 0.1199267076
H  H64  1  0.87700000  0.49880000  0.82350000  1.0 0.1199267076
H  H65  1  0.36230000  0.40980000  0.31460000  1.0 0.1199267076
H  H66  1  0.63770000  0.59020000  0.68540000  1.0 0.1199267076
H  H67  1  0.43740000  0.36600000  0.35970000  1.0 0.1308441507
H  H68  1  0.56260000  0.63400000  0.64030000  1.0 0.1308441507
H  H69  1  0.29940000  0.22490000  0.20770000  1.0 0.1308441507
H  H70  1  0.70060000  0.77510000  0.79230000  1.0 0.1308441507
H  H71  1  0.23000000  0.27360000  0.16740000  1.0 0.1199267076
H  H72  1  0.77000000  0.72640000  0.83260000  1.0 0.1199267076
H  H73  1  0.23120000  0.50430000  0.13510000  1.0 0.1199267076
H  H74  1  0.76880000  0.49570000  0.86490000  1.0 0.1199267076
H  H75  1  0.34150000  0.56410000  0.13260000  1.0 0.1308441507
H  H76  1  0.65850000  0.43590000  0.86740000  1.0 0.1308441507
H  H77  1  0.44580000  0.56680000  0.32200000  1.0 0.138201894
H  H78  1  0.55420000  0.43320000  0.67800000  1.0 0.138201894
H  H79  1  0.33420000  0.50670000  0.31760000  1.0 0.1199267076
H  H80  1  0.66580000  0.49330000  0.68240000  1.0 0.1199267076
H  H81  1  0.92860000  0.25780000  0.13800000  1.0 0.1114530767
H  H82  1  0.07140000  0.74220000  0.86200000  1.0 0.1114530767
H  H83  1  0.84270000  0.26210000  0.15400000  1.0 0.1199267076
H  H84  1  0.15730000  0.73790000  0.84600000  1.0 0.1199267076
H  H85  1  0.98940000  0.32090000  0.34130000  1.0 0.1308441507
H  H86  1  0.01060000  0.67910000  0.65870000  1.0 0.1308441507
H  H87  1  0.06810000  0.30540000  0.32160000  1.0 0.1199267076
H  H88  1  0.93190000  0.69460000  0.67840000  1.0 0.1199267076
H  H89  1  0.14200000  0.18560000  0.22000000  1.0 0.1199267076
H  H90  1  0.85800000  0.81440000  0.78000000  1.0 0.1199267076
H  H91  1  0.06140000  0.08660000  0.23030000  1.0 0.138201894
H  H92  1  0.93860000  0.91340000  0.76970000  1.0 0.138201894
H  H93  1  0.89600000  0.10270000  0.08840000  1.0 0.1308441507
H  H94  1  0.10400000  0.89730000  0.91160000  1.0 0.1308441507
H  H95  1  0.97490000  0.19990000  0.08090000  1.0 0.1199267076
H  H96  1  0.02510000  0.80010000  0.91910000  1.0 0.1199267076
H  H97  1  0.04160000  0.09250000  0.64750000  1.0 0.1114530767
H  H98  1  0.95840000  0.90750000  0.35250000  1.0 0.1114530767
H  H99  1  0.94240000  0.09770000  0.56680000  1.0 0.1308441507
H  H100  1  0.05760000  0.90230000  0.43320000  1.0 0.1308441507
H  H101  1  0.98960000  0.24610000  0.67090000  1.0 0.138201894
H  H102  1  0.01040000  0.75390000  0.32910000  1.0 0.138201894
H  H103  1  0.08500000  0.23620000  0.75250000  1.0 0.1199267076
H  H104  1  0.91500000  0.76380000  0.24750000  1.0 0.1199267076
H  H105  1  0.76010000  0.90430000  0.10780000  1.0 0.1199267076
H  H106  1  0.23990000  0.09570000  0.89220000  1.0 0.1199267076
H  H107  1  0.83910000  0.99130000  0.08580000  1.0 0.1308441507
H  H108  1  0.16090000  0.00870000  0.91420000  1.0 0.1308441507
H  H109  1  0.97740000  0.04690000  0.27170000  1.0 0.1308441507
H  H110  1  0.02260000  0.95310000  0.72830000  1.0 0.1308441507
H  H111  1  0.89140000  0.96290000  0.29140000  1.0 0.1114530767
H  H112  1  0.10860000  0.03710000  0.70860000  1.0 0.1114530767
H  H113  1  0.80750000  0.91780000  0.35460000  1.0 0.1199267076
H  H114  1  0.19250000  0.08220000  0.64540000  1.0 0.1199267076
H  H115  1  0.78310000  0.00010000  0.35390000  1.0 0.1308441507
H  H116  1  0.21690000  0.99990000  0.64610000  1.0 0.1308441507
H  H117  1  0.57760000  0.88590000  0.22400000  1.0 0.1308441507
H  H118  1  0.42240000  0.11410000  0.77600000  1.0 0.1308441507
H  H119  1  0.60800000  0.80690000  0.22780000  1.0 0.1199267076
H  H120  1  0.39200000  0.19310000  0.77220000  1.0 0.1199267076
H  H121  1  0.86350000  0.84030000  0.13490000  1.0 0.1308441507
H  H122  1  0.13650000  0.15970000  0.86510000  1.0 0.1308441507
H  H123  1  0.89890000  0.80260000  0.08210000  1.0 0.1308441507
H  H124  1  0.10110000  0.19740000  0.91790000  1.0 0.1308441507
H  H125  1  0.70940000  0.63840000  0.01760000  1.0 0.1308441507
H  H126  1  0.29060000  0.36160000  0.98240000  1.0 0.1308441507
H  H127  1  0.67570000  0.67930000  0.06900000  1.0 0.1114530767
H  H128  1  0.32430000  0.32070000  0.93100000  1.0 0.1114530767
H  H129  1  0.64270000  0.71420000  0.31530000  1.0 0.1199267076
H  H130  1  0.35730000  0.28580000  0.68470000  1.0 0.1199267076
H  H131  1  0.53060000  0.66610000  0.30880000  1.0 0.138201894
H  H132  1  0.46940000  0.33390000  0.69120000  1.0 0.138201894
H  H133  1  0.44830000  0.55370000  0.15050000  1.0 0.1308441507
H  H134  1  0.55170000  0.44630000  0.84950000  1.0 0.1308441507
H  H135  1  0.56100000  0.60080000  0.15960000  1.0 0.1114530767
H  H136  1  0.43900000  0.39920000  0.84040000  1.0 0.1114530767
H  H137  1  0.35970000  0.14130000  0.88050000  1.0 0.1199267076
H  H138  1  0.64030000  0.85870000  0.11950000  1.0 0.1199267076
H  H139  1  0.41750000  0.13250000  0.98700000  1.0 0.1308441507
H  H140  1  0.58250000  0.86750000  0.01300000  1.0 0.1308441507
H  H141  1  0.49030000  0.32150000  0.03030000  1.0 0.1308441507
H  H142  1  0.50970000  0.67850000  0.96970000  1.0 0.1308441507
H  H143  1  0.43340000  0.32570000  0.92360000  1.0 0.1114530767
H  H144  1  0.56660000  0.67430000  0.07640000  1.0 0.1114530767
H  H145  1  0.88310000  0.30030000  0.47440000  1.0 0.1114530767
H  H146  1  0.11690000  0.69970000  0.52560000  1.0 0.1114530767
H  H147  1  0.96550000  0.28630000  0.56500000  1.0 0.138201894
H  H148  1  0.03450000  0.71370000  0.43500000  1.0 0.138201894
H  H149  1  0.82840000  0.09560000  0.51820000  1.0 0.1308441507
H  H150  1  0.17160000  0.90440000  0.48180000  1.0 0.1308441507
H  H151  1  0.74710000  0.11540000  0.43340000  1.0 0.1199267076
H  H152  1  0.25290000  0.88460000  0.56660000  1.0 0.1199267076
H  H153  1  0.74300000  0.16210000  0.29950000  1.0 0.1199267076
H  H154  1  0.25700000  0.83790000  0.70050000  1.0 0.1199267076
H  H155  1  0.76280000  0.07520000  0.30590000  1.0 0.1308441507
H  H156  1  0.23720000  0.92480000  0.69410000  1.0 0.1308441507
H  H157  1  0.55390000  0.95540000  0.25410000  1.0 0.138201894
H  H158  1  0.44610000  0.04460000  0.74590000  1.0 0.138201894
H  H159  1  0.53760000  0.04290000  0.25310000  1.0 0.1199267076
H  H160  1  0.46240000  0.95710000  0.74690000  1.0 0.1199267076
H  H161  1  0.58480000  0.29110000  0.42980000  1.0 0.1114530767
H  H162  1  0.41520000  0.70890000  0.57020000  1.0 0.1114530767
H  H163  1  0.50610000  0.33120000  0.38940000  1.0 0.138201894
H  H164  1  0.49390000  0.66880000  0.61060000  1.0 0.138201894
H  H165  1  0.36180000  0.17830000  0.25500000  1.0 0.1308441507
H  H166  1  0.63820000  0.82170000  0.74500000  1.0 0.1308441507
H  H167  1  0.44030000  0.13800000  0.29580000  1.0 0.1308441507
H  H168  1  0.55970000  0.86200000  0.70420000  1.0 0.1308441507
H  H169  1  0.84810000  0.35780000  0.37170000  1.0 0.1308441507
H  H170  1  0.15190000  0.64220000  0.62830000  1.0 0.1308441507
H  H171  1  0.92970000  0.35950000  0.34530000  1.0 0.1308441507
H  H172  1  0.07030000  0.64050000  0.65470000  1.0 0.1308441507
H  H173  1  0.76270000  0.23730000  0.18480000  1.0 0.1199267076
H  H174  1  0.23730000  0.76270000  0.81520000  1.0 0.1199267076
H  H175  1  0.68210000  0.23620000  0.21440000  1.0 0.1199267076
H  H176  1  0.31790000  0.76380000  0.78560000  1.0 0.1199267076
H  H177  1  0.67800000  0.12650000  0.50510000  1.0 0.1199267076
H  H178  1  0.32200000  0.87350000  0.49490000  1.0 0.1199267076
H  H179  1  0.50110000  0.03920000  0.34230000  1.0 0.1199267076
H  H180  1  0.49890000  0.96080000  0.65770000  1.0 0.1199267076
H  H181  1  0.43730000  0.98310000  0.39690000  1.0 0.138201894
H  H182  1  0.56270000  0.01690000  0.60310000  1.0 0.138201894
H  H183  1  0.61440000  0.07360000  0.55890000  1.0 0.138201894
H  H184  1  0.38560000  0.92640000  0.44110000  1.0 0.138201894
H  H185  1  0.61780000  0.31250000  0.22220000  1.0 0.1199267076
H  H186  1  0.38220000  0.68750000  0.77780000  1.0 0.1199267076
H  H187  1  0.57630000  0.31100000  0.11660000  1.0 0.1308441507
H  H188  1  0.42370000  0.68900000  0.88340000  1.0 0.1308441507
H  H189  1  0.42100000  0.13300000  0.08610000  1.0 0.1308441507
H  H190  1  0.57900000  0.86700000  0.91390000  1.0 0.1308441507
H  H191  1  0.46760000  0.13310000  0.19440000  1.0 0.1199267076
H  H192  1  0.53240000  0.86690000  0.80560000  1.0 0.1199267076
C  C1  1  0.76000000  0.41400000  0.38950000  1.0 -0.0298238103
C  C2  1  0.24000000  0.58600000  0.61050000  1.0 -0.0298238103
C  C3  1  0.77750000  0.46980000  0.36220000  1.0 -0.1799841081
C  C4  1  0.22250000  0.53020000  0.63780000  1.0 -0.1799841081
C  C5  1  0.72240000  0.47740000  0.31380000  1.0 0.0993517396
C  C6  1  0.27760000  0.52260000  0.68620000  1.0 0.0993517396
C  C7  1  0.80080000  0.59470000  0.31840000  1.0 -0.1588101278
C  C8  1  0.19920000  0.40530000  0.68160000  1.0 -0.1529122668
C  C9  1  0.63820000  0.37590000  0.32180000  1.0 -0.0426395933
C  C10  1  0.36180000  0.62410000  0.67820000  1.0 -0.0496833214
C  C11  1  0.65170000  0.42870000  0.29370000  1.0 -0.1904142207
C  C12  1  0.34830000  0.57130000  0.70630000  1.0 -0.1904142207
C  C13  1  0.73900000  0.53690000  0.28410000  1.0 0.0993517396
C  C14  1  0.26100000  0.46310000  0.71590000  1.0 0.0993517396
C  C15  1  0.69150000  0.53870000  0.22260000  1.0 -0.1799841081
C  C16  1  0.30850000  0.46130000  0.77740000  1.0 -0.1799841081
C  C17  1  0.81490000  0.64980000  0.29450000  1.0 -0.0298238103
C  C18  1  0.18510000  0.35020000  0.70550000  1.0 -0.0298238103
C  C19  1  0.70530000  0.59390000  0.19870000  1.0 -0.0496833214
C  C20  1  0.29470000  0.40610000  0.80130000  1.0 -0.0496833214
C  C21  1  0.86650000  0.53630000  0.69480000  1.0 -0.0426395933
C  C22  1  0.13350000  0.46370000  0.30520000  1.0 -0.0426395933
C  C23  1  0.85340000  0.48250000  0.66780000  1.0 -0.1799841081
C  C24  1  0.14660000  0.51750000  0.33220000  1.0 -0.1799841081
C  C25  1  0.75140000  0.52150000  0.62240000  1.0 -0.0298238103
C  C26  1  0.24860000  0.47850000  0.37760000  1.0 -0.0298238103
C  C27  1  0.73370000  0.46550000  0.59420000  1.0 -0.1799841081
C  C28  1  0.26630000  0.53450000  0.40580000  1.0 -0.1799841081
C  C29  1  0.78460000  0.44410000  0.61530000  1.0 0.0897293262
C  C30  1  0.21540000  0.55590000  0.38470000  1.0 0.0897293262
C  C31  1  0.76770000  0.38660000  0.58250000  1.0 0.0897293262
C  C32  1  0.23230000  0.61340000  0.41750000  1.0 0.0897293262
C  C33  1  0.70500000  0.33050000  0.56450000  1.0 -0.1799841081
C  C34  1  0.29500000  0.66950000  0.43550000  1.0 -0.1799841081
C  C35  1  0.81920000  0.38770000  0.56730000  1.0 -0.1799841081
C  C36  1  0.18080000  0.61230000  0.43270000  1.0 -0.1799841081
C  C37  1  0.80300000  0.33730000  0.53200000  1.0 -0.0426395933
C  C38  1  0.19700000  0.66270000  0.46800000  1.0 -0.0426395933
C  C39  1  0.69170000  0.27950000  0.52880000  1.0 -0.0298238103
C  C40  1  0.30830000  0.72050000  0.47120000  1.0 -0.0298238103
C  C41  1  0.86200000  0.77560000  0.60590000  1.0 -0.1799841081
C  C42  1  0.13800000  0.22440000  0.39410000  1.0 -0.1799841081
C  C43  1  0.86060000  0.76410000  0.66110000  1.0 -0.0496833214
C  C44  1  0.13940000  0.23590000  0.33890000  1.0 -0.0496833214
C  C45  1  0.74690000  0.68530000  0.55320000  1.0 -0.1588101278
C  C46  1  0.25310000  0.31470000  0.44680000  1.0 -0.1529122668
C  C47  1  0.74750000  0.67600000  0.60950000  1.0 -0.0298238103
C  C48  1  0.25250000  0.32400000  0.39050000  1.0 -0.0298238103
C  C49  1  0.80870000  0.74560000  0.49060000  1.0 0.1114530767
C  C50  1  0.19130000  0.25440000  0.50940000  1.0 0.1114530767
C  C51  1  0.80580000  0.73580000  0.55110000  1.0 0.0993517396
C  C52  1  0.19420000  0.26420000  0.44890000  1.0 0.0993517396
C  C53  1  0.76950000  0.69640000  0.44110000  1.0 -0.1529122668
C  C54  1  0.23050000  0.30360000  0.55890000  1.0 -0.1529122668
C  C55  1  0.77510000  0.70630000  0.38780000  1.0 -0.0203328635
C  C56  1  0.22490000  0.29370000  0.61220000  1.0 -0.0203328635
C  C57  1  0.85870000  0.81390000  0.42750000  1.0 -0.0426395933
C  C58  1  0.14130000  0.18610000  0.57250000  1.0 -0.0426395933
C  C59  1  0.85480000  0.80570000  0.48080000  1.0 -0.1977180001
C  C60  1  0.14520000  0.19430000  0.51920000  1.0 -0.1977180001
C  C61  1  0.78800000  0.61990000  0.91730000  1.0 -0.0496833214
C  C62  1  0.21200000  0.38010000  0.08270000  1.0 -0.0496833214
C  C63  1  0.77360000  0.64120000  0.95610000  1.0 -0.1799841081
C  C64  1  0.22640000  0.35880000  0.04390000  1.0 -0.1799841081
C  C65  1  0.82600000  0.69110000  0.00380000  1.0 0.0993517396
C  C66  1  0.17400000  0.30890000  0.99620000  1.0 0.0993517396
C  C67  1  0.89730000  0.71690000  0.01560000  1.0 -0.1904142207
C  C68  1  0.10270000  0.28310000  0.98440000  1.0 -0.1904142207
C  C69  1  0.91110000  0.69390000  0.97610000  1.0 -0.0601973827
C  C70  1  0.08890000  0.30610000  0.02390000  1.0 -0.0601973827
C  C71  1  0.98990000  0.38470000  0.06810000  1.0 -0.0601973827
C  C72  1  0.01010000  0.61530000  0.93190000  1.0 -0.0601973827
C  C73  1  0.97100000  0.41670000  0.01820000  1.0 -0.1904142207
C  C74  1  0.02900000  0.58330000  0.98180000  1.0 -0.1977180001
C  C75  1  0.01000000  0.48310000  0.02610000  1.0 0.0897293262
C  C76  1  0.99000000  0.51690000  0.97390000  1.0 0.0897293262
C  C77  1  0.06490000  0.51230000  0.08410000  1.0 -0.1904142207
C  C78  1  0.93510000  0.48770000  0.91590000  1.0 -0.1977180001
C  C79  1  0.08420000  0.47920000  0.13600000  1.0 -0.0426395933
C  C80  1  0.91580000  0.52080000  0.86400000  1.0 -0.0426395933
C  C81  1  0.35060000  0.37220000  0.29310000  1.0 -0.0145749536
C  C82  1  0.64940000  0.62780000  0.70690000  1.0 -0.0145749536
C  C83  1  0.39490000  0.34600000  0.32040000  1.0 -0.1799841081
C  C84  1  0.60510000  0.65400000  0.67960000  1.0 -0.1799841081
C  C85  1  0.37690000  0.28780000  0.28940000  1.0 0.0897293262
C  C86  1  0.62310000  0.71220000  0.71060000  1.0 0.0897293262
C  C87  1  0.31360000  0.26280000  0.23070000  1.0 -0.1799841081
C  C88  1  0.68640000  0.73720000  0.76930000  1.0 -0.1799841081
C  C89  1  0.27290000  0.29180000  0.20670000  1.0 -0.0601973827
C  C90  1  0.72710000  0.70820000  0.79330000  1.0 -0.0601973827
C  C91  1  0.27560000  0.51680000  0.17270000  1.0 -0.0298238103
C  C92  1  0.72440000  0.48320000  0.82730000  1.0 -0.0298238103
C  C93  1  0.34120000  0.55210000  0.17090000  1.0 -0.2085006202
C  C94  1  0.65880000  0.44790000  0.82910000  1.0 -0.2085006202
C  C95  1  0.40640000  0.56920000  0.22740000  1.0 0.0993517396
C  C96  1  0.59360000  0.43080000  0.77260000  1.0 0.0993517396
C  C97  1  0.40290000  0.55350000  0.28280000  1.0 -0.1709349969
C  C98  1  0.59710000  0.44650000  0.71720000  1.0 -0.1709349969
C  C99  1  0.33660000  0.51860000  0.28000000  1.0 -0.0426395933
C  C100  1  0.66340000  0.48140000  0.72000000  1.0 -0.0426395933
C  C101  1  0.93950000  0.26860000  0.17940000  1.0 -0.0426395933
C  C102  1  0.06050000  0.73140000  0.82060000  1.0 -0.0426395933
C  C103  1  0.88880000  0.27220000  0.18850000  1.0 -0.2085006202
C  C104  1  0.11120000  0.72780000  0.81150000  1.0 -0.2085006202
C  C105  1  0.90670000  0.29120000  0.25030000  1.0 0.0897293262
C  C106  1  0.09330000  0.70880000  0.74970000  1.0 0.0993517396
C  C107  1  0.97530000  0.30590000  0.30000000  1.0 -0.1709349969
C  C108  1  0.02470000  0.69410000  0.70000000  1.0 -0.1709349969
C  C109  1  0.02260000  0.29820000  0.28790000  1.0 -0.0426395933
C  C110  1  0.97740000  0.70180000  0.71210000  1.0 -0.0426395933
C  C111  1  0.09150000  0.16930000  0.19460000  1.0 -0.0426395933
C  C112  1  0.90850000  0.83070000  0.80540000  1.0 -0.0426395933
C  C113  1  0.04350000  0.11080000  0.20080000  1.0 -0.1904142207
C  C114  1  0.95650000  0.88920000  0.79920000  1.0 -0.1904142207
C  C115  1  0.97070000  0.08770000  0.16480000  1.0 0.0897293262
C  C116  1  0.02930000  0.91230000  0.83520000  1.0 0.0897293262
C  C117  1  0.94600000  0.12050000  0.11730000  1.0 -0.1709349969
C  C118  1  0.05400000  0.87950000  0.88270000  1.0 -0.1709349969
C  C119  1  0.99240000  0.17680000  0.11240000  1.0 -0.0601973827
C  C120  1  0.00760000  0.82320000  0.88760000  1.0 -0.0601973827
C  C121  1  0.03060000  0.12400000  0.65220000  1.0 -0.0601973827
C  C122  1  0.96940000  0.87600000  0.34780000  1.0 -0.0601973827
C  C123  1  0.97330000  0.12850000  0.60370000  1.0 -0.1904142207
C  C124  1  0.02670000  0.87150000  0.39630000  1.0 -0.1904142207
C  C125  1  0.96020000  0.17790000  0.60800000  1.0 0.0993517396
C  C126  1  0.03980000  0.82210000  0.39200000  1.0 0.0993517396
C  C127  1  0.00030000  0.21490000  0.66450000  1.0 -0.1904142207
C  C128  1  0.99970000  0.78510000  0.33550000  1.0 -0.1904142207
C  C129  1  0.05680000  0.20850000  0.71370000  1.0 -0.0203328635
C  C130  1  0.94320000  0.79150000  0.28630000  1.0 -0.0203328635
C  C131  1  0.80420000  0.93480000  0.14120000  1.0 -0.0496833214
C  C132  1  0.19580000  0.06520000  0.85880000  1.0 -0.0496833214
C  C133  1  0.85120000  0.98510000  0.12830000  1.0 -0.1799841081
C  C134  1  0.14880000  0.01490000  0.87170000  1.0 -0.1799841081
C  C135  1  0.91770000  0.02840000  0.17710000  1.0 0.0993517396
C  C136  1  0.08230000  0.97160000  0.82290000  1.0 0.0993517396
C  C137  1  0.93230000  0.01870000  0.23760000  1.0 -0.1904142207
C  C138  1  0.06770000  0.98130000  0.76240000  1.0 -0.1904142207
C  C139  1  0.88170000  0.96840000  0.24930000  1.0 -0.0426395933
C  C140  1  0.11830000  0.03160000  0.75070000  1.0 -0.0426395933
C  C141  1  0.76020000  0.91170000  0.32790000  1.0 -0.0496833214
C  C142  1  0.23980000  0.08830000  0.67210000  1.0 -0.0496833214
C  C143  1  0.74610000  0.96100000  0.32700000  1.0 -0.1977180001
C  C144  1  0.25390000  0.03900000  0.67300000  1.0 -0.1977180001
C  C145  1  0.67870000  0.95330000  0.28710000  1.0 0.0993517396
C  C146  1  0.32130000  0.04670000  0.71290000  1.0 0.0993517396
C  C147  1  0.62570000  0.89390000  0.25070000  1.0 -0.1904142207
C  C148  1  0.37430000  0.10610000  0.74930000  1.0 -0.1904142207
C  C149  1  0.64340000  0.84690000  0.25380000  1.0 -0.0298238103
C  C150  1  0.35660000  0.15310000  0.74620000  1.0 -0.0298238103
C  C151  1  0.83180000  0.79960000  0.10960000  1.0 -0.0601973827
C  C152  1  0.16820000  0.20040000  0.89040000  1.0 -0.0601973827
C  C153  1  0.85270000  0.77720000  0.07910000  1.0 -0.1709349969
C  C154  1  0.14730000  0.22280000  0.92090000  1.0 -0.1709349969
C  C155  1  0.80560000  0.71470000  0.04170000  1.0 0.0897293262
C  C156  1  0.19440000  0.28530000  0.95830000  1.0 0.0897293262
C  C157  1  0.74110000  0.68030000  0.04040000  1.0 -0.1709349969
C  C158  1  0.25890000  0.31970000  0.95960000  1.0 -0.1709349969
C  C159  1  0.72140000  0.70470000  0.07110000  1.0 -0.0496833214
C  C160  1  0.27860000  0.29530000  0.92890000  1.0 -0.0496833214
C  C161  1  0.60310000  0.68030000  0.28230000  1.0 -0.0298238103
C  C162  1  0.39690000  0.31970000  0.71770000  1.0 -0.0298238103
C  C163  1  0.53680000  0.65230000  0.27800000  1.0 -0.1709349969
C  C164  1  0.46320000  0.34770000  0.72200000  1.0 -0.1709349969
C  C165  1  0.47670000  0.60290000  0.22820000  1.0 0.0897293262
C  C166  1  0.52330000  0.39710000  0.77180000  1.0 0.0897293262
C  C167  1  0.48780000  0.58580000  0.18520000  1.0 -0.1709349969
C  C168  1  0.51220000  0.41420000  0.81480000  1.0 -0.1709349969
C  C169  1  0.55460000  0.61370000  0.19060000  1.0 -0.0812689218
C  C170  1  0.44540000  0.38630000  0.80940000  1.0 -0.0812689218
C  C171  1  0.38720000  0.17750000  0.91180000  1.0 -0.0426395933
C  C172  1  0.61280000  0.82250000  0.08820000  1.0 -0.0426395933
C  C173  1  0.42000000  0.17190000  0.97490000  1.0 -0.1977180001
C  C174  1  0.58000000  0.82810000  0.02510000  1.0 -0.1977180001
C  C175  1  0.45760000  0.22580000  0.02140000  1.0 0.0993517396
C  C176  1  0.54240000  0.77420000  0.97860000  1.0 0.0993517396
C  C177  1  0.46360000  0.28410000  0.00060000  1.0 -0.1904142207
C  C178  1  0.53640000  0.71590000  0.99940000  1.0 -0.1904142207
C  C179  1  0.43070000  0.28670000  0.93750000  1.0 -0.070093822
C  C180  1  0.56930000  0.71330000  0.06250000  1.0 -0.070093822
C  C181  1  0.87220000  0.25850000  0.48450000  1.0 -0.0496833214
C  C182  1  0.12780000  0.74150000  0.51550000  1.0 -0.0496833214
C  C183  1  0.92100000  0.25070000  0.53790000  1.0 -0.1588101278
C  C184  1  0.07900000  0.74930000  0.46210000  1.0 -0.1588101278
C  C185  1  0.90460000  0.18880000  0.55280000  1.0 0.0993517396
C  C186  1  0.09540000  0.81120000  0.44720000  1.0 0.0993517396
C  C187  1  0.83960000  0.13810000  0.51090000  1.0 -0.1799841081
C  C188  1  0.16040000  0.86190000  0.48910000  1.0 -0.1799841081
C  C189  1  0.79300000  0.15000000  0.45990000  1.0 -0.0601973827
C  C190  1  0.20700000  0.85000000  0.54010000  1.0 -0.0601973827
C  C191  1  0.70520000  0.11990000  0.29190000  1.0 -0.0496833214
C  C192  1  0.29480000  0.88010000  0.70810000  1.0 -0.0496833214
C  C193  1  0.71600000  0.06780000  0.29460000  1.0 -0.1799841081
C  C194  1  0.28400000  0.93220000  0.70540000  1.0 -0.1904142207
C  C195  1  0.66230000  0.00660000  0.28180000  1.0 0.0993517396
C  C196  1  0.33770000  0.99340000  0.71820000  1.0 0.0993517396
C  C197  1  0.59340000  0.99720000  0.26480000  1.0 -0.1904142207
C  C198  1  0.40660000  0.00280000  0.73520000  1.0 -0.1904142207
C  C199  1  0.58390000  0.04920000  0.26390000  1.0 -0.0298238103
C  C200  1  0.41610000  0.95080000  0.73610000  1.0 -0.0298238103
C  C201  1  0.53910000  0.26780000  0.39390000  1.0 -0.0298238103
C  C202  1  0.46090000  0.73220000  0.60610000  1.0 -0.0298238103
C  C203  1  0.49230000  0.29160000  0.36970000  1.0 -0.1904142207
C  C204  1  0.50770000  0.70840000  0.63030000  1.0 -0.1904142207
C  C205  1  0.42430000  0.25940000  0.31630000  1.0 0.0897293262
C  C206  1  0.57570000  0.74060000  0.68370000  1.0 0.0897293262
C  C207  1  0.40750000  0.20200000  0.29080000  1.0 -0.1709349969
C  C208  1  0.59250000  0.79800000  0.70920000  1.0 -0.1709349969
C  C209  1  0.45360000  0.17780000  0.31470000  1.0 -0.0601973827
C  C210  1  0.54640000  0.82220000  0.68530000  1.0 -0.0601973827
C  C211  1  0.83130000  0.33270000  0.33420000  1.0 -0.0426395933
C  C212  1  0.16870000  0.66730000  0.66580000  1.0 -0.0426395933
C  C213  1  0.87950000  0.33333333  0.31870000  1.0 -0.1588101278
C  C214  1  0.12050000  0.66666667  0.68130000  1.0 -0.1588101278
C  C215  1  0.78080000  0.26090000  0.22360000  1.0 -0.1977180001
C  C216  1  0.21920000  0.73910000  0.77640000  1.0 -0.1977180001
C  C217  1  0.85530000  0.29570000  0.26320000  1.0 0.0897293262
C  C218  1  0.14470000  0.70430000  0.73680000  1.0 0.0897293262
C  C219  1  0.73270000  0.26070000  0.24080000  1.0 -0.0496833214
C  C220  1  0.26730000  0.73930000  0.75920000  1.0 -0.0496833214
C  C221  1  0.62800000  0.09700000  0.48250000  1.0 -0.0426395933
C  C222  1  0.37200000  0.90300000  0.51750000  1.0 -0.0426395933
C  C223  1  0.52490000  0.04580000  0.38700000  1.0 -0.0203328635
C  C224  1  0.47510000  0.95420000  0.61300000  1.0 -0.0203328635
C  C225  1  0.48750000  0.01180000  0.41980000  1.0 -0.1799841081
C  C226  1  0.51250000  0.98820000  0.58020000  1.0 -0.1799841081
C  C227  1  0.52080000  0.01900000  0.48260000  1.0 0.0993517396
C  C228  1  0.47920000  0.98100000  0.51740000  1.0 0.0993517396
C  C229  1  0.59100000  0.06440000  0.51440000  1.0 -0.1904142207
C  C230  1  0.40900000  0.93560000  0.48560000  1.0 -0.1904142207
C  C231  1  0.57670000  0.27540000  0.19400000  1.0 -0.0601973827
C  C232  1  0.42330000  0.72460000  0.80600000  1.0 -0.0601973827
C  C233  1  0.55150000  0.27490000  0.13180000  1.0 -0.1799841081
C  C234  1  0.44850000  0.72510000  0.86820000  1.0 -0.1799841081
C  C235  1  0.49020000  0.22280000  0.08960000  1.0 0.0897293262
C  C236  1  0.50980000  0.77720000  0.91040000  1.0 0.0897293262
C  C237  1  0.46130000  0.17070000  0.11390000  1.0 -0.1977180001
C  C238  1  0.53870000  0.82930000  0.88610000  1.0 -0.1977180001
C  C239  1  0.48850000  0.17050000  0.17830000  1.0 -0.0496833214
C  C240  1  0.51150000  0.82950000  0.82170000  1.0 -0.0496833214
C  C241  1  0.60150000  0.50510000  0.37640000  1.0 0.3093518218
C  C242  1  0.39850000  0.49490000  0.62360000  1.0 0.3170604554
C  C243  1  0.87350000  0.58240000  0.52330000  1.0 0.1769666073
C  C244  1  0.12650000  0.41760000  0.47670000  1.0 0.1769666073
S  S1  1  0.57700000  0.53360000  0.42340000  1.0 0.8572123868
S  S2  1  0.42300000  0.46640000  0.57660000  1.0 0.8572123868
S  S3  1  0.93800000  0.64360000  0.49870000  1.0 1.0409993154
S  S4  1  0.06200000  0.35640000  0.50130000  1.0 1.0409993154
N  N1  1  0.59370000  0.08710000  0.41950000  1.0 0.2902807367
N  N2  1  0.40630000  0.91290000  0.58050000  1.0 0.2902807367
N  N3  1  0.52110000  0.21220000  0.36760000  1.0 0.3274197055
N  N4  1  0.47890000  0.78780000  0.63240000  1.0 0.3274197055
N  N5  1  0.54380000  0.22330000  0.21700000  1.0 0.2987782452
N  N6  1  0.45620000  0.77670000  0.78300000  1.0 0.2987782452
N  N7  1  0.63810000  0.10800000  0.27780000  1.0 0.2987782452
N  N8  1  0.36190000  0.89200000  0.72220000  1.0 0.2987782452
N  N9  1  0.69250000  0.36960000  0.36840000  1.0 0.280014239
N  N10  1  0.30750000  0.63040000  0.63160000  1.0 0.280014239
N  N11  1  0.75940000  0.29600000  0.29570000  1.0 0.3274197055
N  N12  1  0.24060000  0.70400000  0.70430000  1.0 0.3274197055
N  N13  1  0.80830000  0.20890000  0.44470000  1.0 0.3093518218
N  N14  1  0.19170000  0.79110000  0.55530000  1.0 0.3093518218
N  N15  1  0.73790000  0.28450000  0.51140000  1.0 0.2987782452
N  N16  1  0.26210000  0.71550000  0.48860000  1.0 0.2987782452
N  N17  1  0.76610000  0.64900000  0.23490000  1.0 0.3093518218
N  N18  1  0.23390000  0.35100000  0.76510000  1.0 0.3093518218
N  N19  1  0.82070000  0.76460000  0.38240000  1.0 0.2902807367
N  N20  1  0.17930000  0.23540000  0.61760000  1.0 0.2902807367
N  N21  1  0.61240000  0.65980000  0.23950000  1.0 0.3093518218
N  N22  1  0.38760000  0.34020000  0.76050000  1.0 0.3093518218
N  N23  1  0.70950000  0.85680000  0.29270000  1.0 0.2902807367
N  N24  1  0.29050000  0.14320000  0.70730000  1.0 0.2902807367
N  N25  1  0.39420000  0.23410000  0.89480000  1.0 0.2987782452
N  N26  1  0.60580000  0.76590000  0.10520000  1.0 0.2902807367
N  N27  1  0.81910000  0.92710000  0.20180000  1.0 0.2902807367
N  N28  1  0.18090000  0.07290000  0.79820000  1.0 0.2902807367
N  N29  1  0.76360000  0.76320000  0.10430000  1.0 0.2987782452
N  N30  1  0.23640000  0.23680000  0.89570000  1.0 0.2987782452
N  N31  1  0.07160000  0.16490000  0.70720000  1.0 0.2987782452
N  N32  1  0.92840000  0.83510000  0.29280000  1.0 0.2902807367
N  N33  1  0.27570000  0.50120000  0.22580000  1.0 0.2987782452
N  N34  1  0.72430000  0.49880000  0.77420000  1.0 0.2987782452
N  N35  1  0.85670000  0.64550000  0.92810000  1.0 0.3093518218
N  N36  1  0.14330000  0.35450000  0.07190000  1.0 0.3093518218
N  N37  1  0.29220000  0.34710000  0.23780000  1.0 0.2902807367
N  N38  1  0.70780000  0.65290000  0.76220000  1.0 0.2902807367
N  N39  1  0.06520000  0.20230000  0.15200000  1.0 0.2987782452
N  N40  1  0.93480000  0.79770000  0.84800000  1.0 0.2987782452
N  N41  1  0.80470000  0.71440000  0.66310000  1.0 0.3093518218
N  N42  1  0.19530000  0.28560000  0.33690000  1.0 0.3093518218
N  N43  1  0.00340000  0.28010000  0.22760000  1.0 0.3093518218
N  N44  1  0.99660000  0.71990000  0.77240000  1.0 0.3093518218
N  N45  1  0.81670000  0.55670000  0.67170000  1.0 0.3170604554
N  N46  1  0.18330000  0.44330000  0.32830000  1.0 0.3170604554
N  N47  1  0.04470000  0.41500000  0.12470000  1.0 0.3093518218
N  N48  1  0.95530000  0.58500000  0.87530000  1.0 0.3170604554
O  O1  1  0.63020000  0.11910000  0.38790000  1.0 -0.6482097583
O  O2  1  0.36980000  0.88090000  0.61210000  1.0 -0.6482097583
O  O3  1  0.56690000  0.19000000  0.38900000  1.0 -0.5791390019
O  O4  1  0.43310000  0.81000000  0.61100000  1.0 -0.5791390019
O  O5  1  0.56540000  0.22590000  0.27910000  1.0 -0.6282898563
O  O6  1  0.43460000  0.77410000  0.72090000  1.0 -0.6282898563
O  O7  1  0.62700000  0.15850000  0.27660000  1.0 -0.6482097583
O  O8  1  0.37300000  0.84150000  0.72340000  1.0 -0.6482097583
O  O9  1  0.67930000  0.31680000  0.39670000  1.0 -0.6560109037
O  O10  1  0.32070000  0.68320000  0.60330000  1.0 -0.6560109037
O  O11  1  0.71400000  0.29520000  0.31220000  1.0 -0.5991706098
O  O12  1  0.28600000  0.70480000  0.68780000  1.0 -0.5991706098
O  O13  1  0.76420000  0.21980000  0.39190000  1.0 -0.608840308
O  O14  1  0.23580000  0.78020000  0.60810000  1.0 -0.608840308
O  O15  1  0.72150000  0.23650000  0.47410000  1.0 -0.5991706098
O  O16  1  0.27850000  0.76350000  0.52590000  1.0 -0.608840308
O  O17  1  0.77860000  0.70370000  0.21130000  1.0 -0.6201002749
O  O18  1  0.22140000  0.29630000  0.78870000  1.0 -0.6201002749
O  O19  1  0.82880000  0.77300000  0.33100000  1.0 -0.6282898563
O  O20  1  0.17120000  0.22700000  0.66900000  1.0 -0.6282898563
O  O21  1  0.67750000  0.68300000  0.24670000  1.0 -0.585640915
O  O22  1  0.32250000  0.31700000  0.75330000  1.0 -0.585640915
O  O23  1  0.72450000  0.80920000  0.29670000  1.0 -0.6201002749
O  O24  1  0.27550000  0.19080000  0.70330000  1.0 -0.6201002749
O  O25  1  0.36410000  0.23960000  0.83430000  1.0 -0.5991706098
O  O26  1  0.63590000  0.76040000  0.16570000  1.0 -0.5991706098
O  O27  1  0.76900000  0.88030000  0.21430000  1.0 -0.6282898563
O  O28  1  0.23100000  0.11970000  0.78570000  1.0 -0.6282898563
O  O29  1  0.74170000  0.78670000  0.13160000  1.0 -0.5991706098
O  O30  1  0.25830000  0.21330000  0.86840000  1.0 -0.5991706098
O  O31  1  0.12730000  0.15960000  0.75250000  1.0 -0.608840308
O  O32  1  0.87270000  0.84040000  0.24750000  1.0 -0.608840308
O  O33  1  0.21220000  0.46460000  0.22510000  1.0 -0.6282898563
O  O34  1  0.78780000  0.53540000  0.77490000  1.0 -0.6282898563
O  O35  1  0.87060000  0.62270000  0.89140000  1.0 -0.608840308
O  O36  1  0.12940000  0.37730000  0.10860000  1.0 -0.608840308
O  O37  1  0.25250000  0.37600000  0.21280000  1.0 -0.6201002749
O  O38  1  0.74750000  0.62400000  0.78720000  1.0 -0.6201002749
O  O39  1  0.10940000  0.26060000  0.14760000  1.0 -0.608840308
O  O40  1  0.89060000  0.73940000  0.85240000  1.0 -0.608840308
O  O41  1  0.80340000  0.70290000  0.71740000  1.0 -0.6201002749
O  O42  1  0.19660000  0.29710000  0.28260000  1.0 -0.6201002749
O  O43  1  0.05020000  0.27300000  0.21770000  1.0 -0.64061109
O  O44  1  0.94980000  0.72700000  0.78230000  1.0 -0.64061109
O  O45  1  0.83280000  0.61170000  0.69640000  1.0 -0.5991706098
O  O46  1  0.16720000  0.38830000  0.30360000  1.0 -0.5991706098
O  O47  1  0.06130000  0.38350000  0.17250000  1.0 -0.608840308
O  O48  1  0.93870000  0.61650000  0.82750000  1.0 -0.608840308
O  O49  1  0.64090000  0.53920000  0.48210000  1.0 -0.3943756598
O  O50  1  0.58550000  0.56410000  0.37000000  1.0 -0.34368182
O  O51  1  0.50550000  0.47900000  0.40800000  1.0 -0.5293569245
O  O52  1  0.35910000  0.46080000  0.51790000  1.0 -0.3943756598
O  O53  1  0.41450000  0.43590000  0.63000000  1.0 -0.34368182
O  O54  1  0.49450000  0.52100000  0.59200000  1.0 -0.5293569245
O  O55  1  0.00370000  0.67250000  0.56070000  1.0 -0.5293569245
O  O56  1  0.91500000  0.68890000  0.46110000  1.0 -0.5293569245
O  O57  1  0.93640000  0.59730000  0.46160000  1.0 -0.4604105132
O  O58  1  0.99630000  0.32750000  0.43930000  1.0 -0.5293569245
O  O59  1  0.08500000  0.31110000  0.53890000  1.0 -0.5293569245
O  O60  1  0.06360000  0.40270000  0.53840000  1.0 -0.4604105132
F  F1  1  0.60300000  0.48590000  0.43320000  1.0 -0.0601973827
F  F2  1  0.66540000  0.54650000  0.37610000  1.0 -0.1709349969
F  F3  1  0.54070000  0.47940000  0.31850000  1.0 -0.1588101278
F  F4  1  0.39700000  0.51410000  0.56680000  1.0 -0.0601973827
F  F5  1  0.33460000  0.45350000  0.62390000  1.0 -0.1709349969
F  F6  1  0.45930000  0.52060000  0.68150000  1.0 -0.1588101278
F  F7  1  0.87300000  0.62190000  0.56070000  1.0 -0.1977180001
F  F8  1  0.82150000  0.57440000  0.46100000  1.0 -0.1799841081
F  F9  1  0.93030000  0.57090000  0.53670000  1.0 -0.0985101092
F  F10  1  0.12700000  0.37810000  0.43930000  1.0 -0.1977180001
F  F11  1  0.17850000  0.42560000  0.53900000  1.0 -0.1799841081
F  F12  1  0.06970000  0.42910000  0.46330000  1.0 -0.0985101092
F  F13  1  0.67200000  0.06400000  0.72700000  1.0 -0.5569269138
F  F14  1  0.32800000  0.93600000  0.27300000  1.0 -0.5569269138
