# DDEC6 charges by PACMAN v1.1 (https://github.com/mtap-research/PACMAN-charge/)
data_IXEJOL_ASR_pacman
_symmetry_space_group_name_H-M   'P 1'
_cell_length_a   15.68250000
_cell_length_b   39.50300000
_cell_length_c   22.55180000
_cell_angle_alpha   90.00000000
_cell_angle_beta   130.14700000
_cell_angle_gamma   90.00000000
_symmetry_Int_Tables_number   1
_chemical_formula_structural   Co8Mo8P12H32C25N5O58
_chemical_formula_sum   'Co32 Mo32 P48 H128 C100 N20 O232'
_cell_volume   10679.30904647
_cell_formula_units_Z   4
loop_
 _symmetry_equiv_pos_site_id
 _symmetry_equiv_pos_as_xyz
  1  'x, y, z'
loop_
 _atom_site_type_symbol
 _atom_site_label
 _atom_site_symmetry_multiplicity
 _atom_site_fract_x
 _atom_site_fract_y
 _atom_site_fract_z
 _atom_site_occupancy
 _atom_site_charge
Co  Co1  1  0.66965000  0.65730000  0.02870000  1.0 0.9882763274
Co  Co2  1  0.33035000  0.15730000  0.47130000  1.0 0.9882763274
Co  Co3  1  0.33035000  0.34270000  0.97130000  1.0 0.9882763274
Co  Co4  1  0.66965000  0.84270000  0.52870000  1.0 0.9882763274
Co  Co5  1  0.71618000  0.54585000  0.83591000  1.0 1.062357495
Co  Co6  1  0.28382000  0.04585000  0.66409000  1.0 1.062357495
Co  Co7  1  0.28382000  0.45415000  0.16409000  1.0 1.062357495
Co  Co8  1  0.71618000  0.95415000  0.33591000  1.0 1.062357495
Co  Co9  1  0.63685000  0.65662000  0.15350000  1.0 0.9989349045
Co  Co10  1  0.36315000  0.15662000  0.34650000  1.0 0.9989349045
Co  Co11  1  0.36315000  0.34338000  0.84650000  1.0 0.9989349045
Co  Co12  1  0.63685000  0.84338000  0.65350000  1.0 0.9989349045
Co  Co13  1  0.38640000  0.65829000  0.88180000  1.0 0.9882763274
Co  Co14  1  0.61360000  0.15829000  0.61820000  1.0 0.9882763274
Co  Co15  1  0.61360000  0.34171000  0.11820000  1.0 0.9882763274
Co  Co16  1  0.38640000  0.84171000  0.38180000  1.0 0.9882763274
Co  Co17  1  0.70782000  0.46583000  0.82987000  1.0 1.0378757515
Co  Co18  1  0.29218000  0.96583000  0.67013000  1.0 1.0378757515
Co  Co19  1  0.29218000  0.53417000  0.17013000  1.0 1.0378757515
Co  Co20  1  0.70782000  0.03417000  0.32987000  1.0 1.0378757515
Co  Co21  1  0.44050000  0.54654000  0.69080000  1.0 1.0308699109
Co  Co22  1  0.55950000  0.04654000  0.80920000  1.0 1.0308699109
Co  Co23  1  0.55950000  0.45346000  0.30920000  1.0 1.0308699109
Co  Co24  1  0.44050000  0.95346000  0.19080000  1.0 1.0308699109
Co  Co25  1  0.35586000  0.65816000  0.00800000  1.0 0.9989349045
Co  Co26  1  0.64414000  0.15816000  0.49200000  1.0 0.9989349045
Co  Co27  1  0.64414000  0.34184000  0.99200000  1.0 0.9989349045
Co  Co28  1  0.35586000  0.84184000  0.50800000  1.0 0.9989349045
Co  Co29  1  0.56987000  0.53346000  0.31717000  1.0 0.9781389334
Co  Co30  1  0.43013000  0.03346000  0.18283000  1.0 0.9781389334
Co  Co31  1  0.43013000  0.46654000  0.68283000  1.0 0.9781389334
Co  Co32  1  0.56987000  0.96654000  0.81717000  1.0 0.9781389334
Mo  Mo1  1  0.81299000  0.58429000  0.02049000  1.0 1.7655806043
Mo  Mo2  1  0.18701000  0.08429000  0.47951000  1.0 1.7617591518
Mo  Mo3  1  0.18701000  0.41571000  0.97951000  1.0 1.7617591518
Mo  Mo4  1  0.81299000  0.91571000  0.52049000  1.0 1.7617591518
Mo  Mo5  1  0.74712000  0.62991000  0.91483000  1.0 1.6685991682
Mo  Mo6  1  0.25288000  0.12991000  0.58517000  1.0 1.6685991682
Mo  Mo7  1  0.25288000  0.37009000  0.08517000  1.0 1.6685991682
Mo  Mo8  1  0.74712000  0.87009000  0.41483000  1.0 1.6685991682
Mo  Mo9  1  0.38483000  0.63032000  0.72606000  1.0 1.7114059724
Mo  Mo10  1  0.61517000  0.13032000  0.77394000  1.0 1.7114059724
Mo  Mo11  1  0.61517000  0.36968000  0.27394000  1.0 1.7114059724
Mo  Mo12  1  0.38483000  0.86968000  0.22606000  1.0 1.7114059724
Mo  Mo13  1  0.27952000  0.58621000  0.74352000  1.0 1.7397597976
Mo  Mo14  1  0.72048000  0.08621000  0.75648000  1.0 1.7397597976
Mo  Mo15  1  0.72048000  0.41379000  0.25648000  1.0 1.7397597976
Mo  Mo16  1  0.27952000  0.91379000  0.24352000  1.0 1.7397597976
Mo  Mo17  1  0.73750000  0.57830000  0.27427000  1.0 1.7397597976
Mo  Mo18  1  0.26250000  0.07830000  0.22573000  1.0 1.7397597976
Mo  Mo19  1  0.26250000  0.42170000  0.72573000  1.0 1.7397597976
Mo  Mo20  1  0.73750000  0.92170000  0.77427000  1.0 1.7397597976
Mo  Mo21  1  0.79503000  0.41869000  0.00268000  1.0 1.7980894543
Mo  Mo22  1  0.20497000  0.91869000  0.49732000  1.0 1.7928105094
Mo  Mo23  1  0.20497000  0.58131000  0.99732000  1.0 1.7928105094
Mo  Mo24  1  0.79503000  0.08131000  0.50268000  1.0 1.7980894543
Mo  Mo25  1  0.63450000  0.61974000  0.29948000  1.0 1.5806700982
Mo  Mo26  1  0.36550000  0.11974000  0.20052000  1.0 1.5806700982
Mo  Mo27  1  0.36550000  0.38026000  0.70052000  1.0 1.5806700982
Mo  Mo28  1  0.63450000  0.88026000  0.79948000  1.0 1.5806700982
Mo  Mo29  1  0.72561000  0.37753000  0.88876000  1.0 1.6869452693
Mo  Mo30  1  0.27439000  0.87753000  0.61124000  1.0 1.6826961137
Mo  Mo31  1  0.27439000  0.62247000  0.11124000  1.0 1.6826961137
Mo  Mo32  1  0.72561000  0.12247000  0.38876000  1.0 1.6869452693
P  P1  1  0.81180000  0.60042000  0.16780000  1.0 1.5207559828
P  P2  1  0.18820000  0.10042000  0.33220000  1.0 1.5207559828
P  P3  1  0.18820000  0.39958000  0.83220000  1.0 1.5207559828
P  P4  1  0.81180000  0.89958000  0.66780000  1.0 1.5207559828
P  P5  1  0.85160000  0.50114000  0.00070000  1.0 1.4880898096
P  P6  1  0.14840000  0.00114000  0.49930000  1.0 1.4880898096
P  P7  1  0.14840000  0.49886000  0.99930000  1.0 1.4880898096
P  P8  1  0.85160000  0.99886000  0.50070000  1.0 1.4880898096
P  P9  1  0.55110000  0.57171000  0.86500000  1.0 1.48161752
P  P10  1  0.44890000  0.07171000  0.63500000  1.0 1.48161752
P  P11  1  0.44890000  0.42829000  0.13500000  1.0 1.48161752
P  P12  1  0.55110000  0.92829000  0.36500000  1.0 1.48161752
P  P13  1  0.59500000  0.61428000  0.72570000  1.0 1.4880898096
P  P14  1  0.40500000  0.11428000  0.77430000  1.0 1.4880898096
P  P15  1  0.40500000  0.38572000  0.27430000  1.0 1.4880898096
P  P16  1  0.59500000  0.88572000  0.22570000  1.0 1.4880898096
P  P17  1  0.55440000  0.68736000  0.86060000  1.0 1.4880898096
P  P18  1  0.44560000  0.18736000  0.63940000  1.0 1.4880898096
P  P19  1  0.44560000  0.31264000  0.13940000  1.0 1.4880898096
P  P20  1  0.55440000  0.81264000  0.36060000  1.0 1.4880898096
P  P21  1  0.51290000  0.71258000  0.01660000  1.0 1.4093248345
P  P22  1  0.48710000  0.21258000  0.48340000  1.0 1.4093248345
P  P23  1  0.48710000  0.28742000  0.98340000  1.0 1.4093248345
P  P24  1  0.51290000  0.78742000  0.51660000  1.0 1.4093248345
P  P25  1  0.60440000  0.50537000  0.67680000  1.0 1.4269220926
P  P26  1  0.39560000  0.00537000  0.82320000  1.0 1.4269220926
P  P27  1  0.39560000  0.49463000  0.32320000  1.0 1.4269220926
P  P28  1  0.60440000  0.99463000  0.17680000  1.0 1.4269220926
P  P29  1  0.24680000  0.50466000  0.68490000  1.0 1.5111968019
P  P30  1  0.75320000  0.00466000  0.81510000  1.0 1.5111968019
P  P31  1  0.75320000  0.49534000  0.31510000  1.0 1.5111968019
P  P32  1  0.24680000  0.99534000  0.18490000  1.0 1.5111968019
P  P33  1  0.20900000  0.60323000  0.85440000  1.0 1.5254913467
P  P34  1  0.79100000  0.10323000  0.64560000  1.0 1.5254913467
P  P35  1  0.79100000  0.39677000  0.14560000  1.0 1.5207559828
P  P36  1  0.20900000  0.89677000  0.35440000  1.0 1.5254913467
P  P37  1  0.48210000  0.59143000  0.11760000  1.0 1.496951858
P  P38  1  0.51790000  0.09143000  0.38240000  1.0 1.496951858
P  P39  1  0.51790000  0.40857000  0.88240000  1.0 1.496951858
P  P40  1  0.48210000  0.90857000  0.61760000  1.0 1.496951858
P  P41  1  0.46920000  0.68386000  0.18540000  1.0 1.5207559828
P  P42  1  0.53080000  0.18386000  0.31460000  1.0 1.5207559828
P  P43  1  0.53080000  0.31614000  0.81460000  1.0 1.5207559828
P  P44  1  0.46920000  0.81614000  0.68540000  1.0 1.5207559828
P  P45  1  0.57550000  0.40319000  0.70650000  1.0 1.5111968019
P  P46  1  0.42450000  0.90319000  0.79350000  1.0 1.5111968019
P  P47  1  0.42450000  0.59681000  0.29350000  1.0 1.5111968019
P  P48  1  0.57550000  0.09681000  0.20650000  1.0 1.5111968019
H  H1  1  0.97790000  0.59840000  0.25000000  1.0 0.36988459
H  H2  1  0.02210000  0.09840000  0.25000000  1.0 0.36988459
H  H3  1  0.02210000  0.40160000  0.75000000  1.0 0.36988459
H  H4  1  0.97790000  0.90160000  0.75000000  1.0 0.36988459
H  H5  1  0.61220000  0.64300000  0.66420000  1.0 0.3562298738
H  H6  1  0.38780000  0.14300000  0.83580000  1.0 0.3562298738
H  H7  1  0.38780000  0.35700000  0.33580000  1.0 0.3562298738
H  H8  1  0.61220000  0.85700000  0.16420000  1.0 0.3562298738
H  H9  1  0.54390000  0.73310000  0.89410000  1.0 0.2991267465
H  H10  1  0.45610000  0.23310000  0.60590000  1.0 0.2991267465
H  H11  1  0.45610000  0.26690000  0.10590000  1.0 0.2991267465
H  H12  1  0.54390000  0.76690000  0.39410000  1.0 0.2991267465
H  H13  1  0.49640000  0.72340000  0.09500000  1.0 0.3512621023
H  H14  1  0.50360000  0.22340000  0.40500000  1.0 0.3512621023
H  H15  1  0.50360000  0.27660000  0.90500000  1.0 0.3512621023
H  H16  1  0.49640000  0.77660000  0.59500000  1.0 0.3512621023
H  H17  1  0.53210000  0.72650000  0.94260000  1.0 0.2845267751
H  H18  1  0.46790000  0.22650000  0.55740000  1.0 0.2850869395
H  H19  1  0.46790000  0.27350000  0.05740000  1.0 0.2850869395
H  H20  1  0.53210000  0.77350000  0.44260000  1.0 0.2845267751
H  H21  1  0.61080000  0.45860000  0.65310000  1.0 0.3273599245
H  H22  1  0.38920000  0.95860000  0.84690000  1.0 0.3273599245
H  H23  1  0.38920000  0.54140000  0.34690000  1.0 0.3273599245
H  H24  1  0.61080000  0.04140000  0.15310000  1.0 0.3273599245
H  H25  1  0.61350000  0.55450000  0.66310000  1.0 0.3784859576
H  H26  1  0.38650000  0.05450000  0.83690000  1.0 0.3784859576
H  H27  1  0.38650000  0.44550000  0.33690000  1.0 0.3784859576
H  H28  1  0.61350000  0.94550000  0.16310000  1.0 0.3784859576
H  H29  1  0.87850000  0.65760000  0.30840000  1.0 0.1204073768
H  H30  1  0.12150000  0.15760000  0.19160000  1.0 0.1204073768
H  H31  1  0.12150000  0.34240000  0.69160000  1.0 0.1204073768
H  H32  1  0.87850000  0.84240000  0.80840000  1.0 0.1204073768
H  H33  1  0.69130000  0.73370000  0.18350000  1.0 0.1083409543
H  H34  1  0.30870000  0.23370000  0.31650000  1.0 0.1083409543
H  H35  1  0.30870000  0.26630000  0.81650000  1.0 0.1083409543
H  H36  1  0.69130000  0.76630000  0.68350000  1.0 0.1083409543
H  H37  1  0.14120000  0.66120000  0.72510000  1.0 0.1204073768
H  H38  1  0.85880000  0.16120000  0.77490000  1.0 0.1204073768
H  H39  1  0.85880000  0.33880000  0.27490000  1.0 0.1204073768
H  H40  1  0.14120000  0.83880000  0.22510000  1.0 0.1204073768
H  H41  1  0.34310000  0.73520000  0.85300000  1.0 0.0989668679
H  H42  1  0.65690000  0.23520000  0.64700000  1.0 0.0989668679
H  H43  1  0.65690000  0.26480000  0.14700000  1.0 0.0989668679
H  H44  1  0.34310000  0.76480000  0.35300000  1.0 0.0989668679
H  H45  1  0.12720000  0.51900000  0.57550000  1.0 0.3562298738
H  H46  1  0.87280000  0.01900000  0.92450000  1.0 0.3562298738
H  H47  1  0.87280000  0.48100000  0.42450000  1.0 0.3562298738
H  H48  1  0.12720000  0.98100000  0.07550000  1.0 0.3562298738
H  H49  1  0.07160000  0.62920000  0.80670000  1.0 0.3385575659
H  H50  1  0.92840000  0.12920000  0.69330000  1.0 0.3385575659
H  H51  1  0.92840000  0.37080000  0.19330000  1.0 0.3385575659
H  H52  1  0.07160000  0.87080000  0.30670000  1.0 0.3385575659
H  H53  1  0.52650000  0.73000000  0.21960000  1.0 0.36988459
H  H54  1  0.47350000  0.23000000  0.28040000  1.0 0.36988459
H  H55  1  0.47350000  0.27000000  0.78040000  1.0 0.36988459
H  H56  1  0.52650000  0.77000000  0.71960000  1.0 0.36988459
H  H57  1  0.02970000  0.69130000  0.37400000  1.0 0.127670106
H  H58  1  0.97030000  0.19130000  0.12600000  1.0 0.127670106
H  H59  1  0.97030000  0.30870000  0.62600000  1.0 0.127670106
H  H60  1  0.02970000  0.80870000  0.87400000  1.0 0.127670106
H  H61  1  0.83390000  0.76860000  0.25930000  1.0 0.1204073768
H  H62  1  0.16610000  0.26860000  0.24070000  1.0 0.1204073768
H  H63  1  0.16610000  0.23140000  0.74070000  1.0 0.1204073768
H  H64  1  0.83390000  0.73140000  0.75930000  1.0 0.1204073768
H  H65  1  0.00160000  0.69580000  0.65160000  1.0 0.127670106
H  H66  1  0.99840000  0.19580000  0.84840000  1.0 0.127670106
H  H67  1  0.99840000  0.30420000  0.34840000  1.0 0.127670106
H  H68  1  0.00160000  0.80420000  0.15160000  1.0 0.127670106
H  H69  1  0.19830000  0.77440000  0.78130000  1.0 0.127670106
H  H70  1  0.80170000  0.27440000  0.71870000  1.0 0.127670106
H  H71  1  0.80170000  0.22560000  0.21870000  1.0 0.127670106
H  H72  1  0.19830000  0.72560000  0.28130000  1.0 0.127670106
H  H73  1  0.59980000  0.42220000  0.63830000  1.0 0.3240433432
H  H74  1  0.40020000  0.92220000  0.86170000  1.0 0.3240433432
H  H75  1  0.40020000  0.57780000  0.36170000  1.0 0.3240433432
H  H76  1  0.59980000  0.07780000  0.13830000  1.0 0.3240433432
H  H77  1  0.81310000  0.55260000  0.44410000  1.0 0.0989668679
H  H78  1  0.18690000  0.05260000  0.05590000  1.0 0.0989668679
H  H79  1  0.18690000  0.44740000  0.55590000  1.0 0.0989668679
H  H80  1  0.81310000  0.94740000  0.94410000  1.0 0.0989668679
H  H81  1  0.58110000  0.53300000  0.45820000  1.0 0.0989668679
H  H82  1  0.41890000  0.03300000  0.04180000  1.0 0.0989668679
H  H83  1  0.41890000  0.46700000  0.54180000  1.0 0.0989668679
H  H84  1  0.58110000  0.96700000  0.95820000  1.0 0.0989668679
H  H85  1  0.94910000  0.54360000  0.57610000  1.0 0.1486823805
H  H86  1  0.05090000  0.04360000  0.92390000  1.0 0.1486823805
H  H87  1  0.05090000  0.45640000  0.42390000  1.0 0.1486823805
H  H88  1  0.94910000  0.95640000  0.07610000  1.0 0.1486823805
H  H89  1  0.71430000  0.52140000  0.58890000  1.0 0.1486823805
H  H90  1  0.28570000  0.02140000  0.91110000  1.0 0.1486823805
H  H91  1  0.28570000  0.47860000  0.41110000  1.0 0.1486823805
H  H92  1  0.71430000  0.97860000  0.08890000  1.0 0.1486823805
H  H93  1  0.95300000  0.80310000  0.32190000  1.0 0.1204073768
H  H94  1  0.04700000  0.30310000  0.17810000  1.0 0.1204073768
H  H95  1  0.04700000  0.19690000  0.67810000  1.0 0.1204073768
H  H96  1  0.95300000  0.69690000  0.82190000  1.0 0.1204073768
H  H97  1  0.16670000  0.72480000  0.43200000  1.0 0.1204073768
H  H98  1  0.83330000  0.22480000  0.06800000  1.0 0.1204073768
H  H99  1  0.83330000  0.27520000  0.56800000  1.0 0.1204073768
H  H100  1  0.16670000  0.77520000  0.93200000  1.0 0.1204073768
H  H101  1  0.07280000  0.80600000  0.69890000  1.0 0.127670106
H  H102  1  0.92720000  0.30600000  0.80110000  1.0 0.127670106
H  H103  1  0.92720000  0.19400000  0.30110000  1.0 0.127670106
H  H104  1  0.07280000  0.69400000  0.19890000  1.0 0.127670106
H  H105  1  0.86300000  0.72790000  0.60990000  1.0 0.1204073768
H  H106  1  0.13700000  0.22790000  0.89010000  1.0 0.1204073768
H  H107  1  0.13700000  0.27210000  0.39010000  1.0 0.1204073768
H  H108  1  0.86300000  0.77210000  0.10990000  1.0 0.1204073768
H  H109  1  0.10650000  0.83920000  0.40710000  1.0 0.091217598
H  H110  1  0.89350000  0.33920000  0.09290000  1.0 0.091217598
H  H111  1  0.89350000  0.16080000  0.59290000  1.0 0.091217598
H  H112  1  0.10650000  0.66080000  0.90710000  1.0 0.091217598
H  H113  1  0.31180000  0.76470000  0.51440000  1.0 0.1083409543
H  H114  1  0.68820000  0.26470000  0.98560000  1.0 0.1083409543
H  H115  1  0.68820000  0.23530000  0.48560000  1.0 0.1083409543
H  H116  1  0.31180000  0.73530000  0.01440000  1.0 0.1083409543
H  H117  1  0.91900000  0.84110000  0.62060000  1.0 0.0989668679
H  H118  1  0.08100000  0.34110000  0.87940000  1.0 0.0989668679
H  H119  1  0.08100000  0.15890000  0.37940000  1.0 0.0989668679
H  H120  1  0.91900000  0.65890000  0.12060000  1.0 0.0989668679
H  H121  1  0.71660000  0.76570000  0.53980000  1.0 0.0989668679
H  H122  1  0.28340000  0.26570000  0.96020000  1.0 0.0989668679
H  H123  1  0.28340000  0.23430000  0.46020000  1.0 0.0989668679
H  H124  1  0.71660000  0.73430000  0.03980000  1.0 0.0989668679
H  H125  1  0.98560000  0.49910000  0.01040000  1.0 0.2991267465
H  H126  1  0.01440000  0.99910000  0.48960000  1.0 0.2991267465
H  H127  1  0.01440000  0.50090000  0.98960000  1.0 0.2991267465
H  H128  1  0.98560000  0.00090000  0.51040000  1.0 0.2991267465
C  C1  1  0.86830000  0.68040000  0.29440000  1.0 0.0989668679
C  C2  1  0.13170000  0.18040000  0.20560000  1.0 0.0989668679
C  C3  1  0.13170000  0.31960000  0.70560000  1.0 0.0989668679
C  C4  1  0.86830000  0.81960000  0.79440000  1.0 0.0989668679
C  C5  1  0.76000000  0.72450000  0.22400000  1.0 0.0385746233
C  C6  1  0.24000000  0.22450000  0.27600000  1.0 0.0385746233
C  C7  1  0.24000000  0.27550000  0.77600000  1.0 0.0385746233
C  C8  1  0.76000000  0.77550000  0.72400000  1.0 0.0385746233
C  C9  1  0.15420000  0.68410000  0.73740000  1.0 0.0508164078
C  C10  1  0.84580000  0.18410000  0.76260000  1.0 0.0508164078
C  C11  1  0.84580000  0.31590000  0.26260000  1.0 0.0508164078
C  C12  1  0.15420000  0.81590000  0.23740000  1.0 0.0508164078
C  C13  1  0.27100000  0.72730000  0.81200000  1.0 0.0756379463
C  C14  1  0.72900000  0.22730000  0.68800000  1.0 0.0756379463
C  C15  1  0.72900000  0.27270000  0.18800000  1.0 0.0756379463
C  C16  1  0.27100000  0.77270000  0.31200000  1.0 0.0756379463
C  C17  1  0.95950000  0.70100000  0.33650000  1.0 -0.2391292504
C  C18  1  0.04050000  0.20100000  0.16350000  1.0 -0.2391292504
C  C19  1  0.04050000  0.29900000  0.66350000  1.0 -0.2391292504
C  C20  1  0.95950000  0.79900000  0.83650000  1.0 -0.2391292504
C  C21  1  0.84740000  0.74550000  0.26840000  1.0 -0.2176326938
C  C22  1  0.15260000  0.24550000  0.23160000  1.0 -0.2176326938
C  C23  1  0.15260000  0.25450000  0.73160000  1.0 -0.2176326938
C  C24  1  0.84740000  0.75450000  0.76840000  1.0 -0.2176326938
C  C25  1  0.07030000  0.70440000  0.69400000  1.0 -0.1991907829
C  C26  1  0.92970000  0.20440000  0.80600000  1.0 -0.1991907829
C  C27  1  0.92970000  0.29560000  0.30600000  1.0 -0.1991907829
C  C28  1  0.07030000  0.79560000  0.19400000  1.0 -0.1991907829
C  C29  1  0.18570000  0.75140000  0.76980000  1.0 -0.1991907829
C  C30  1  0.81430000  0.25140000  0.73020000  1.0 -0.1991907829
C  C31  1  0.81430000  0.24860000  0.23020000  1.0 -0.1991907829
C  C32  1  0.18570000  0.74860000  0.26980000  1.0 -0.1991907829
C  C33  1  0.95260000  0.73510000  0.32550000  1.0 0.091217598
C  C34  1  0.04740000  0.23510000  0.17450000  1.0 0.091217598
C  C35  1  0.04740000  0.26490000  0.67450000  1.0 0.091217598
C  C36  1  0.95260000  0.76490000  0.82550000  1.0 0.091217598
C  C37  1  0.08070000  0.73860000  0.70930000  1.0 0.091217598
C  C38  1  0.91930000  0.23860000  0.79070000  1.0 0.091217598
C  C39  1  0.91930000  0.26140000  0.29070000  1.0 0.091217598
C  C40  1  0.08070000  0.76140000  0.20930000  1.0 0.091217598
C  C41  1  0.79220000  0.54630000  0.47290000  1.0 0.0989668679
C  C42  1  0.20780000  0.04630000  0.02710000  1.0 0.0989668679
C  C43  1  0.20780000  0.45370000  0.52710000  1.0 0.0989668679
C  C44  1  0.79220000  0.95370000  0.97290000  1.0 0.0989668679
C  C45  1  0.65610000  0.53450000  0.48150000  1.0 0.0989668679
C  C46  1  0.34390000  0.03450000  0.01850000  1.0 0.0989668679
C  C47  1  0.34390000  0.46550000  0.51850000  1.0 0.0989668679
C  C48  1  0.65610000  0.96550000  0.98150000  1.0 0.0989668679
C  C49  1  0.04490000  0.75960000  0.37190000  1.0 0.0989668679
C  C50  1  0.95510000  0.25960000  0.12810000  1.0 0.0989668679
C  C51  1  0.95510000  0.24040000  0.62810000  1.0 0.0989668679
C  C52  1  0.04490000  0.74040000  0.87190000  1.0 0.0989668679
C  C53  1  0.98640000  0.76210000  0.66120000  1.0 0.0989668679
C  C54  1  0.01360000  0.26210000  0.83880000  1.0 0.0989668679
C  C55  1  0.01360000  0.23790000  0.33880000  1.0 0.0989668679
C  C56  1  0.98640000  0.73790000  0.16120000  1.0 0.0989668679
C  C57  1  0.87490000  0.54000000  0.55290000  1.0 -0.1991907829
C  C58  1  0.12510000  0.04000000  0.94710000  1.0 -0.1991907829
C  C59  1  0.12510000  0.46000000  0.44710000  1.0 -0.1991907829
C  C60  1  0.87490000  0.96000000  0.05290000  1.0 -0.1991907829
C  C61  1  0.73620000  0.52730000  0.56050000  1.0 -0.174389401
C  C62  1  0.26380000  0.02730000  0.93950000  1.0 -0.174389401
C  C63  1  0.26380000  0.47270000  0.43950000  1.0 -0.174389401
C  C64  1  0.73620000  0.97270000  0.06050000  1.0 -0.174389401
C  C65  1  0.02410000  0.79440000  0.36010000  1.0 -0.2267045729
C  C66  1  0.97590000  0.29440000  0.13990000  1.0 -0.2267045729
C  C67  1  0.97590000  0.20560000  0.63990000  1.0 -0.2267045729
C  C68  1  0.02410000  0.70560000  0.86010000  1.0 -0.2267045729
C  C69  1  0.15200000  0.74790000  0.42600000  1.0 -0.1991907829
C  C70  1  0.84800000  0.24790000  0.07400000  1.0 -0.1991907829
C  C71  1  0.84800000  0.25210000  0.57400000  1.0 -0.1991907829
C  C72  1  0.15200000  0.75210000  0.92600000  1.0 -0.1991907829
C  C73  1  0.00160000  0.79680000  0.66600000  1.0 -0.2126921504
C  C74  1  0.99840000  0.29680000  0.83400000  1.0 -0.2126921504
C  C75  1  0.99840000  0.20320000  0.33400000  1.0 -0.2126921504
C  C76  1  0.00160000  0.70320000  0.16600000  1.0 -0.2126921504
C  C77  1  0.87770000  0.75100000  0.61400000  1.0 -0.2176326938
C  C78  1  0.12230000  0.25100000  0.88600000  1.0 -0.2176326938
C  C79  1  0.12230000  0.24900000  0.38600000  1.0 -0.2176326938
C  C80  1  0.87770000  0.74900000  0.11400000  1.0 -0.2176326938
C  C81  1  0.85110000  0.52890000  0.59740000  1.0 0.0707378633
C  C82  1  0.14890000  0.02890000  0.90260000  1.0 0.0707378633
C  C83  1  0.14890000  0.47110000  0.40260000  1.0 0.0707378633
C  C84  1  0.85110000  0.97110000  0.09740000  1.0 0.0707378633
C  C85  1  0.11940000  0.81600000  0.41040000  1.0 0.091217598
C  C86  1  0.88060000  0.31600000  0.08960000  1.0 0.091217598
C  C87  1  0.88060000  0.18400000  0.58960000  1.0 0.091217598
C  C88  1  0.11940000  0.68400000  0.91040000  1.0 0.091217598
C  C89  1  0.24110000  0.77250000  0.47400000  1.0 0.1083409543
C  C90  1  0.75890000  0.27250000  0.02600000  1.0 0.1083409543
C  C91  1  0.75890000  0.22750000  0.52600000  1.0 0.1083409543
C  C92  1  0.24110000  0.72750000  0.97400000  1.0 0.1083409543
C  C93  1  0.90750000  0.81800000  0.62010000  1.0 0.091217598
C  C94  1  0.09250000  0.31800000  0.87990000  1.0 0.091217598
C  C95  1  0.09250000  0.18200000  0.37990000  1.0 0.091217598
C  C96  1  0.90750000  0.68200000  0.12010000  1.0 0.091217598
C  C97  1  0.78890000  0.77410000  0.57200000  1.0 0.1083409543
C  C98  1  0.21110000  0.27410000  0.92800000  1.0 0.1083409543
C  C99  1  0.21110000  0.22590000  0.42800000  1.0 0.1083409543
C  C100  1  0.78890000  0.72590000  0.07200000  1.0 0.1083409543
N  N1  1  0.80320000  0.80670000  0.57620000  1.0 -0.2497122117
N  N2  1  0.19680000  0.30670000  0.92380000  1.0 -0.2497122117
N  N3  1  0.19680000  0.19330000  0.42380000  1.0 -0.2497122117
N  N4  1  0.80320000  0.69330000  0.07620000  1.0 -0.2497122117
N  N5  1  0.76750000  0.69030000  0.23610000  1.0 -0.2391292504
N  N6  1  0.23250000  0.19030000  0.26390000  1.0 -0.2391292504
N  N7  1  0.23250000  0.30970000  0.76390000  1.0 -0.2391292504
N  N8  1  0.76750000  0.80970000  0.73610000  1.0 -0.2391292504
N  N9  1  0.25890000  0.69340000  0.79900000  1.0 -0.271129103
N  N10  1  0.74110000  0.19340000  0.70100000  1.0 -0.271129103
N  N11  1  0.74110000  0.30660000  0.20100000  1.0 -0.271129103
N  N12  1  0.25890000  0.80660000  0.29900000  1.0 -0.271129103
N  N13  1  0.22430000  0.80590000  0.46100000  1.0 -0.2497122117
N  N14  1  0.77570000  0.30590000  0.03900000  1.0 -0.2497122117
N  N15  1  0.77570000  0.19410000  0.53900000  1.0 -0.2497122117
N  N16  1  0.22430000  0.69410000  0.96100000  1.0 -0.2497122117
N  N17  1  0.68250000  0.54340000  0.43750000  1.0 -0.271129103
N  N18  1  0.31750000  0.04340000  0.06250000  1.0 -0.271129103
N  N19  1  0.31750000  0.45660000  0.56250000  1.0 -0.271129103
N  N20  1  0.68250000  0.95660000  0.93750000  1.0 -0.271129103
O  O1  1  0.74300000  0.62880000  0.99860000  1.0 -0.9096041522
O  O2  1  0.25700000  0.12880000  0.50140000  1.0 -0.9096041522
O  O3  1  0.25700000  0.37120000  0.00140000  1.0 -0.9096041522
O  O4  1  0.74300000  0.87120000  0.49860000  1.0 -0.9096041522
O  O5  1  0.80440000  0.57960000  0.10830000  1.0 -0.7714217987
O  O6  1  0.19560000  0.07960000  0.39170000  1.0 -0.7714217987
O  O7  1  0.19560000  0.42040000  0.89170000  1.0 -0.7714217987
O  O8  1  0.80440000  0.92040000  0.60830000  1.0 -0.7714217987
O  O9  1  0.77360000  0.58150000  0.91950000  1.0 -0.9409794263
O  O10  1  0.22640000  0.08150000  0.58050000  1.0 -0.9409794263
O  O11  1  0.22640000  0.41850000  0.08050000  1.0 -0.9409794263
O  O12  1  0.77360000  0.91850000  0.41950000  1.0 -0.9409794263
O  O13  1  0.83620000  0.53200000  0.03310000  1.0 -0.7714217987
O  O14  1  0.16380000  0.03200000  0.46690000  1.0 -0.7714217987
O  O15  1  0.16380000  0.46800000  0.96690000  1.0 -0.7714217987
O  O16  1  0.83620000  0.96800000  0.53310000  1.0 -0.7714217987
O  O17  1  0.63900000  0.56790000  0.95280000  1.0 -0.7088631518
O  O18  1  0.36100000  0.06790000  0.54720000  1.0 -0.7088631518
O  O19  1  0.36100000  0.43210000  0.04720000  1.0 -0.7088631518
O  O20  1  0.63900000  0.93210000  0.45280000  1.0 -0.7088631518
O  O21  1  0.55650000  0.60910000  0.84290000  1.0 -0.8397551604
O  O22  1  0.44350000  0.10910000  0.65710000  1.0 -0.8397551604
O  O23  1  0.44350000  0.39090000  0.15710000  1.0 -0.8397551604
O  O24  1  0.55650000  0.89090000  0.34290000  1.0 -0.8397551604
O  O25  1  0.69020000  0.62930000  0.80540000  1.0 -0.7714217987
O  O26  1  0.30980000  0.12930000  0.69460000  1.0 -0.7714217987
O  O27  1  0.30980000  0.37070000  0.19460000  1.0 -0.7714217987
O  O28  1  0.69020000  0.87070000  0.30540000  1.0 -0.7714217987
O  O29  1  0.66700000  0.67600000  0.88500000  1.0 -0.7768116828
O  O30  1  0.33300000  0.17600000  0.61500000  1.0 -0.7768116828
O  O31  1  0.33300000  0.32400000  0.11500000  1.0 -0.7768116828
O  O32  1  0.66700000  0.82400000  0.38500000  1.0 -0.7768116828
O  O33  1  0.73460000  0.63160000  0.13030000  1.0 -0.7877343746
O  O34  1  0.26540000  0.13160000  0.36970000  1.0 -0.7877343746
O  O35  1  0.26540000  0.36840000  0.86970000  1.0 -0.7877343746
O  O36  1  0.73460000  0.86840000  0.63030000  1.0 -0.7877343746
O  O37  1  0.52610000  0.62090000  0.97730000  1.0 -0.3863573275
O  O38  1  0.47390000  0.12090000  0.52270000  1.0 -0.3863573275
O  O39  1  0.47390000  0.37910000  0.02270000  1.0 -0.3849478267
O  O40  1  0.52610000  0.87910000  0.47730000  1.0 -0.3863573275
O  O41  1  0.53860000  0.67440000  0.91530000  1.0 -0.800400307
O  O42  1  0.46140000  0.17440000  0.58470000  1.0 -0.800400307
O  O43  1  0.46140000  0.32560000  0.08470000  1.0 -0.800400307
O  O44  1  0.53860000  0.82560000  0.41530000  1.0 -0.800400307
O  O45  1  0.61370000  0.68810000  0.07060000  1.0 -0.8193976583
O  O46  1  0.38630000  0.18810000  0.42940000  1.0 -0.8193976583
O  O47  1  0.38630000  0.31190000  0.92940000  1.0 -0.8193976583
O  O48  1  0.61370000  0.81190000  0.57060000  1.0 -0.8193976583
O  O49  1  0.78920000  0.57810000  0.20980000  1.0 -0.7877343746
O  O50  1  0.21080000  0.07810000  0.29020000  1.0 -0.7877343746
O  O51  1  0.21080000  0.42190000  0.79020000  1.0 -0.7877343746
O  O52  1  0.78920000  0.92190000  0.70980000  1.0 -0.7877343746
O  O53  1  0.93420000  0.61430000  0.22870000  1.0 -0.6905702256
O  O54  1  0.06580000  0.11430000  0.27130000  1.0 -0.6905702256
O  O55  1  0.06580000  0.38570000  0.77130000  1.0 -0.6905702256
O  O56  1  0.93420000  0.88570000  0.72870000  1.0 -0.6905702256
O  O57  1  0.78650000  0.50470000  0.91220000  1.0 -0.807640358
O  O58  1  0.21350000  0.00470000  0.58780000  1.0 -0.807640358
O  O59  1  0.21350000  0.49530000  0.08780000  1.0 -0.807640358
O  O60  1  0.78650000  0.99530000  0.41220000  1.0 -0.807640358
O  O61  1  0.56600000  0.54320000  0.82200000  1.0 -0.7714217987
O  O62  1  0.43400000  0.04320000  0.67800000  1.0 -0.7714217987
O  O63  1  0.43400000  0.45680000  0.17800000  1.0 -0.7714217987
O  O64  1  0.56600000  0.95680000  0.32200000  1.0 -0.7714217987
O  O65  1  0.69580000  0.50520000  0.76670000  1.0 -0.807640358
O  O66  1  0.30420000  0.00520000  0.73330000  1.0 -0.807640358
O  O67  1  0.30420000  0.49480000  0.23330000  1.0 -0.807640358
O  O68  1  0.69580000  0.99480000  0.26670000  1.0 -0.807640358
O  O69  1  0.59350000  0.57510000  0.73230000  1.0 -0.8288182818
O  O70  1  0.40650000  0.07510000  0.76770000  1.0 -0.8288182818
O  O71  1  0.40650000  0.42490000  0.26770000  1.0 -0.8288182818
O  O72  1  0.59350000  0.92490000  0.23230000  1.0 -0.8288182818
O  O73  1  0.81110000  0.47120000  0.01780000  1.0 -0.7567838929
O  O74  1  0.18890000  0.97120000  0.48220000  1.0 -0.7567838929
O  O75  1  0.18890000  0.52880000  0.98220000  1.0 -0.7567838929
O  O76  1  0.81110000  0.02880000  0.51780000  1.0 -0.7567838929
O  O77  1  0.97570000  0.49610000  0.04160000  1.0 -0.6304098867
O  O78  1  0.02430000  0.99610000  0.45840000  1.0 -0.6304098867
O  O79  1  0.02430000  0.50390000  0.95840000  1.0 -0.6304098867
O  O80  1  0.97570000  0.00390000  0.54160000  1.0 -0.6304098867
O  O81  1  0.44040000  0.56720000  0.84860000  1.0 -0.7221277855
O  O82  1  0.55960000  0.06720000  0.65140000  1.0 -0.7221277855
O  O83  1  0.55960000  0.43280000  0.15140000  1.0 -0.7221277855
O  O84  1  0.44040000  0.93280000  0.34860000  1.0 -0.7221277855
O  O85  1  0.48130000  0.62850000  0.69470000  1.0 -0.7877343746
O  O86  1  0.51870000  0.12850000  0.80530000  1.0 -0.7877343746
O  O87  1  0.51870000  0.37150000  0.30530000  1.0 -0.7877343746
O  O88  1  0.48130000  0.87150000  0.19470000  1.0 -0.7877343746
O  O89  1  0.35570000  0.58280000  0.70120000  1.0 -0.9545848443
O  O90  1  0.64430000  0.08280000  0.79880000  1.0 -0.9545848443
O  O91  1  0.64430000  0.41720000  0.29880000  1.0 -0.9545848443
O  O92  1  0.35570000  0.91720000  0.20120000  1.0 -0.9545848443
O  O93  1  0.34490000  0.63060000  0.79070000  1.0 -0.9096041522
O  O94  1  0.65510000  0.13060000  0.70930000  1.0 -0.9096041522
O  O95  1  0.65510000  0.36940000  0.20930000  1.0 -0.9096041522
O  O96  1  0.34490000  0.86940000  0.29070000  1.0 -0.9096041522
O  O97  1  0.46140000  0.67650000  0.77560000  1.0 -0.7714217987
O  O98  1  0.53860000  0.17650000  0.72440000  1.0 -0.7714217987
O  O99  1  0.53860000  0.32350000  0.22440000  1.0 -0.7714217987
O  O100  1  0.46140000  0.82350000  0.27560000  1.0 -0.7714217987
O  O101  1  0.61120000  0.62240000  0.66830000  1.0 -0.6088604333
O  O102  1  0.38880000  0.12240000  0.83170000  1.0 -0.6088604333
O  O103  1  0.38880000  0.37760000  0.33170000  1.0 -0.6088604333
O  O104  1  0.61120000  0.87760000  0.16830000  1.0 -0.6088604333
O  O105  1  0.55210000  0.72720000  0.86320000  1.0 -0.6178165801
O  O106  1  0.44790000  0.22720000  0.63680000  1.0 -0.6178165801
O  O107  1  0.44790000  0.27280000  0.13680000  1.0 -0.6178165801
O  O108  1  0.55210000  0.77280000  0.36320000  1.0 -0.6178165801
O  O109  1  0.25300000  0.53490000  0.72960000  1.0 -0.7714217987
O  O110  1  0.74700000  0.03490000  0.77040000  1.0 -0.7714217987
O  O111  1  0.74700000  0.46510000  0.27040000  1.0 -0.7768116828
O  O112  1  0.25300000  0.96510000  0.22960000  1.0 -0.7714217987
O  O113  1  0.24500000  0.58140000  0.81710000  1.0 -0.7503931425
O  O114  1  0.75500000  0.08140000  0.68290000  1.0 -0.7503931425
O  O115  1  0.75500000  0.41860000  0.18290000  1.0 -0.7503931425
O  O116  1  0.24500000  0.91860000  0.31710000  1.0 -0.7503931425
O  O117  1  0.68470000  0.62500000  0.24070000  1.0 -0.9409794263
O  O118  1  0.31530000  0.12500000  0.25930000  1.0 -0.9409794263
O  O119  1  0.31530000  0.37500000  0.75930000  1.0 -0.9409794263
O  O120  1  0.68470000  0.87500000  0.74070000  1.0 -0.9409794263
O  O121  1  0.49400000  0.62150000  0.07500000  1.0 -0.7567838929
O  O122  1  0.50600000  0.12150000  0.42500000  1.0 -0.7567838929
O  O123  1  0.50600000  0.37850000  0.92500000  1.0 -0.7567838929
O  O124  1  0.49400000  0.87850000  0.57500000  1.0 -0.7567838929
O  O125  1  0.48620000  0.68090000  0.12660000  1.0 -0.8288182818
O  O126  1  0.51380000  0.18090000  0.37340000  1.0 -0.8288182818
O  O127  1  0.51380000  0.31910000  0.87340000  1.0 -0.8288182818
O  O128  1  0.48620000  0.81910000  0.62660000  1.0 -0.8288182818
O  O129  1  0.28640000  0.63370000  0.89850000  1.0 -0.807640358
O  O130  1  0.71360000  0.13370000  0.60150000  1.0 -0.807640358
O  O131  1  0.71360000  0.36630000  0.10150000  1.0 -0.807640358
O  O132  1  0.28640000  0.86630000  0.39850000  1.0 -0.807640358
O  O133  1  0.41240000  0.68970000  0.96660000  1.0 -0.807640358
O  O134  1  0.58760000  0.18970000  0.53340000  1.0 -0.807640358
O  O135  1  0.58760000  0.31030000  0.03340000  1.0 -0.807640358
O  O136  1  0.41240000  0.81030000  0.46660000  1.0 -0.807640358
O  O137  1  0.50320000  0.73540000  0.06860000  1.0 -0.6422178499
O  O138  1  0.49680000  0.23540000  0.43140000  1.0 -0.6422178499
O  O139  1  0.49680000  0.26460000  0.93140000  1.0 -0.6422178499
O  O140  1  0.50320000  0.76460000  0.56860000  1.0 -0.6422178499
O  O141  1  0.52500000  0.73710000  0.97040000  1.0 -0.6304098867
O  O142  1  0.47500000  0.23710000  0.52960000  1.0 -0.6304098867
O  O143  1  0.47500000  0.26290000  0.02960000  1.0 -0.6304098867
O  O144  1  0.52500000  0.76290000  0.47040000  1.0 -0.6304098867
O  O145  1  0.74930000  0.52640000  0.27560000  1.0 -0.7442833386
O  O146  1  0.25070000  0.02640000  0.22440000  1.0 -0.7442833386
O  O147  1  0.25070000  0.47360000  0.72440000  1.0 -0.7442833386
O  O148  1  0.74930000  0.97360000  0.77560000  1.0 -0.7442833386
O  O149  1  0.58180000  0.56800000  0.16170000  1.0 -0.7088631518
O  O150  1  0.41820000  0.06800000  0.33830000  1.0 -0.7088631518
O  O151  1  0.41820000  0.43200000  0.83830000  1.0 -0.7088631518
O  O152  1  0.58180000  0.93200000  0.66170000  1.0 -0.7088631518
O  O153  1  0.64960000  0.57050000  0.30680000  1.0 -0.9162945055
O  O154  1  0.35040000  0.07050000  0.19320000  1.0 -0.9162945055
O  O155  1  0.35040000  0.42950000  0.69320000  1.0 -0.9162945055
O  O156  1  0.64960000  0.92950000  0.80680000  1.0 -0.9162945055
O  O157  1  0.75190000  0.42590000  0.90190000  1.0 -0.8992149137
O  O158  1  0.24810000  0.92590000  0.59810000  1.0 -0.8992149137
O  O159  1  0.24810000  0.57410000  0.09810000  1.0 -0.8992149137
O  O160  1  0.75190000  0.07410000  0.40190000  1.0 -0.8992149137
O  O161  1  0.55730000  0.47780000  0.81540000  1.0 -0.4254337154
O  O162  1  0.44270000  0.97780000  0.68460000  1.0 -0.4254337154
O  O163  1  0.44270000  0.52220000  0.18460000  1.0 -0.4254337154
O  O164  1  0.55730000  0.02220000  0.31540000  1.0 -0.4254337154
O  O165  1  0.57550000  0.43940000  0.73110000  1.0 -0.8193976583
O  O166  1  0.42450000  0.93940000  0.76890000  1.0 -0.8193976583
O  O167  1  0.42450000  0.56060000  0.26890000  1.0 -0.8193976583
O  O168  1  0.57550000  0.06060000  0.23110000  1.0 -0.8193976583
O  O169  1  0.49100000  0.50670000  0.65840000  1.0 -0.8193976583
O  O170  1  0.50900000  0.00670000  0.84160000  1.0 -0.8193976583
O  O171  1  0.50900000  0.49330000  0.34160000  1.0 -0.8193976583
O  O172  1  0.49100000  0.99330000  0.15840000  1.0 -0.8193976583
O  O173  1  0.33880000  0.50540000  0.67980000  1.0 -0.807640358
O  O174  1  0.66120000  0.00540000  0.82020000  1.0 -0.807640358
O  O175  1  0.66120000  0.49460000  0.32020000  1.0 -0.807640358
O  O176  1  0.33880000  0.99460000  0.17980000  1.0 -0.807640358
O  O177  1  0.61840000  0.47680000  0.63930000  1.0 -0.6178165801
O  O178  1  0.38160000  0.97680000  0.86070000  1.0 -0.6178165801
O  O179  1  0.38160000  0.52320000  0.36070000  1.0 -0.6178165801
O  O180  1  0.61840000  0.02320000  0.13930000  1.0 -0.6178165801
O  O181  1  0.61790000  0.53760000  0.64400000  1.0 -0.6016501687
O  O182  1  0.38210000  0.03760000  0.85600000  1.0 -0.6016501687
O  O183  1  0.38210000  0.46240000  0.35600000  1.0 -0.6016501687
O  O184  1  0.61790000  0.96240000  0.14400000  1.0 -0.6016501687
O  O185  1  0.72980000  0.37260000  0.97580000  1.0 -0.9545848443
O  O186  1  0.27020000  0.87260000  0.52420000  1.0 -0.9545848443
O  O187  1  0.27020000  0.62740000  0.02420000  1.0 -0.9545848443
O  O188  1  0.72980000  0.12740000  0.47580000  1.0 -0.955687394
O  O189  1  0.79900000  0.41940000  0.09410000  1.0 -0.7714217987
O  O190  1  0.20100000  0.91940000  0.40590000  1.0 -0.7714217987
O  O191  1  0.20100000  0.58060000  0.90590000  1.0 -0.7714217987
O  O192  1  0.79900000  0.08060000  0.59410000  1.0 -0.7714217987
O  O193  1  0.62050000  0.43170000  0.94310000  1.0 -0.7221277855
O  O194  1  0.37950000  0.93170000  0.55690000  1.0 -0.7221277855
O  O195  1  0.37950000  0.56830000  0.05690000  1.0 -0.7221277855
O  O196  1  0.62050000  0.06830000  0.44310000  1.0 -0.7221277855
O  O197  1  0.56480000  0.66640000  0.26200000  1.0 -0.7714217987
O  O198  1  0.43520000  0.16640000  0.23800000  1.0 -0.7714217987
O  O199  1  0.43520000  0.33360000  0.73800000  1.0 -0.7714217987
O  O200  1  0.56480000  0.83360000  0.76200000  1.0 -0.7714217987
O  O201  1  0.46410000  0.60620000  0.17350000  1.0 -0.8397551604
O  O202  1  0.53590000  0.10620000  0.32650000  1.0 -0.8397551604
O  O203  1  0.53590000  0.39380000  0.82650000  1.0 -0.8397551604
O  O204  1  0.46410000  0.89380000  0.67350000  1.0 -0.8397551604
O  O205  1  0.53580000  0.61490000  0.33100000  1.0 -0.7714217987
O  O206  1  0.46420000  0.11490000  0.16900000  1.0 -0.7714217987
O  O207  1  0.46420000  0.38510000  0.66900000  1.0 -0.7714217987
O  O208  1  0.53580000  0.88510000  0.83100000  1.0 -0.7714217987
O  O209  1  0.64480000  0.33190000  0.85050000  1.0 -0.7714217987
O  O210  1  0.35520000  0.83190000  0.64950000  1.0 -0.7714217987
O  O211  1  0.35520000  0.66810000  0.14950000  1.0 -0.7714217987
O  O212  1  0.64480000  0.16810000  0.35050000  1.0 -0.7714217987
O  O213  1  0.67190000  0.38330000  0.77840000  1.0 -0.7768116828
O  O214  1  0.32810000  0.88330000  0.72160000  1.0 -0.7768116828
O  O215  1  0.32810000  0.61670000  0.22160000  1.0 -0.7768116828
O  O216  1  0.67190000  0.11670000  0.27840000  1.0 -0.7768116828
O  O217  1  0.13070000  0.50370000  0.60150000  1.0 -0.659180706
O  O218  1  0.86930000  0.00370000  0.89850000  1.0 -0.659180706
O  O219  1  0.86930000  0.49630000  0.39850000  1.0 -0.659180706
O  O220  1  0.13070000  0.99630000  0.10150000  1.0 -0.659180706
O  O221  1  0.09290000  0.61750000  0.78840000  1.0 -0.6779887579
O  O222  1  0.90710000  0.11750000  0.71160000  1.0 -0.6779887579
O  O223  1  0.90710000  0.38250000  0.21160000  1.0 -0.6779887579
O  O224  1  0.09290000  0.88250000  0.28840000  1.0 -0.6779887579
O  O225  1  0.46630000  0.72130000  0.20060000  1.0 -0.6088604333
O  O226  1  0.53370000  0.22130000  0.29940000  1.0 -0.6088604333
O  O227  1  0.53370000  0.27870000  0.79940000  1.0 -0.6088604333
O  O228  1  0.46630000  0.77870000  0.70060000  1.0 -0.6088604333
O  O229  1  0.59090000  0.40280000  0.64630000  1.0 -0.6088604333
O  O230  1  0.40910000  0.90280000  0.85370000  1.0 -0.6088604333
O  O231  1  0.40910000  0.59720000  0.35370000  1.0 -0.6088604333
O  O232  1  0.59090000  0.09720000  0.14630000  1.0 -0.6088604333
