# DDEC6 charges by PACMAN v1.1 (https://github.com/mtap-research/PACMAN-charge/)
data_IXIKOR01_FSR_pacman
_symmetry_space_group_name_H-M   'P 1'
_cell_length_a   12.39190000
_cell_length_b   12.39190000
_cell_length_c   26.41300000
_cell_angle_alpha   83.31080000
_cell_angle_beta   96.68920000
_cell_angle_gamma   133.62700000
_symmetry_Int_Tables_number   1
_chemical_formula_structural   ZnH28C40N4O5
_chemical_formula_sum   'Zn4 H112 C160 N16 O20'
_cell_volume   2912.22561182
_cell_formula_units_Z   4
loop_
 _symmetry_equiv_pos_site_id
 _symmetry_equiv_pos_as_xyz
  1  'x, y, z'
loop_
 _atom_site_type_symbol
 _atom_site_label
 _atom_site_symmetry_multiplicity
 _atom_site_fract_x
 _atom_site_fract_y
 _atom_site_fract_z
 _atom_site_occupancy
 _atom_site_charge
Zn  Zn1  1  0.40702000  0.83620000  0.51012000  1.0 0.7680196797
Zn  Zn2  1  0.83620000  0.40702000  0.98988000  1.0 0.7680196797
Zn  Zn3  1  0.59298000  0.16380000  0.48988000  1.0 0.7680196797
Zn  Zn4  1  0.16380000  0.59298000  0.01012000  1.0 0.7680196797
H  H1  1  0.64680000  0.48600000  0.60590000  1.0 0.0796959316
H  H2  1  0.48600000  0.64680000  0.89410000  1.0 0.0796959316
H  H3  1  0.35320000  0.51400000  0.39410000  1.0 0.0796959316
H  H4  1  0.51400000  0.35320000  0.10590000  1.0 0.0796959316
H  H5  1  0.85590000  0.68630000  0.65090000  1.0 0.0904889967
H  H6  1  0.68630000  0.85590000  0.84910000  1.0 0.0904889967
H  H7  1  0.14410000  0.31370000  0.34910000  1.0 0.0904889967
H  H8  1  0.31370000  0.14410000  0.15090000  1.0 0.0904889967
H  H9  1  0.97440000  0.92840000  0.62210000  1.0 0.0904889967
H  H10  1  0.92840000  0.97440000  0.87790000  1.0 0.0904889967
H  H11  1  0.02560000  0.07160000  0.37790000  1.0 0.0904889967
H  H12  1  0.07160000  0.02560000  0.12210000  1.0 0.0904889967
H  H13  1  0.67460000  0.77000000  0.50340000  1.0 0.0904889967
H  H14  1  0.77000000  0.67460000  0.99660000  1.0 0.0904889967
H  H15  1  0.32540000  0.23000000  0.49660000  1.0 0.0904889967
H  H16  1  0.23000000  0.32540000  0.00340000  1.0 0.0904889967
H  H17  1  0.87980000  0.04940000  0.51010000  1.0 0.1106895607
H  H18  1  0.04940000  0.87980000  0.98990000  1.0 0.1106895607
H  H19  1  0.12020000  0.95060000  0.48990000  1.0 0.1106895607
H  H20  1  0.95060000  0.12020000  0.01010000  1.0 0.1106895607
H  H21  1  0.98540000  0.27480000  0.48870000  1.0 0.0904889967
H  H22  1  0.27480000  0.98540000  0.01130000  1.0 0.0904889967
H  H23  1  0.01460000  0.72520000  0.51130000  1.0 0.0904889967
H  H24  1  0.72520000  0.01460000  0.98870000  1.0 0.0904889967
H  H25  1  0.11780000  0.52440000  0.46730000  1.0 0.0904889967
H  H26  1  0.52440000  0.11780000  0.03270000  1.0 0.0904889967
H  H27  1  0.88220000  0.47560000  0.53270000  1.0 0.0904889967
H  H28  1  0.47560000  0.88220000  0.96730000  1.0 0.0904889967
H  H29  1  0.41000000  0.64300000  0.58570000  1.0 0.0702147155
H  H30  1  0.64300000  0.41000000  0.91430000  1.0 0.0702147155
H  H31  1  0.59000000  0.35700000  0.41430000  1.0 0.0702147155
H  H32  1  0.35700000  0.59000000  0.08570000  1.0 0.0702147155
H  H33  1  0.27760000  0.39340000  0.60710000  1.0 0.0904889967
H  H34  1  0.39340000  0.27760000  0.89290000  1.0 0.0904889967
H  H35  1  0.72240000  0.60660000  0.39290000  1.0 0.0904889967
H  H36  1  0.60660000  0.72240000  0.10710000  1.0 0.0904889967
H  H37  1  0.07730000  0.13570000  0.59070000  1.0 0.0904889967
H  H38  1  0.13570000  0.07730000  0.90930000  1.0 0.0904889967
H  H39  1  0.92270000  0.86430000  0.40930000  1.0 0.0904889967
H  H40  1  0.86430000  0.92270000  0.09070000  1.0 0.0904889967
H  H41  1  0.20410000  0.79610000  0.64040000  1.0 0.1208412845
H  H42  1  0.79610000  0.20410000  0.85960000  1.0 0.1208412845
H  H43  1  0.79590000  0.20390000  0.35960000  1.0 0.1208412845
H  H44  1  0.20390000  0.79590000  0.14040000  1.0 0.1208412845
H  H45  1  0.12310000  0.80670000  0.71350000  1.0 0.1208412845
H  H46  1  0.80670000  0.12310000  0.78650000  1.0 0.1208412845
H  H47  1  0.87690000  0.19330000  0.28650000  1.0 0.1208412845
H  H48  1  0.19330000  0.87690000  0.21350000  1.0 0.1208412845
H  H49  1  0.31150000  0.22250000  0.67060000  1.0 0.1208412845
H  H50  1  0.22250000  0.31150000  0.82940000  1.0 0.1208412845
H  H51  1  0.68850000  0.77750000  0.32940000  1.0 0.1208412845
H  H52  1  0.77750000  0.68850000  0.17060000  1.0 0.1208412845
H  H53  1  0.39090000  0.21170000  0.59790000  1.0 0.1106895607
H  H54  1  0.21170000  0.39090000  0.90210000  1.0 0.1106895607
H  H55  1  0.60910000  0.78830000  0.40210000  1.0 0.1106895607
H  H56  1  0.78830000  0.60910000  0.09790000  1.0 0.1106895607
H  H57  1  0.34960000  0.03380000  0.80020000  1.0 0.1386087124
H  H58  1  0.03380000  0.34960000  0.69980000  1.0 0.1386087124
H  H59  1  0.65040000  0.96620000  0.19980000  1.0 0.1386087124
H  H60  1  0.96620000  0.65040000  0.30020000  1.0 0.1386087124
H  H61  1  0.30080000  0.88980000  0.87620000  1.0 0.1106895607
H  H62  1  0.88980000  0.30080000  0.62380000  1.0 0.1106895607
H  H63  1  0.69920000  0.11020000  0.12380000  1.0 0.1106895607
H  H64  1  0.11020000  0.69920000  0.37620000  1.0 0.1106895607
H  H65  1  0.87180000  0.67720000  0.85890000  1.0 0.1106895607
H  H66  1  0.67720000  0.87180000  0.64110000  1.0 0.1106895607
H  H67  1  0.12820000  0.32280000  0.14110000  1.0 0.1106895607
H  H68  1  0.32280000  0.12820000  0.35890000  1.0 0.1106895607
H  H69  1  0.91810000  0.81950000  0.78210000  1.0 0.1285135482
H  H70  1  0.81950000  0.91810000  0.71790000  1.0 0.1285135482
H  H71  1  0.08190000  0.18050000  0.21790000  1.0 0.1285135482
H  H72  1  0.18050000  0.08190000  0.28210000  1.0 0.1285135482
H  H73  1  0.63400000  0.48160000  0.57190000  1.0 0.0904889967
H  H74  1  0.48160000  0.63400000  0.92810000  1.0 0.0904889967
H  H75  1  0.36600000  0.51840000  0.42810000  1.0 0.0904889967
H  H76  1  0.51840000  0.36600000  0.07190000  1.0 0.0904889967
H  H77  1  0.84250000  0.62850000  0.62730000  1.0 0.0998533254
H  H78  1  0.62850000  0.84250000  0.87270000  1.0 0.0998533254
H  H79  1  0.15750000  0.37150000  0.37270000  1.0 0.0998533254
H  H80  1  0.37150000  0.15750000  0.12730000  1.0 0.0998533254
H  H81  1  0.99600000  0.88560000  0.62250000  1.0 0.0904889967
H  H82  1  0.88560000  0.99600000  0.87750000  1.0 0.0904889967
H  H83  1  0.00400000  0.11440000  0.37750000  1.0 0.0904889967
H  H84  1  0.11440000  0.00400000  0.12250000  1.0 0.0904889967
H  H85  1  0.73280000  0.84880000  0.50680000  1.0 0.0796959316
H  H86  1  0.84880000  0.73280000  0.99320000  1.0 0.0796959316
H  H87  1  0.26720000  0.15120000  0.49320000  1.0 0.0796959316
H  H88  1  0.15120000  0.26720000  0.00680000  1.0 0.0796959316
H  H89  1  0.05090000  0.10390000  0.58680000  1.0 0.1208412845
H  H90  1  0.10390000  0.05090000  0.91320000  1.0 0.1208412845
H  H91  1  0.94910000  0.89610000  0.41320000  1.0 0.1106895607
H  H92  1  0.89610000  0.94910000  0.08680000  1.0 0.1208412845
H  H93  1  0.96130000  0.31650000  0.46690000  1.0 0.0904889967
H  H94  1  0.31650000  0.96130000  0.03310000  1.0 0.0904889967
H  H95  1  0.03870000  0.68350000  0.53310000  1.0 0.0904889967
H  H96  1  0.68350000  0.03870000  0.96690000  1.0 0.0904889967
H  H97  1  0.12580000  0.57480000  0.46170000  1.0 0.06069242
H  H98  1  0.57480000  0.12580000  0.03830000  1.0 0.06069242
H  H99  1  0.87420000  0.42520000  0.53830000  1.0 0.06069242
H  H100  1  0.42520000  0.87420000  0.96170000  1.0 0.06069242
H  H101  1  0.37380000  0.59700000  0.58040000  1.0 0.0998533254
H  H102  1  0.59700000  0.37380000  0.91960000  1.0 0.0998533254
H  H103  1  0.62620000  0.40300000  0.41960000  1.0 0.0998533254
H  H104  1  0.40300000  0.62620000  0.08040000  1.0 0.0998533254
H  H105  1  0.20940000  0.33860000  0.58560000  1.0 0.0904889967
H  H106  1  0.33860000  0.20940000  0.91440000  1.0 0.0904889967
H  H107  1  0.79060000  0.66140000  0.41440000  1.0 0.0904889967
H  H108  1  0.66140000  0.79060000  0.08560000  1.0 0.0904889967
H  H109  1  0.88370000  0.08290000  0.50560000  1.0 0.0904889967
H  H110  1  0.08290000  0.88370000  0.99440000  1.0 0.0904889967
H  H111  1  0.11630000  0.91710000  0.49440000  1.0 0.0904889967
H  H112  1  0.91710000  0.11630000  0.00560000  1.0 0.0904889967
C  C1  1  0.64000000  0.60820000  0.55020000  1.0 0.0702147155
C  C2  1  0.60820000  0.64000000  0.94980000  1.0 0.0702147155
C  C3  1  0.36000000  0.39180000  0.44980000  1.0 0.0702147155
C  C4  1  0.39180000  0.36000000  0.05020000  1.0 0.0702147155
C  C5  1  0.69430000  0.58310000  0.59430000  1.0 -0.0689583719
C  C6  1  0.58310000  0.69430000  0.90570000  1.0 -0.0689583719
C  C7  1  0.30570000  0.41690000  0.40570000  1.0 -0.0689583719
C  C8  1  0.41690000  0.30570000  0.09430000  1.0 -0.0689583719
C  C9  1  0.81960000  0.70300000  0.62130000  1.0 -0.0494521193
C  C10  1  0.70300000  0.81960000  0.87870000  1.0 -0.0494521193
C  C11  1  0.18040000  0.29700000  0.37870000  1.0 -0.0494521193
C  C12  1  0.29700000  0.18040000  0.12130000  1.0 -0.0494521193
C  C13  1  0.89060000  0.84820000  0.60410000  1.0 -0.0576252143
C  C14  1  0.84820000  0.89060000  0.89590000  1.0 -0.0576252143
C  C15  1  0.10940000  0.15180000  0.39590000  1.0 -0.0576252143
C  C16  1  0.15180000  0.10940000  0.10410000  1.0 -0.0576252143
C  C17  1  0.83630000  0.87310000  0.55990000  1.0 0.06069242
C  C18  1  0.87310000  0.83630000  0.94010000  1.0 0.06069242
C  C19  1  0.16370000  0.12690000  0.44010000  1.0 0.06069242
C  C20  1  0.12690000  0.16370000  0.05990000  1.0 0.06069242
C  C21  1  0.71100000  0.75320000  0.53290000  1.0 -0.0793929717
C  C22  1  0.75320000  0.71100000  0.96710000  1.0 -0.0793929717
C  C23  1  0.28900000  0.24680000  0.46710000  1.0 -0.0793929717
C  C24  1  0.24680000  0.28900000  0.03290000  1.0 -0.0793929717
C  C25  1  0.91820000  0.03580000  0.53980000  1.0 -0.0405665192
C  C26  1  0.03580000  0.91820000  0.96020000  1.0 -0.0405665192
C  C27  1  0.08180000  0.96420000  0.46020000  1.0 -0.0405665192
C  C28  1  0.96420000  0.08180000  0.03980000  1.0 -0.0405665192
C  C29  1  0.11840000  0.30940000  0.55000000  1.0 0.0399988154
C  C30  1  0.30940000  0.11840000  0.95000000  1.0 0.0399988154
C  C31  1  0.88160000  0.69060000  0.45000000  1.0 0.0399988154
C  C32  1  0.69060000  0.88160000  0.05000000  1.0 0.0399988154
C  C33  1  0.07050000  0.34850000  0.50810000  1.0 0.0099083866
C  C34  1  0.34850000  0.07050000  0.99190000  1.0 0.0099083866
C  C35  1  0.92950000  0.65150000  0.49190000  1.0 0.0099083866
C  C36  1  0.65150000  0.92950000  0.00810000  1.0 0.0099083866
C  C37  1  0.14990000  0.49810000  0.49530000  1.0 0.0702147155
C  C38  1  0.49810000  0.14990000  0.00470000  1.0 0.0702147155
C  C39  1  0.85010000  0.50190000  0.50470000  1.0 0.0702147155
C  C40  1  0.50190000  0.85010000  0.99530000  1.0 0.0702147155
C  C41  1  0.32490000  0.56910000  0.56630000  1.0 0.0399988154
C  C42  1  0.56910000  0.32490000  0.93370000  1.0 0.0399988154
C  C43  1  0.67510000  0.43090000  0.43370000  1.0 0.0399988154
C  C44  1  0.43090000  0.67510000  0.06630000  1.0 0.0399988154
C  C45  1  0.24560000  0.41960000  0.57910000  1.0 -0.1098700131
C  C46  1  0.41960000  0.24560000  0.92090000  1.0 -0.1098700131
C  C47  1  0.75440000  0.58040000  0.42090000  1.0 -0.1098700131
C  C48  1  0.58040000  0.75440000  0.07910000  1.0 -0.1098700131
C  C49  1  0.03820000  0.15400000  0.56260000  1.0 -0.0793929717
C  C50  1  0.15400000  0.03820000  0.93740000  1.0 -0.0793929717
C  C51  1  0.96180000  0.84600000  0.43740000  1.0 -0.0793929717
C  C52  1  0.84600000  0.96180000  0.06260000  1.0 -0.0793929717
C  C53  1  0.36340000  0.99920000  0.56630000  1.0 0.5266265904
C  C54  1  0.99920000  0.36340000  0.93370000  1.0 0.5266265904
C  C55  1  0.63660000  0.00080000  0.43370000  1.0 0.5266265904
C  C56  1  0.00080000  0.63660000  0.06630000  1.0 0.5266265904
C  C57  1  0.30610000  0.00450000  0.61220000  1.0 -0.0494521193
C  C58  1  0.00450000  0.30610000  0.88780000  1.0 -0.0494521193
C  C59  1  0.69390000  0.99550000  0.38780000  1.0 -0.0494521193
C  C60  1  0.99550000  0.69390000  0.11220000  1.0 -0.0494521193
C  C61  1  0.22630000  0.88210000  0.64660000  1.0 -0.1193131323
C  C62  1  0.88210000  0.22630000  0.85340000  1.0 -0.1193131323
C  C63  1  0.77370000  0.11790000  0.35340000  1.0 -0.1193131323
C  C64  1  0.11790000  0.77370000  0.14660000  1.0 -0.1193131323
C  C65  1  0.17950000  0.88910000  0.69060000  1.0 -0.2199318871
C  C66  1  0.88910000  0.17950000  0.80940000  1.0 -0.2199318871
C  C67  1  0.82050000  0.11090000  0.30940000  1.0 -0.2199318871
C  C68  1  0.11090000  0.82050000  0.19060000  1.0 -0.2199318871
C  C69  1  0.21860000  0.02140000  0.70000000  1.0 0.2483790551
C  C70  1  0.02140000  0.21860000  0.80000000  1.0 0.2483790551
C  C71  1  0.78140000  0.97860000  0.30000000  1.0 0.2483790551
C  C72  1  0.97860000  0.78140000  0.20000000  1.0 0.2483790551
C  C73  1  0.29180000  0.13740000  0.66510000  1.0 -0.2537086273
C  C74  1  0.13740000  0.29180000  0.83490000  1.0 -0.2537086273
C  C75  1  0.70820000  0.86260000  0.33490000  1.0 -0.2537086273
C  C76  1  0.86260000  0.70820000  0.16510000  1.0 -0.2537086273
C  C77  1  0.33810000  0.13030000  0.62120000  1.0 -0.2926422919
C  C78  1  0.13030000  0.33810000  0.87880000  1.0 -0.2926422919
C  C79  1  0.66190000  0.86970000  0.37880000  1.0 -0.2926422919
C  C80  1  0.86970000  0.66190000  0.12120000  1.0 -0.2926422919
C  C81  1  0.13700000  0.93540000  0.78770000  1.0 0.2187644352
C  C82  1  0.93540000  0.13700000  0.71230000  1.0 0.2187644352
C  C83  1  0.86300000  0.06460000  0.21230000  1.0 0.2187644352
C  C84  1  0.06460000  0.86300000  0.28770000  1.0 0.2187644352
C  C85  1  0.25400000  0.96180000  0.81230000  1.0 -0.1801154449
C  C86  1  0.96180000  0.25400000  0.68770000  1.0 -0.1801154449
C  C87  1  0.74600000  0.03820000  0.18770000  1.0 -0.1801154449
C  C88  1  0.03820000  0.74600000  0.31230000  1.0 -0.1801154449
C  C89  1  0.22360000  0.87460000  0.85720000  1.0 -0.1674413572
C  C90  1  0.87460000  0.22360000  0.64280000  1.0 -0.1674413572
C  C91  1  0.77640000  0.12540000  0.14280000  1.0 -0.1674413572
C  C92  1  0.12540000  0.77640000  0.35720000  1.0 -0.1674413572
C  C93  1  0.07890000  0.76530000  0.87370000  1.0 -0.0083406605
C  C94  1  0.76530000  0.07890000  0.62630000  1.0 -0.0083406605
C  C95  1  0.92110000  0.23470000  0.12630000  1.0 -0.0083406605
C  C96  1  0.23470000  0.92110000  0.37370000  1.0 -0.0083406605
C  C97  1  0.96770000  0.74730000  0.84700000  1.0 -0.1801154449
C  C98  1  0.74730000  0.96770000  0.65300000  1.0 -0.1801154449
C  C99  1  0.03230000  0.25270000  0.15300000  1.0 -0.1801154449
C  C100  1  0.25270000  0.03230000  0.34700000  1.0 -0.1801154449
C  C101  1  0.99410000  0.83290000  0.80140000  1.0 -0.2199318871
C  C102  1  0.83290000  0.99410000  0.69860000  1.0 -0.2199318871
C  C103  1  0.00590000  0.16710000  0.19860000  1.0 -0.2255492474
C  C104  1  0.16710000  0.00590000  0.30140000  1.0 -0.2255492474
C  C105  1  0.04400000  0.66940000  0.92210000  1.0 0.5477324312
C  C106  1  0.66940000  0.04400000  0.57790000  1.0 0.5477324312
C  C107  1  0.95600000  0.33060000  0.07790000  1.0 0.5477324312
C  C108  1  0.33060000  0.95600000  0.42210000  1.0 0.5477324312
C  C109  1  0.66280000  0.65060000  0.53380000  1.0 0.0702147155
C  C110  1  0.65060000  0.66280000  0.96620000  1.0 0.0702147155
C  C111  1  0.33720000  0.34940000  0.46620000  1.0 0.0702147155
C  C112  1  0.34940000  0.33720000  0.03380000  1.0 0.0702147155
C  C113  1  0.69560000  0.58460000  0.56990000  1.0 -0.0494521193
C  C114  1  0.58460000  0.69560000  0.93010000  1.0 -0.0494521193
C  C115  1  0.30440000  0.41540000  0.43010000  1.0 -0.0494521193
C  C116  1  0.41540000  0.30440000  0.06990000  1.0 -0.0494521193
C  C117  1  0.82050000  0.67270000  0.60320000  1.0 -0.0405665192
C  C118  1  0.67270000  0.82050000  0.89680000  1.0 -0.0405665192
C  C119  1  0.17950000  0.32730000  0.39680000  1.0 -0.0405665192
C  C120  1  0.32730000  0.17950000  0.10320000  1.0 -0.0405665192
C  C121  1  0.91250000  0.82670000  0.60030000  1.0 -0.0689583719
C  C122  1  0.82670000  0.91250000  0.89970000  1.0 -0.0689583719
C  C123  1  0.08750000  0.17330000  0.39970000  1.0 -0.0689583719
C  C124  1  0.17330000  0.08750000  0.10030000  1.0 -0.0689583719
C  C125  1  0.87970000  0.89270000  0.56420000  1.0 0.0099083866
C  C126  1  0.89270000  0.87970000  0.93580000  1.0 0.0099083866
C  C127  1  0.12030000  0.10730000  0.43580000  1.0 0.0099083866
C  C128  1  0.10730000  0.12030000  0.06420000  1.0 0.0099083866
C  C129  1  0.75470000  0.80470000  0.53100000  1.0 -0.1098700131
C  C130  1  0.80470000  0.75470000  0.96900000  1.0 -0.1098700131
C  C131  1  0.24530000  0.19530000  0.46900000  1.0 -0.1098700131
C  C132  1  0.19530000  0.24530000  0.03100000  1.0 -0.1098700131
C  C133  1  0.97360000  0.05240000  0.56200000  1.0 -0.0494521193
C  C134  1  0.05240000  0.97360000  0.93800000  1.0 -0.0494521193
C  C135  1  0.02640000  0.94760000  0.43800000  1.0 -0.0494521193
C  C136  1  0.94760000  0.02640000  0.06200000  1.0 -0.0494521193
C  C137  1  0.06910000  0.30190000  0.52680000  1.0 0.04658531
C  C138  1  0.30190000  0.06910000  0.97320000  1.0 0.04658531
C  C139  1  0.93090000  0.69810000  0.47320000  1.0 0.04658531
C  C140  1  0.69810000  0.93090000  0.02680000  1.0 0.04658531
C  C141  1  0.04410000  0.37270000  0.48970000  1.0 -0.1193131323
C  C142  1  0.37270000  0.04410000  0.01030000  1.0 -0.1193131323
C  C143  1  0.95590000  0.62730000  0.51030000  1.0 -0.1193131323
C  C144  1  0.62730000  0.95590000  0.98970000  1.0 -0.1193131323
C  C145  1  0.14250000  0.52750000  0.48650000  1.0 0.0399988154
C  C146  1  0.52750000  0.14250000  0.01350000  1.0 0.0399988154
C  C147  1  0.85750000  0.47250000  0.51350000  1.0 0.0399988154
C  C148  1  0.47250000  0.85750000  0.98650000  1.0 0.0399988154
C  C149  1  0.29120000  0.54080000  0.55760000  1.0 0.0796959316
C  C150  1  0.54080000  0.29120000  0.94240000  1.0 0.0796959316
C  C151  1  0.70880000  0.45920000  0.44240000  1.0 0.0796959316
C  C152  1  0.45920000  0.70880000  0.05760000  1.0 0.0796959316
C  C153  1  0.19260000  0.38600000  0.56080000  1.0 0.0023445824
C  C154  1  0.38600000  0.19260000  0.93920000  1.0 0.0023445824
C  C155  1  0.80740000  0.61400000  0.43920000  1.0 0.0023445824
C  C156  1  0.61400000  0.80740000  0.06080000  1.0 0.0023445824
C  C157  1  0.96370000  0.13370000  0.52950000  1.0 -0.0689583719
C  C158  1  0.13370000  0.96370000  0.97050000  1.0 -0.0689583719
C  C159  1  0.03630000  0.86630000  0.47050000  1.0 -0.0689583719
C  C160  1  0.86630000  0.03630000  0.02950000  1.0 -0.0689583719
N  N1  1  0.51050000  0.48250000  0.52300000  1.0 -0.0689583719
N  N2  1  0.48250000  0.51050000  0.97700000  1.0 -0.0689583719
N  N3  1  0.48950000  0.51750000  0.47700000  1.0 -0.0689583719
N  N4  1  0.51750000  0.48950000  0.02300000  1.0 -0.0576252143
N  N5  1  0.27700000  0.60840000  0.52440000  1.0 -0.2537086273
N  N6  1  0.60840000  0.27700000  0.97560000  1.0 -0.2537086273
N  N7  1  0.72300000  0.39160000  0.47560000  1.0 -0.2537086273
N  N8  1  0.39160000  0.72300000  0.02440000  1.0 -0.2537086273
N  N9  1  0.53380000  0.56080000  0.49920000  1.0 -0.0191810432
N  N10  1  0.56080000  0.53380000  0.00080000  1.0 -0.0191810432
N  N11  1  0.46620000  0.43920000  0.50080000  1.0 -0.0191810432
N  N12  1  0.43920000  0.46620000  0.99920000  1.0 -0.0191810432
N  N13  1  0.26610000  0.61150000  0.52050000  1.0 -0.2727981275
N  N14  1  0.61150000  0.26610000  0.97950000  1.0 -0.2727981275
N  N15  1  0.73390000  0.38850000  0.47950000  1.0 -0.2727981275
N  N16  1  0.38850000  0.73390000  0.02050000  1.0 -0.2727981275
O  O1  1  0.31560000  0.87400000  0.55680000  1.0 -0.5157097544
O  O2  1  0.87400000  0.31560000  0.94320000  1.0 -0.5128865108
O  O3  1  0.68440000  0.12600000  0.44320000  1.0 -0.5128865108
O  O4  1  0.12600000  0.68440000  0.05680000  1.0 -0.5157097544
O  O5  1  0.45170000  0.11790000  0.54050000  1.0 -0.5128865108
O  O6  1  0.11790000  0.45170000  0.95950000  1.0 -0.5128865108
O  O7  1  0.54830000  0.88210000  0.45950000  1.0 -0.5128865108
O  O8  1  0.88210000  0.54830000  0.04050000  1.0 -0.5128865108
O  O9  1  0.17160000  0.03260000  0.74330000  1.0 -0.2727981275
O  O10  1  0.03260000  0.17160000  0.75670000  1.0 -0.2727981275
O  O11  1  0.82840000  0.96740000  0.25670000  1.0 -0.2768123115
O  O12  1  0.96740000  0.82840000  0.24330000  1.0 -0.2768123115
O  O13  1  0.15510000  0.70190000  0.94840000  1.0 -0.533029821
O  O14  1  0.70190000  0.15510000  0.55160000  1.0 -0.533029821
O  O15  1  0.84490000  0.29810000  0.05160000  1.0 -0.533029821
O  O16  1  0.29810000  0.84490000  0.44840000  1.0 -0.533029821
O  O17  1  0.91230000  0.56690000  0.93270000  1.0 -0.4834161962
O  O18  1  0.56690000  0.91230000  0.56730000  1.0 -0.4834161962
O  O19  1  0.08770000  0.43310000  0.06730000  1.0 -0.4834161962
O  O20  1  0.43310000  0.08770000  0.43270000  1.0 -0.4834161962
