# DDEC6 charges by PACMAN v1.1 (https://github.com/mtap-research/PACMAN-charge/)
data_IXISUD_ASR_pacman
_symmetry_space_group_name_H-M   'P 1'
_cell_length_a   20.46300000
_cell_length_b   20.46300000
_cell_length_c   17.98900000
_cell_angle_alpha   90.00000000
_cell_angle_beta   90.00000000
_cell_angle_gamma   120.00000000
_symmetry_Int_Tables_number   1
_chemical_formula_structural   Cu6H24C25(I2N5)2
_chemical_formula_sum   'Cu36 H144 C150 I24 N60'
_cell_volume   6523.43383724
_cell_formula_units_Z   6
loop_
 _symmetry_equiv_pos_site_id
 _symmetry_equiv_pos_as_xyz
  1  'x, y, z'
loop_
 _atom_site_type_symbol
 _atom_site_label
 _atom_site_symmetry_multiplicity
 _atom_site_fract_x
 _atom_site_fract_y
 _atom_site_fract_z
 _atom_site_occupancy
 _atom_site_charge
Cu  Cu1  1  0.09222000  0.34004000  0.48494000  1.0 0.188856416
Cu  Cu2  1  0.65996000  0.75218000  0.48494000  1.0 0.188856416
Cu  Cu3  1  0.24782000  0.90778000  0.48494000  1.0 0.188856416
Cu  Cu4  1  0.34004000  0.24782000  0.98494000  1.0 0.188856416
Cu  Cu5  1  0.75218000  0.09222000  0.98494000  1.0 0.188856416
Cu  Cu6  1  0.34004000  0.09222000  0.51506000  1.0 0.188856416
Cu  Cu7  1  0.24782000  0.34004000  0.01506000  1.0 0.188856416
Cu  Cu8  1  0.09222000  0.75218000  0.01506000  1.0 0.188856416
Cu  Cu9  1  0.09222000  0.34004000  0.01506000  1.0 0.188856416
Cu  Cu10  1  0.24782000  0.34004000  0.48494000  1.0 0.188856416
Cu  Cu11  1  0.09222000  0.75218000  0.48494000  1.0 0.188856416
Cu  Cu12  1  0.34004000  0.09222000  0.98494000  1.0 0.188856416
Cu  Cu13  1  0.90778000  0.65996000  0.51506000  1.0 0.188856416
Cu  Cu14  1  0.34004000  0.24782000  0.51506000  1.0 0.188856416
Cu  Cu15  1  0.75218000  0.09222000  0.51506000  1.0 0.188856416
Cu  Cu16  1  0.65996000  0.75218000  0.01506000  1.0 0.188856416
Cu  Cu17  1  0.24782000  0.90778000  0.01506000  1.0 0.188856416
Cu  Cu18  1  0.65996000  0.90778000  0.48494000  1.0 0.188856416
Cu  Cu19  1  0.75218000  0.65996000  0.98494000  1.0 0.188856416
Cu  Cu20  1  0.90778000  0.24782000  0.98494000  1.0 0.188856416
Cu  Cu21  1  0.90778000  0.65996000  0.98494000  1.0 0.188856416
Cu  Cu22  1  0.75218000  0.65996000  0.51506000  1.0 0.188856416
Cu  Cu23  1  0.90778000  0.24782000  0.51506000  1.0 0.188856416
Cu  Cu24  1  0.65996000  0.90778000  0.01506000  1.0 0.188856416
Cu  Cu25  1  0.87657000  0.12343000  0.42372000  1.0 0.2968325972
Cu  Cu26  1  0.87657000  0.75314000  0.42372000  1.0 0.2968325972
Cu  Cu27  1  0.24686000  0.12343000  0.42372000  1.0 0.2968325972
Cu  Cu28  1  0.12343000  0.24686000  0.92372000  1.0 0.2941365454
Cu  Cu29  1  0.75314000  0.87657000  0.92372000  1.0 0.2968325972
Cu  Cu30  1  0.12343000  0.87657000  0.57628000  1.0 0.2941365454
Cu  Cu31  1  0.24686000  0.12343000  0.07628000  1.0 0.2941365454
Cu  Cu32  1  0.87657000  0.75314000  0.07628000  1.0 0.2941365454
Cu  Cu33  1  0.87657000  0.12343000  0.07628000  1.0 0.2941365454
Cu  Cu34  1  0.12343000  0.87657000  0.92372000  1.0 0.2941365454
Cu  Cu35  1  0.12343000  0.24686000  0.57628000  1.0 0.2941365454
Cu  Cu36  1  0.75314000  0.87657000  0.57628000  1.0 0.2968325972
H  H1  1  0.03650000  0.38410000  0.32440000  1.0 0.1281713517
H  H2  1  0.61590000  0.65240000  0.32440000  1.0 0.1281713517
H  H3  1  0.34760000  0.96350000  0.32440000  1.0 0.1281713517
H  H4  1  0.38410000  0.34760000  0.82440000  1.0 0.1281713517
H  H5  1  0.65240000  0.03650000  0.82440000  1.0 0.1281713517
H  H6  1  0.38410000  0.03650000  0.67560000  1.0 0.1281713517
H  H7  1  0.34760000  0.38410000  0.17560000  1.0 0.1281713517
H  H8  1  0.03650000  0.65240000  0.17560000  1.0 0.1281713517
H  H9  1  0.03650000  0.38410000  0.17560000  1.0 0.1281713517
H  H10  1  0.34760000  0.38410000  0.32440000  1.0 0.1281713517
H  H11  1  0.03650000  0.65240000  0.32440000  1.0 0.1281713517
H  H12  1  0.38410000  0.03650000  0.82440000  1.0 0.1281713517
H  H13  1  0.96350000  0.61590000  0.67560000  1.0 0.1281713517
H  H14  1  0.38410000  0.34760000  0.67560000  1.0 0.1281713517
H  H15  1  0.65240000  0.03650000  0.67560000  1.0 0.1281713517
H  H16  1  0.61590000  0.65240000  0.17560000  1.0 0.1281713517
H  H17  1  0.34760000  0.96350000  0.17560000  1.0 0.1281713517
H  H18  1  0.61590000  0.96350000  0.32440000  1.0 0.1281713517
H  H19  1  0.65240000  0.61590000  0.82440000  1.0 0.1281713517
H  H20  1  0.96350000  0.34760000  0.82440000  1.0 0.1281713517
H  H21  1  0.96350000  0.61590000  0.82440000  1.0 0.1281713517
H  H22  1  0.65240000  0.61590000  0.67560000  1.0 0.1281713517
H  H23  1  0.96350000  0.34760000  0.67560000  1.0 0.1281713517
H  H24  1  0.61590000  0.96350000  0.17560000  1.0 0.1281713517
H  H25  1  0.99800000  0.30600000  0.36380000  1.0 0.1196467516
H  H26  1  0.69400000  0.69200000  0.36380000  1.0 0.1196467516
H  H27  1  0.30800000  0.00200000  0.36380000  1.0 0.1196467516
H  H28  1  0.30600000  0.30800000  0.86380000  1.0 0.1196467516
H  H29  1  0.69200000  0.99800000  0.86380000  1.0 0.1196467516
H  H30  1  0.30600000  0.99800000  0.63620000  1.0 0.1196467516
H  H31  1  0.30800000  0.30600000  0.13620000  1.0 0.1196467516
H  H32  1  0.99800000  0.69200000  0.13620000  1.0 0.1196467516
H  H33  1  0.99800000  0.30600000  0.13620000  1.0 0.1196467516
H  H34  1  0.30800000  0.30600000  0.36380000  1.0 0.1196467516
H  H35  1  0.99800000  0.69200000  0.36380000  1.0 0.1196467516
H  H36  1  0.30600000  0.99800000  0.86380000  1.0 0.1196467516
H  H37  1  0.00200000  0.69400000  0.63620000  1.0 0.1196467516
H  H38  1  0.30600000  0.30800000  0.63620000  1.0 0.1196467516
H  H39  1  0.69200000  0.99800000  0.63620000  1.0 0.1196467516
H  H40  1  0.69400000  0.69200000  0.13620000  1.0 0.1196467516
H  H41  1  0.30800000  0.00200000  0.13620000  1.0 0.1196467516
H  H42  1  0.69400000  0.00200000  0.36380000  1.0 0.1196467516
H  H43  1  0.69200000  0.69400000  0.86380000  1.0 0.1196467516
H  H44  1  0.00200000  0.30800000  0.86380000  1.0 0.1196467516
H  H45  1  0.00200000  0.69400000  0.86380000  1.0 0.1196467516
H  H46  1  0.69200000  0.69400000  0.63620000  1.0 0.1196467516
H  H47  1  0.00200000  0.30800000  0.63620000  1.0 0.1196467516
H  H48  1  0.69400000  0.00200000  0.13620000  1.0 0.1196467516
H  H49  1  0.93580000  0.30090000  0.25000000  1.0 0.1082476302
H  H50  1  0.69910000  0.63490000  0.25000000  1.0 0.1082476302
H  H51  1  0.36510000  0.06420000  0.25000000  1.0 0.1082476302
H  H52  1  0.30090000  0.36510000  0.75000000  1.0 0.1082476302
H  H53  1  0.63490000  0.93580000  0.75000000  1.0 0.1082476302
H  H54  1  0.30090000  0.93580000  0.75000000  1.0 0.1082476302
H  H55  1  0.36510000  0.30090000  0.25000000  1.0 0.1082476302
H  H56  1  0.93580000  0.63490000  0.25000000  1.0 0.1082476302
H  H57  1  0.06420000  0.69910000  0.75000000  1.0 0.1082476302
H  H58  1  0.69910000  0.06420000  0.25000000  1.0 0.1082476302
H  H59  1  0.63490000  0.69910000  0.75000000  1.0 0.1082476302
H  H60  1  0.06420000  0.36510000  0.75000000  1.0 0.1082476302
H  H61  1  0.96440000  0.24350000  0.25000000  1.0 0.1196467516
H  H62  1  0.75650000  0.72090000  0.25000000  1.0 0.1196467516
H  H63  1  0.27910000  0.03560000  0.25000000  1.0 0.1196467516
H  H64  1  0.24350000  0.27910000  0.75000000  1.0 0.1196467516
H  H65  1  0.72090000  0.96440000  0.75000000  1.0 0.1196467516
H  H66  1  0.24350000  0.96440000  0.75000000  1.0 0.1196467516
H  H67  1  0.27910000  0.24350000  0.25000000  1.0 0.1196467516
H  H68  1  0.96440000  0.72090000  0.25000000  1.0 0.1196467516
H  H69  1  0.03560000  0.75650000  0.75000000  1.0 0.1196467516
H  H70  1  0.75650000  0.03560000  0.25000000  1.0 0.1196467516
H  H71  1  0.72090000  0.75650000  0.75000000  1.0 0.1196467516
H  H72  1  0.03560000  0.27910000  0.75000000  1.0 0.1196467516
H  H73  1  0.15460000  0.50930000  0.39800000  1.0 0.1365422158
H  H74  1  0.49070000  0.64530000  0.39800000  1.0 0.1365422158
H  H75  1  0.35470000  0.84540000  0.39800000  1.0 0.1365422158
H  H76  1  0.50930000  0.35470000  0.89800000  1.0 0.1365422158
H  H77  1  0.64530000  0.15460000  0.89800000  1.0 0.1365422158
H  H78  1  0.50930000  0.15460000  0.60200000  1.0 0.1365422158
H  H79  1  0.35470000  0.50930000  0.10200000  1.0 0.1365422158
H  H80  1  0.15460000  0.64530000  0.10200000  1.0 0.1365422158
H  H81  1  0.15460000  0.50930000  0.10200000  1.0 0.1365422158
H  H82  1  0.35470000  0.50930000  0.39800000  1.0 0.1365422158
H  H83  1  0.15460000  0.64530000  0.39800000  1.0 0.1365422158
H  H84  1  0.50930000  0.15460000  0.89800000  1.0 0.1365422158
H  H85  1  0.84540000  0.49070000  0.60200000  1.0 0.1365422158
H  H86  1  0.50930000  0.35470000  0.60200000  1.0 0.1365422158
H  H87  1  0.64530000  0.15460000  0.60200000  1.0 0.1365422158
H  H88  1  0.49070000  0.64530000  0.10200000  1.0 0.1365422158
H  H89  1  0.35470000  0.84540000  0.10200000  1.0 0.1365422158
H  H90  1  0.49070000  0.84540000  0.39800000  1.0 0.1365422158
H  H91  1  0.64530000  0.49070000  0.89800000  1.0 0.1365422158
H  H92  1  0.84540000  0.35470000  0.89800000  1.0 0.1365422158
H  H93  1  0.84540000  0.49070000  0.89800000  1.0 0.1365422158
H  H94  1  0.64530000  0.49070000  0.60200000  1.0 0.1365422158
H  H95  1  0.84540000  0.35470000  0.60200000  1.0 0.1365422158
H  H96  1  0.49070000  0.84540000  0.10200000  1.0 0.1365422158
H  H97  1  0.17940000  0.49090000  0.47300000  1.0 0.1281713517
H  H98  1  0.50910000  0.68850000  0.47300000  1.0 0.1281713517
H  H99  1  0.31150000  0.82060000  0.47300000  1.0 0.1281713517
H  H100  1  0.49090000  0.31150000  0.97300000  1.0 0.1281713517
H  H101  1  0.68850000  0.17940000  0.97300000  1.0 0.1281713517
H  H102  1  0.49090000  0.17940000  0.52700000  1.0 0.1281713517
H  H103  1  0.31150000  0.49090000  0.02700000  1.0 0.1281713517
H  H104  1  0.17940000  0.68850000  0.02700000  1.0 0.1281713517
H  H105  1  0.17940000  0.49090000  0.02700000  1.0 0.1281713517
H  H106  1  0.31150000  0.49090000  0.47300000  1.0 0.1281713517
H  H107  1  0.17940000  0.68850000  0.47300000  1.0 0.1281713517
H  H108  1  0.49090000  0.17940000  0.97300000  1.0 0.1281713517
H  H109  1  0.82060000  0.50910000  0.52700000  1.0 0.1281713517
H  H110  1  0.49090000  0.31150000  0.52700000  1.0 0.1281713517
H  H111  1  0.68850000  0.17940000  0.52700000  1.0 0.1281713517
H  H112  1  0.50910000  0.68850000  0.02700000  1.0 0.1281713517
H  H113  1  0.31150000  0.82060000  0.02700000  1.0 0.1281713517
H  H114  1  0.50910000  0.82060000  0.47300000  1.0 0.1281713517
H  H115  1  0.68850000  0.50910000  0.97300000  1.0 0.1281713517
H  H116  1  0.82060000  0.31150000  0.97300000  1.0 0.1281713517
H  H117  1  0.82060000  0.50910000  0.97300000  1.0 0.1281713517
H  H118  1  0.68850000  0.50910000  0.52700000  1.0 0.1281713517
H  H119  1  0.82060000  0.31150000  0.52700000  1.0 0.1281713517
H  H120  1  0.50910000  0.82060000  0.02700000  1.0 0.1281713517
H  H121  1  0.24350000  0.62175000  0.44560000  1.0 0.0999164114
H  H122  1  0.37825000  0.62175000  0.44560000  1.0 0.0999164114
H  H123  1  0.37825000  0.75650000  0.44560000  1.0 0.0999164114
H  H124  1  0.62175000  0.37825000  0.94560000  1.0 0.0999164114
H  H125  1  0.62175000  0.24350000  0.94560000  1.0 0.0999164114
H  H126  1  0.62175000  0.24350000  0.55440000  1.0 0.0999164114
H  H127  1  0.37825000  0.62175000  0.05440000  1.0 0.0999164114
H  H128  1  0.24350000  0.62175000  0.05440000  1.0 0.0999164114
H  H129  1  0.75650000  0.37825000  0.55440000  1.0 0.0999164114
H  H130  1  0.62175000  0.37825000  0.55440000  1.0 0.0999164114
H  H131  1  0.37825000  0.75650000  0.05440000  1.0 0.0999164114
H  H132  1  0.75650000  0.37825000  0.94560000  1.0 0.0999164114
H  H133  1  0.20550000  0.60275000  0.52320000  1.0 0.1082476302
H  H134  1  0.39725000  0.60275000  0.52320000  1.0 0.1082476302
H  H135  1  0.39725000  0.79450000  0.52320000  1.0 0.1082476302
H  H136  1  0.60275000  0.39725000  0.02320000  1.0 0.1082476302
H  H137  1  0.60275000  0.20550000  0.02320000  1.0 0.1082476302
H  H138  1  0.60275000  0.20550000  0.47680000  1.0 0.1082476302
H  H139  1  0.39725000  0.60275000  0.97680000  1.0 0.1082476302
H  H140  1  0.20550000  0.60275000  0.97680000  1.0 0.1082476302
H  H141  1  0.79450000  0.39725000  0.47680000  1.0 0.1082476302
H  H142  1  0.60275000  0.39725000  0.47680000  1.0 0.1082476302
H  H143  1  0.39725000  0.79450000  0.97680000  1.0 0.1082476302
H  H144  1  0.79450000  0.39725000  0.02320000  1.0 0.1082476302
C  C1  1  0.09970000  0.33260000  0.31890000  1.0 0.2200574452
C  C2  1  0.66740000  0.76710000  0.31890000  1.0 0.2200574452
C  C3  1  0.23290000  0.90030000  0.31890000  1.0 0.2200574452
C  C4  1  0.33260000  0.23290000  0.81890000  1.0 0.2200574452
C  C5  1  0.76710000  0.09970000  0.81890000  1.0 0.2200574452
C  C6  1  0.33260000  0.09970000  0.68110000  1.0 0.2200574452
C  C7  1  0.23290000  0.33260000  0.18110000  1.0 0.2200574452
C  C8  1  0.09970000  0.76710000  0.18110000  1.0 0.2200574452
C  C9  1  0.09970000  0.33260000  0.18110000  1.0 0.2200574452
C  C10  1  0.23290000  0.33260000  0.31890000  1.0 0.2200574452
C  C11  1  0.09970000  0.76710000  0.31890000  1.0 0.2200574452
C  C12  1  0.33260000  0.09970000  0.81890000  1.0 0.2200574452
C  C13  1  0.90030000  0.66740000  0.68110000  1.0 0.2200574452
C  C14  1  0.33260000  0.23290000  0.68110000  1.0 0.2200574452
C  C15  1  0.76710000  0.09970000  0.68110000  1.0 0.2200574452
C  C16  1  0.66740000  0.76710000  0.18110000  1.0 0.2200574452
C  C17  1  0.23290000  0.90030000  0.18110000  1.0 0.2200574452
C  C18  1  0.66740000  0.90030000  0.31890000  1.0 0.2200574452
C  C19  1  0.76710000  0.66740000  0.81890000  1.0 0.2200574452
C  C20  1  0.90030000  0.23290000  0.81890000  1.0 0.2200574452
C  C21  1  0.90030000  0.66740000  0.81890000  1.0 0.2200574452
C  C22  1  0.76710000  0.66740000  0.68110000  1.0 0.2200574452
C  C23  1  0.90030000  0.23290000  0.68110000  1.0 0.2200574452
C  C24  1  0.66740000  0.90030000  0.18110000  1.0 0.2200574452
C  C25  1  0.13110000  0.32920000  0.25000000  1.0 -0.0452433099
C  C26  1  0.67080000  0.80190000  0.25000000  1.0 -0.0452433099
C  C27  1  0.19810000  0.86890000  0.25000000  1.0 -0.0452433099
C  C28  1  0.32920000  0.19810000  0.75000000  1.0 -0.0452433099
C  C29  1  0.80190000  0.13110000  0.75000000  1.0 -0.0452433099
C  C30  1  0.32920000  0.13110000  0.75000000  1.0 -0.0452433099
C  C31  1  0.19810000  0.32920000  0.25000000  1.0 -0.0452433099
C  C32  1  0.13110000  0.80190000  0.25000000  1.0 -0.0452433099
C  C33  1  0.86890000  0.67080000  0.75000000  1.0 -0.0452433099
C  C34  1  0.67080000  0.86890000  0.25000000  1.0 -0.0452433099
C  C35  1  0.80190000  0.67080000  0.75000000  1.0 -0.0452433099
C  C36  1  0.86890000  0.19810000  0.75000000  1.0 -0.0452433099
C  C37  1  0.02640000  0.33300000  0.32080000  1.0 -0.2614914639
C  C38  1  0.66700000  0.69340000  0.32080000  1.0 -0.2614914639
C  C39  1  0.30660000  0.97360000  0.32080000  1.0 -0.2614914639
C  C40  1  0.33300000  0.30660000  0.82080000  1.0 -0.2614914639
C  C41  1  0.69340000  0.02640000  0.82080000  1.0 -0.2614914639
C  C42  1  0.33300000  0.02640000  0.67920000  1.0 -0.2614914639
C  C43  1  0.30660000  0.33300000  0.17920000  1.0 -0.2614914639
C  C44  1  0.02640000  0.69340000  0.17920000  1.0 -0.2614914639
C  C45  1  0.02640000  0.33300000  0.17920000  1.0 -0.2614914639
C  C46  1  0.30660000  0.33300000  0.32080000  1.0 -0.2614914639
C  C47  1  0.02640000  0.69340000  0.32080000  1.0 -0.2614914639
C  C48  1  0.33300000  0.02640000  0.82080000  1.0 -0.2614914639
C  C49  1  0.97360000  0.66700000  0.67920000  1.0 -0.2614914639
C  C50  1  0.33300000  0.30660000  0.67920000  1.0 -0.2614914639
C  C51  1  0.69340000  0.02640000  0.67920000  1.0 -0.2614914639
C  C52  1  0.66700000  0.69340000  0.17920000  1.0 -0.2614914639
C  C53  1  0.30660000  0.97360000  0.17920000  1.0 -0.2614914639
C  C54  1  0.66700000  0.97360000  0.32080000  1.0 -0.2614914639
C  C55  1  0.69340000  0.66700000  0.82080000  1.0 -0.2614914639
C  C56  1  0.97360000  0.30660000  0.82080000  1.0 -0.2614914639
C  C57  1  0.97360000  0.66700000  0.82080000  1.0 -0.2614914639
C  C58  1  0.69340000  0.66700000  0.67920000  1.0 -0.2614914639
C  C59  1  0.97360000  0.30660000  0.67920000  1.0 -0.2614914639
C  C60  1  0.66700000  0.97360000  0.17920000  1.0 -0.2614914639
C  C61  1  0.98020000  0.29620000  0.25000000  1.0 -0.1103364379
C  C62  1  0.70380000  0.68400000  0.25000000  1.0 -0.1103364379
C  C63  1  0.31600000  0.01980000  0.25000000  1.0 -0.1103364379
C  C64  1  0.29620000  0.31600000  0.75000000  1.0 -0.1103364379
C  C65  1  0.68400000  0.98020000  0.75000000  1.0 -0.1103364379
C  C66  1  0.29620000  0.98020000  0.75000000  1.0 -0.1103364379
C  C67  1  0.31600000  0.29620000  0.25000000  1.0 -0.1103364379
C  C68  1  0.98020000  0.68400000  0.25000000  1.0 -0.1103364379
C  C69  1  0.01980000  0.70380000  0.75000000  1.0 -0.1103364379
C  C70  1  0.70380000  0.01980000  0.25000000  1.0 -0.1103364379
C  C71  1  0.68400000  0.70380000  0.75000000  1.0 -0.1103364379
C  C72  1  0.01980000  0.31600000  0.75000000  1.0 -0.1103364379
C  C73  1  0.07380000  0.47620000  0.47750000  1.0 0.2093396912
C  C74  1  0.52380000  0.59760000  0.47750000  1.0 0.2093396912
C  C75  1  0.40240000  0.92620000  0.47750000  1.0 0.2093396912
C  C76  1  0.47620000  0.40240000  0.97750000  1.0 0.2093396912
C  C77  1  0.59760000  0.07380000  0.97750000  1.0 0.2093396912
C  C78  1  0.47620000  0.07380000  0.52250000  1.0 0.2093396912
C  C79  1  0.40240000  0.47620000  0.02250000  1.0 0.2093396912
C  C80  1  0.07380000  0.59760000  0.02250000  1.0 0.2093396912
C  C81  1  0.07380000  0.47620000  0.02250000  1.0 0.2093396912
C  C82  1  0.40240000  0.47620000  0.47750000  1.0 0.2093396912
C  C83  1  0.07380000  0.59760000  0.47750000  1.0 0.2093396912
C  C84  1  0.47620000  0.07380000  0.97750000  1.0 0.2093396912
C  C85  1  0.92620000  0.52380000  0.52250000  1.0 0.2093396912
C  C86  1  0.47620000  0.40240000  0.52250000  1.0 0.2093396912
C  C87  1  0.59760000  0.07380000  0.52250000  1.0 0.2093396912
C  C88  1  0.52380000  0.59760000  0.02250000  1.0 0.2093396912
C  C89  1  0.40240000  0.92620000  0.02250000  1.0 0.2093396912
C  C90  1  0.52380000  0.92620000  0.47750000  1.0 0.2093396912
C  C91  1  0.59760000  0.52380000  0.97750000  1.0 0.2093396912
C  C92  1  0.92620000  0.40240000  0.97750000  1.0 0.2093396912
C  C93  1  0.92620000  0.52380000  0.97750000  1.0 0.2093396912
C  C94  1  0.59760000  0.52380000  0.52250000  1.0 0.2093396912
C  C95  1  0.92620000  0.40240000  0.52250000  1.0 0.2093396912
C  C96  1  0.52380000  0.92620000  0.02250000  1.0 0.2093396912
C  C97  1  0.03720000  0.51860000  0.48800000  1.0 -0.0576594448
C  C98  1  0.48140000  0.51860000  0.48800000  1.0 -0.0576594448
C  C99  1  0.48140000  0.96280000  0.48800000  1.0 -0.0576594448
C  C100  1  0.51860000  0.48140000  0.98800000  1.0 -0.0576594448
C  C101  1  0.51860000  0.03720000  0.98800000  1.0 -0.0576594448
C  C102  1  0.51860000  0.03720000  0.51200000  1.0 -0.0576594448
C  C103  1  0.48140000  0.51860000  0.01200000  1.0 -0.0576594448
C  C104  1  0.03720000  0.51860000  0.01200000  1.0 -0.0576594448
C  C105  1  0.96280000  0.48140000  0.51200000  1.0 -0.0576594448
C  C106  1  0.51860000  0.48140000  0.51200000  1.0 -0.0576594448
C  C107  1  0.48140000  0.96280000  0.01200000  1.0 -0.0576594448
C  C108  1  0.96280000  0.48140000  0.98800000  1.0 -0.0576594448
C  C109  1  0.15400000  0.51480000  0.45100000  1.0 -0.2781217894
C  C110  1  0.48520000  0.63920000  0.45100000  1.0 -0.2781217894
C  C111  1  0.36080000  0.84600000  0.45100000  1.0 -0.2781217894
C  C112  1  0.51480000  0.36080000  0.95100000  1.0 -0.2781217894
C  C113  1  0.63920000  0.15400000  0.95100000  1.0 -0.2781217894
C  C114  1  0.51480000  0.15400000  0.54900000  1.0 -0.2781217894
C  C115  1  0.36080000  0.51480000  0.04900000  1.0 -0.2781217894
C  C116  1  0.15400000  0.63920000  0.04900000  1.0 -0.2781217894
C  C117  1  0.15400000  0.51480000  0.04900000  1.0 -0.2781217894
C  C118  1  0.36080000  0.51480000  0.45100000  1.0 -0.2781217894
C  C119  1  0.15400000  0.63920000  0.45100000  1.0 -0.2781217894
C  C120  1  0.51480000  0.15400000  0.95100000  1.0 -0.2781217894
C  C121  1  0.84600000  0.48520000  0.54900000  1.0 -0.2781217894
C  C122  1  0.51480000  0.36080000  0.54900000  1.0 -0.2781217894
C  C123  1  0.63920000  0.15400000  0.54900000  1.0 -0.2781217894
C  C124  1  0.48520000  0.63920000  0.04900000  1.0 -0.2781217894
C  C125  1  0.36080000  0.84600000  0.04900000  1.0 -0.2781217894
C  C126  1  0.48520000  0.84600000  0.45100000  1.0 -0.2781217894
C  C127  1  0.63920000  0.48520000  0.95100000  1.0 -0.2781217894
C  C128  1  0.84600000  0.36080000  0.95100000  1.0 -0.2781217894
C  C129  1  0.84600000  0.48520000  0.95100000  1.0 -0.2781217894
C  C130  1  0.63920000  0.48520000  0.54900000  1.0 -0.2781217894
C  C131  1  0.84600000  0.36080000  0.54900000  1.0 -0.2781217894
C  C132  1  0.48520000  0.84600000  0.04900000  1.0 -0.2781217894
C  C133  1  0.19570000  0.59785000  0.47070000  1.0 -0.1173434277
C  C134  1  0.40215000  0.59785000  0.47070000  1.0 -0.1173434277
C  C135  1  0.40215000  0.80430000  0.47070000  1.0 -0.1173434277
C  C136  1  0.59785000  0.40215000  0.97070000  1.0 -0.1173434277
C  C137  1  0.59785000  0.19570000  0.97070000  1.0 -0.1173434277
C  C138  1  0.59785000  0.19570000  0.52930000  1.0 -0.1173434277
C  C139  1  0.40215000  0.59785000  0.02930000  1.0 -0.1173434277
C  C140  1  0.19570000  0.59785000  0.02930000  1.0 -0.1173434277
C  C141  1  0.80430000  0.40215000  0.52930000  1.0 -0.1173434277
C  C142  1  0.59785000  0.40215000  0.52930000  1.0 -0.1173434277
C  C143  1  0.40215000  0.80430000  0.02930000  1.0 -0.1173434277
C  C144  1  0.80430000  0.40215000  0.97070000  1.0 -0.1173434277
C  C145  1  0.90960000  0.09040000  0.25000000  1.0 0.5635919272
C  C146  1  0.90960000  0.81920000  0.25000000  1.0 0.5635919272
C  C147  1  0.18080000  0.09040000  0.25000000  1.0 0.5666467994
C  C148  1  0.09040000  0.18080000  0.75000000  1.0 0.5666467994
C  C149  1  0.81920000  0.90960000  0.75000000  1.0 0.5666467994
C  C150  1  0.09040000  0.90960000  0.75000000  1.0 0.5666467994
I  I1  1  0.00000000  0.19454000  0.50000000  1.0 -0.2448662691
I  I2  1  0.80546000  0.80546000  0.50000000  1.0 -0.2448662691
I  I3  1  0.19454000  0.00000000  0.50000000  1.0 -0.2448662691
I  I4  1  0.19454000  0.19454000  0.00000000  1.0 -0.2478070111
I  I5  1  0.80546000  0.00000000  0.00000000  1.0 -0.2478070111
I  I6  1  0.00000000  0.80546000  0.00000000  1.0 -0.2448662691
I  I7  1  0.00000000  0.19454000  0.00000000  1.0 -0.2478070111
I  I8  1  0.19454000  0.19454000  0.50000000  1.0 -0.2448662691
I  I9  1  0.00000000  0.80546000  0.50000000  1.0 -0.2448662691
I  I10  1  0.19454000  0.00000000  0.00000000  1.0 -0.2478070111
I  I11  1  0.80546000  0.00000000  0.50000000  1.0 -0.2448662691
I  I12  1  0.80546000  0.80546000  0.00000000  1.0 -0.2478070111
I  I13  1  0.80511000  0.19489000  0.40782000  1.0 -0.3371655744
I  I14  1  0.80511000  0.61022000  0.40782000  1.0 -0.3371655744
I  I15  1  0.38978000  0.19489000  0.40782000  1.0 -0.3371655744
I  I16  1  0.19489000  0.38978000  0.90782000  1.0 -0.3371655744
I  I17  1  0.61022000  0.80511000  0.90782000  1.0 -0.3371655744
I  I18  1  0.19489000  0.80511000  0.59218000  1.0 -0.3371655744
I  I19  1  0.38978000  0.19489000  0.09218000  1.0 -0.3371655744
I  I20  1  0.80511000  0.61022000  0.09218000  1.0 -0.3371655744
I  I21  1  0.80511000  0.19489000  0.09218000  1.0 -0.3371655744
I  I22  1  0.19489000  0.80511000  0.90782000  1.0 -0.3371655744
I  I23  1  0.19489000  0.38978000  0.59218000  1.0 -0.3371655744
I  I24  1  0.61022000  0.80511000  0.59218000  1.0 -0.3371655744
N  N1  1  0.13580000  0.33980000  0.38200000  1.0 -0.1551704946
N  N2  1  0.66020000  0.79600000  0.38200000  1.0 -0.1551704946
N  N3  1  0.20400000  0.86420000  0.38200000  1.0 -0.1551704946
N  N4  1  0.33980000  0.20400000  0.88200000  1.0 -0.1551704946
N  N5  1  0.79600000  0.13580000  0.88200000  1.0 -0.1551704946
N  N6  1  0.33980000  0.13580000  0.61800000  1.0 -0.1545064748
N  N7  1  0.20400000  0.33980000  0.11800000  1.0 -0.1551704946
N  N8  1  0.13580000  0.79600000  0.11800000  1.0 -0.1551704946
N  N9  1  0.13580000  0.33980000  0.11800000  1.0 -0.1551704946
N  N10  1  0.20400000  0.33980000  0.38200000  1.0 -0.1551704946
N  N11  1  0.13580000  0.79600000  0.38200000  1.0 -0.1551704946
N  N12  1  0.33980000  0.13580000  0.88200000  1.0 -0.1551704946
N  N13  1  0.86420000  0.66020000  0.61800000  1.0 -0.1551704946
N  N14  1  0.33980000  0.20400000  0.61800000  1.0 -0.1545064748
N  N15  1  0.79600000  0.13580000  0.61800000  1.0 -0.1551704946
N  N16  1  0.66020000  0.79600000  0.11800000  1.0 -0.1551704946
N  N17  1  0.20400000  0.86420000  0.11800000  1.0 -0.1551704946
N  N18  1  0.66020000  0.86420000  0.38200000  1.0 -0.1551704946
N  N19  1  0.79600000  0.66020000  0.88200000  1.0 -0.1551704946
N  N20  1  0.86420000  0.20400000  0.88200000  1.0 -0.1551704946
N  N21  1  0.86420000  0.66020000  0.88200000  1.0 -0.1551704946
N  N22  1  0.79600000  0.66020000  0.61800000  1.0 -0.1551704946
N  N23  1  0.86420000  0.20400000  0.61800000  1.0 -0.1551704946
N  N24  1  0.66020000  0.86420000  0.11800000  1.0 -0.1551704946
N  N25  1  0.03770000  0.40190000  0.48940000  1.0 -0.1551704946
N  N26  1  0.59810000  0.63580000  0.48940000  1.0 -0.1551704946
N  N27  1  0.36420000  0.96230000  0.48940000  1.0 -0.1551704946
N  N28  1  0.40190000  0.36420000  0.98940000  1.0 -0.1551704946
N  N29  1  0.63580000  0.03770000  0.98940000  1.0 -0.1551704946
N  N30  1  0.40190000  0.03770000  0.51060000  1.0 -0.1551704946
N  N31  1  0.36420000  0.40190000  0.01060000  1.0 -0.1551704946
N  N32  1  0.03770000  0.63580000  0.01060000  1.0 -0.1551704946
N  N33  1  0.03770000  0.40190000  0.01060000  1.0 -0.1551704946
N  N34  1  0.36420000  0.40190000  0.48940000  1.0 -0.1551704946
N  N35  1  0.03770000  0.63580000  0.48940000  1.0 -0.1551704946
N  N36  1  0.40190000  0.03770000  0.98940000  1.0 -0.1551704946
N  N37  1  0.96230000  0.59810000  0.51060000  1.0 -0.1551704946
N  N38  1  0.40190000  0.36420000  0.51060000  1.0 -0.1551704946
N  N39  1  0.63580000  0.03770000  0.51060000  1.0 -0.1551704946
N  N40  1  0.59810000  0.63580000  0.01060000  1.0 -0.1551704946
N  N41  1  0.36420000  0.96230000  0.01060000  1.0 -0.1551704946
N  N42  1  0.59810000  0.96230000  0.48940000  1.0 -0.1551704946
N  N43  1  0.63580000  0.59810000  0.98940000  1.0 -0.1551704946
N  N44  1  0.96230000  0.36420000  0.98940000  1.0 -0.1551704946
N  N45  1  0.96230000  0.59810000  0.98940000  1.0 -0.1551704946
N  N46  1  0.63580000  0.59810000  0.51060000  1.0 -0.1551704946
N  N47  1  0.96230000  0.36420000  0.51060000  1.0 -0.1551704946
N  N48  1  0.59810000  0.96230000  0.01060000  1.0 -0.1551704946
N  N49  1  0.90240000  0.09760000  0.32210000  1.0 -0.6620654365
N  N50  1  0.90240000  0.80480000  0.32210000  1.0 -0.6620654365
N  N51  1  0.19520000  0.09760000  0.32210000  1.0 -0.6620654365
N  N52  1  0.09760000  0.19520000  0.82210000  1.0 -0.6620654365
N  N53  1  0.80480000  0.90240000  0.82210000  1.0 -0.6620654365
N  N54  1  0.09760000  0.90240000  0.67790000  1.0 -0.6620654365
N  N55  1  0.19520000  0.09760000  0.17790000  1.0 -0.6620654365
N  N56  1  0.90240000  0.80480000  0.17790000  1.0 -0.6620654365
N  N57  1  0.90240000  0.09760000  0.17790000  1.0 -0.6620654365
N  N58  1  0.09760000  0.90240000  0.82210000  1.0 -0.6620654365
N  N59  1  0.09760000  0.19520000  0.67790000  1.0 -0.6620654365
N  N60  1  0.80480000  0.90240000  0.67790000  1.0 -0.6620654365
