# DDEC6 charges by PACMAN v1.1 (https://github.com/mtap-research/PACMAN-charge/)
data_IYAKIE_ion_pacman
_symmetry_space_group_name_H-M   'P 1'
_cell_length_a   18.62840000
_cell_length_b   19.99900000
_cell_length_c   35.12300000
_cell_angle_alpha   90.00000000
_cell_angle_beta   90.00000000
_cell_angle_gamma   90.00000000
_symmetry_Int_Tables_number   1
_chemical_formula_structural   Ca2Cd4H65C74N4O33
_chemical_formula_sum   'Ca8 Cd16 H260 C296 N16 O132'
_cell_volume   13085.05157871
_cell_formula_units_Z   4
loop_
 _symmetry_equiv_pos_site_id
 _symmetry_equiv_pos_as_xyz
  1  'x, y, z'
loop_
 _atom_site_type_symbol
 _atom_site_label
 _atom_site_symmetry_multiplicity
 _atom_site_fract_x
 _atom_site_fract_y
 _atom_site_fract_z
 _atom_site_occupancy
 _atom_site_charge
Ca  Ca1  1  0.23396000  0.77774000  0.60644000  1.0 1.3997962373
Ca  Ca2  1  0.76604000  0.22226000  0.10644000  1.0 1.3997962373
Ca  Ca3  1  0.26604000  0.27774000  0.60644000  1.0 1.3997962373
Ca  Ca4  1  0.73396000  0.72226000  0.10644000  1.0 1.3997962373
Ca  Ca5  1  0.77118000  0.01954000  0.61684000  1.0 1.3997962373
Ca  Ca6  1  0.22882000  0.98046000  0.11684000  1.0 1.3997962373
Ca  Ca7  1  0.72882000  0.51954000  0.61684000  1.0 1.3997962373
Ca  Ca8  1  0.27118000  0.48046000  0.11684000  1.0 1.3997962373
Cd  Cd1  1  0.22973000  0.81886000  0.71112000  1.0 0.9794413345
Cd  Cd2  1  0.77027000  0.18114000  0.21112000  1.0 0.9794413345
Cd  Cd3  1  0.27027000  0.31886000  0.71112000  1.0 0.9794413345
Cd  Cd4  1  0.72973000  0.68114000  0.21112000  1.0 0.9794413345
Cd  Cd5  1  0.25795000  0.74735000  0.50412000  1.0 0.9794413345
Cd  Cd6  1  0.74205000  0.25265000  0.00412000  1.0 0.9794413345
Cd  Cd7  1  0.24205000  0.24735000  0.50412000  1.0 0.9794413345
Cd  Cd8  1  0.75795000  0.75265000  0.00412000  1.0 0.9794413345
Cd  Cd9  1  0.74530000  0.06044000  0.51810000  1.0 0.987085958
Cd  Cd10  1  0.25470000  0.93956000  0.01810000  1.0 0.987085958
Cd  Cd11  1  0.75470000  0.56044000  0.51810000  1.0 0.987085958
Cd  Cd12  1  0.24530000  0.43956000  0.01810000  1.0 0.987085958
Cd  Cd13  1  0.73430000  0.49941000  0.71908000  1.0 0.9462371068
Cd  Cd14  1  0.26570000  0.50059000  0.21908000  1.0 0.9462371068
Cd  Cd15  1  0.76570000  0.99941000  0.71908000  1.0 0.9462371068
Cd  Cd16  1  0.23430000  0.00059000  0.21908000  1.0 0.9462371068
H  H1  1  0.43100000  0.69980000  0.73320000  1.0 0.1106845426
H  H2  1  0.56900000  0.30020000  0.23320000  1.0 0.1106845426
H  H3  1  0.06900000  0.19980000  0.73320000  1.0 0.1106845426
H  H4  1  0.93100000  0.80020000  0.23320000  1.0 0.1106845426
H  H5  1  0.53890000  0.64230000  0.73710000  1.0 0.1213074491
H  H6  1  0.46110000  0.35770000  0.23710000  1.0 0.1213074491
H  H7  1  0.96110000  0.14230000  0.73710000  1.0 0.1213074491
H  H8  1  0.03890000  0.85770000  0.23710000  1.0 0.1213074491
H  H9  1  0.52310000  0.60070000  0.62500000  1.0 0.1298351265
H  H10  1  0.47690000  0.39930000  0.12500000  1.0 0.1298351265
H  H11  1  0.97690000  0.10070000  0.62500000  1.0 0.1298351265
H  H12  1  0.02310000  0.89930000  0.12500000  1.0 0.1298351265
H  H13  1  0.41490000  0.65500000  0.62270000  1.0 0.1298351265
H  H14  1  0.58510000  0.34500000  0.12270000  1.0 0.1298351265
H  H15  1  0.08510000  0.15500000  0.62270000  1.0 0.1298351265
H  H16  1  0.91490000  0.84500000  0.12270000  1.0 0.1298351265
H  H17  1  0.00240000  0.71120000  0.61630000  1.0 0.1298351265
H  H18  1  0.99760000  0.28880000  0.11630000  1.0 0.1298351265
H  H19  1  0.49760000  0.21120000  0.61630000  1.0 0.1298351265
H  H20  1  0.50240000  0.78880000  0.11630000  1.0 0.1298351265
H  H21  1  0.89920000  0.64860000  0.62260000  1.0 0.1298351265
H  H22  1  0.10080000  0.35140000  0.12260000  1.0 0.1298351265
H  H23  1  0.60080000  0.14860000  0.62260000  1.0 0.1298351265
H  H24  1  0.39920000  0.85140000  0.12260000  1.0 0.1298351265
H  H25  1  0.94340000  0.61640000  0.73300000  1.0 0.1106845426
H  H26  1  0.05660000  0.38360000  0.23300000  1.0 0.1106845426
H  H27  1  0.55660000  0.11640000  0.73300000  1.0 0.1106845426
H  H28  1  0.44340000  0.88360000  0.23300000  1.0 0.1106845426
H  H29  1  0.04750000  0.67630000  0.72660000  1.0 0.1213074491
H  H30  1  0.95250000  0.32370000  0.22660000  1.0 0.1213074491
H  H31  1  0.45250000  0.17630000  0.72660000  1.0 0.1213074491
H  H32  1  0.54750000  0.82370000  0.22660000  1.0 0.1213074491
H  H33  1  0.05290000  0.87950000  0.47330000  1.0 0.1298351265
H  H34  1  0.94710000  0.12050000  0.97330000  1.0 0.1298351265
H  H35  1  0.44710000  0.37950000  0.47330000  1.0 0.1298351265
H  H36  1  0.55290000  0.62050000  0.97330000  1.0 0.1298351265
H  H37  1  0.94700000  0.94120000  0.47850000  1.0 0.1298351265
H  H38  1  0.05300000  0.05880000  0.97850000  1.0 0.1298351265
H  H39  1  0.55300000  0.44120000  0.47850000  1.0 0.1298351265
H  H40  1  0.44700000  0.55880000  0.97850000  1.0 0.1298351265
H  H41  1  0.94370000  0.91330000  0.58940000  1.0 0.1213074491
H  H42  1  0.05630000  0.08670000  0.08940000  1.0 0.1213074491
H  H43  1  0.55630000  0.41330000  0.58940000  1.0 0.1213074491
H  H44  1  0.44370000  0.58670000  0.08940000  1.0 0.1213074491
H  H45  1  0.05760000  0.86100000  0.58620000  1.0 0.1213074491
H  H46  1  0.94240000  0.13900000  0.08620000  1.0 0.1213074491
H  H47  1  0.44240000  0.36100000  0.58620000  1.0 0.1213074491
H  H48  1  0.55760000  0.63900000  0.08620000  1.0 0.1213074491
H  H49  1  0.19440000  0.57680000  0.41190000  1.0 0.1395595002
H  H50  1  0.80560000  0.42320000  0.91190000  1.0 0.1395595002
H  H51  1  0.30560000  0.07680000  0.41190000  1.0 0.1395595002
H  H52  1  0.69440000  0.92320000  0.91190000  1.0 0.1395595002
H  H53  1  0.18720000  0.53240000  0.34920000  1.0 0.1213074491
H  H54  1  0.81280000  0.46760000  0.84920000  1.0 0.1213074491
H  H55  1  0.31280000  0.03240000  0.34920000  1.0 0.1213074491
H  H56  1  0.68720000  0.96760000  0.84920000  1.0 0.1213074491
H  H57  1  0.33810000  0.66140000  0.31650000  1.0 0.1106845426
H  H58  1  0.66190000  0.33860000  0.81650000  1.0 0.1106845426
H  H59  1  0.16190000  0.16140000  0.31650000  1.0 0.1106845426
H  H60  1  0.83810000  0.83860000  0.81650000  1.0 0.1106845426
H  H61  1  0.32670000  0.71670000  0.37350000  1.0 0.1213074491
H  H62  1  0.67330000  0.28330000  0.87350000  1.0 0.1213074491
H  H63  1  0.17330000  0.21670000  0.37350000  1.0 0.1213074491
H  H64  1  0.82670000  0.78330000  0.87350000  1.0 0.1213074491
H  H65  1  0.44930000  0.86030000  0.61140000  1.0 0.1213074491
H  H66  1  0.55070000  0.13970000  0.11140000  1.0 0.1213074491
H  H67  1  0.05070000  0.36030000  0.61140000  1.0 0.1213074491
H  H68  1  0.94930000  0.63970000  0.11140000  1.0 0.1213074491
H  H69  1  0.55780000  0.91770000  0.61460000  1.0 0.1213074491
H  H70  1  0.44220000  0.08230000  0.11460000  1.0 0.1213074491
H  H71  1  0.94220000  0.41770000  0.61460000  1.0 0.1213074491
H  H72  1  0.05780000  0.58230000  0.11460000  1.0 0.1213074491
H  H73  1  0.56770000  0.92530000  0.50190000  1.0 0.1395595002
H  H74  1  0.43230000  0.07470000  0.00190000  1.0 0.1395595002
H  H75  1  0.93230000  0.42530000  0.50190000  1.0 0.1395595002
H  H76  1  0.06770000  0.57470000  0.00190000  1.0 0.1395595002
H  H77  1  0.45740000  0.87430000  0.49490000  1.0 0.1395595002
H  H78  1  0.54260000  0.12570000  0.99490000  1.0 0.1395595002
H  H79  1  0.04260000  0.37430000  0.49490000  1.0 0.1395595002
H  H80  1  0.95740000  0.62570000  0.99490000  1.0 0.1395595002
H  H81  1  0.34820000  0.03190000  0.65020000  1.0 0.1106845426
H  H82  1  0.65180000  0.96810000  0.15020000  1.0 0.1106845426
H  H83  1  0.15180000  0.53190000  0.65020000  1.0 0.1106845426
H  H84  1  0.84820000  0.46810000  0.15020000  1.0 0.1106845426
H  H85  1  0.33560000  0.11930000  0.60930000  1.0 0.1213074491
H  H86  1  0.66440000  0.88070000  0.10930000  1.0 0.1213074491
H  H87  1  0.16440000  0.61930000  0.60930000  1.0 0.1213074491
H  H88  1  0.83560000  0.38070000  0.10930000  1.0 0.1213074491
H  H89  1  0.16410000  0.02600000  0.55880000  1.0 0.1298351265
H  H90  1  0.83590000  0.97400000  0.05880000  1.0 0.1298351265
H  H91  1  0.33590000  0.52600000  0.55880000  1.0 0.1298351265
H  H92  1  0.66410000  0.47400000  0.05880000  1.0 0.1298351265
H  H93  1  0.17940000  0.93500000  0.59950000  1.0 0.1213074491
H  H94  1  0.82060000  0.06500000  0.09950000  1.0 0.1213074491
H  H95  1  0.32060000  0.43500000  0.59950000  1.0 0.1213074491
H  H96  1  0.67940000  0.56500000  0.09950000  1.0 0.1213074491
H  H97  1  0.82880000  0.18350000  0.62550000  1.0 0.1213074491
H  H98  1  0.17120000  0.81650000  0.12550000  1.0 0.1213074491
H  H99  1  0.67120000  0.68350000  0.62550000  1.0 0.1213074491
H  H100  1  0.32880000  0.31650000  0.12550000  1.0 0.1213074491
H  H101  1  0.85050000  0.28050000  0.66160000  1.0 0.1213074491
H  H102  1  0.14950000  0.71950000  0.16160000  1.0 0.1213074491
H  H103  1  0.64950000  0.78050000  0.66160000  1.0 0.1213074491
H  H104  1  0.35050000  0.21950000  0.16160000  1.0 0.1213074491
H  H105  1  0.67620000  0.36540000  0.61660000  1.0 0.1213074491
H  H106  1  0.32380000  0.63460000  0.11660000  1.0 0.1213074491
H  H107  1  0.82380000  0.86540000  0.61660000  1.0 0.1213074491
H  H108  1  0.17620000  0.13460000  0.11660000  1.0 0.1213074491
H  H109  1  0.65800000  0.27210000  0.57860000  1.0 0.1213074491
H  H110  1  0.34200000  0.72790000  0.07860000  1.0 0.1213074491
H  H111  1  0.84200000  0.77210000  0.57860000  1.0 0.1213074491
H  H112  1  0.15800000  0.22790000  0.07860000  1.0 0.1213074491
H  H113  1  0.81160000  0.20780000  0.41340000  1.0 0.1298351265
H  H114  1  0.18840000  0.79220000  0.91340000  1.0 0.1298351265
H  H115  1  0.68840000  0.70780000  0.41340000  1.0 0.1298351265
H  H116  1  0.31160000  0.29220000  0.91340000  1.0 0.1298351265
H  H117  1  0.82170000  0.23540000  0.34850000  1.0 0.1213074491
H  H118  1  0.17830000  0.76460000  0.84850000  1.0 0.1213074491
H  H119  1  0.67830000  0.73540000  0.34850000  1.0 0.1213074491
H  H120  1  0.32170000  0.26460000  0.84850000  1.0 0.1213074491
H  H121  1  0.66880000  0.09540000  0.32770000  1.0 0.1106845426
H  H122  1  0.33120000  0.90460000  0.82770000  1.0 0.1106845426
H  H123  1  0.83120000  0.59540000  0.32770000  1.0 0.1106845426
H  H124  1  0.16880000  0.40460000  0.82770000  1.0 0.1106845426
H  H125  1  0.66640000  0.07080000  0.39050000  1.0 0.1213074491
H  H126  1  0.33360000  0.92920000  0.89050000  1.0 0.1213074491
H  H127  1  0.83360000  0.57080000  0.39050000  1.0 0.1213074491
H  H128  1  0.16640000  0.42920000  0.89050000  1.0 0.1213074491
H  H129  1  0.00590000  0.81070000  0.74590000  1.0 0.1395595002
H  H130  1  0.99410000  0.18930000  0.24590000  1.0 0.1395595002
H  H131  1  0.49410000  0.31070000  0.74590000  1.0 0.1395595002
H  H132  1  0.50590000  0.68930000  0.24590000  1.0 0.1395595002
H  H133  1  0.07570000  0.82170000  0.77000000  1.0 0.1701621907
H  H134  1  0.92430000  0.17830000  0.27000000  1.0 0.1701621907
H  H135  1  0.42430000  0.32170000  0.77000000  1.0 0.1701621907
H  H136  1  0.57570000  0.67830000  0.27000000  1.0 0.1701621907
H  H137  1  0.01230000  0.87300000  0.77280000  1.0 0.1532706516
H  H138  1  0.98770000  0.12700000  0.27280000  1.0 0.1532706516
H  H139  1  0.48770000  0.37300000  0.77280000  1.0 0.1532706516
H  H140  1  0.51230000  0.62700000  0.27280000  1.0 0.1532706516
H  H141  1  0.92750000  0.89570000  0.72310000  1.0 0.1395595002
H  H142  1  0.07250000  0.10430000  0.22310000  1.0 0.1395595002
H  H143  1  0.57250000  0.39570000  0.72310000  1.0 0.1395595002
H  H144  1  0.42750000  0.60430000  0.22310000  1.0 0.1395595002
H  H145  1  0.92240000  0.92720000  0.68230000  1.0 0.1395595002
H  H146  1  0.07760000  0.07280000  0.18230000  1.0 0.1395595002
H  H147  1  0.57760000  0.42720000  0.68230000  1.0 0.1395595002
H  H148  1  0.42240000  0.57280000  0.18230000  1.0 0.1395595002
H  H149  1  0.93820000  0.85060000  0.68700000  1.0 0.1298351265
H  H150  1  0.06180000  0.14940000  0.18700000  1.0 0.1298351265
H  H151  1  0.56180000  0.35060000  0.68700000  1.0 0.1298351265
H  H152  1  0.43820000  0.64940000  0.18700000  1.0 0.1298351265
H  H153  1  0.07540000  0.91030000  0.64800000  1.0 0.1395595002
H  H154  1  0.92460000  0.08970000  0.14800000  1.0 0.1395595002
H  H155  1  0.42460000  0.41030000  0.64800000  1.0 0.1395595002
H  H156  1  0.57540000  0.58970000  0.14800000  1.0 0.1395595002
H  H157  1  0.01730000  0.96630000  0.65310000  1.0 0.1298351265
H  H158  1  0.98270000  0.03370000  0.15310000  1.0 0.1298351265
H  H159  1  0.48270000  0.46630000  0.65310000  1.0 0.1298351265
H  H160  1  0.51730000  0.53370000  0.15310000  1.0 0.1298351265
H  H161  1  0.09270000  0.97370000  0.67260000  1.0 0.1395595002
H  H162  1  0.90730000  0.02630000  0.17260000  1.0 0.1395595002
H  H163  1  0.40730000  0.47370000  0.67260000  1.0 0.1395595002
H  H164  1  0.59270000  0.52630000  0.17260000  1.0 0.1395595002
H  H165  1  0.30260000  0.73160000  0.22000000  1.0 0.1395595002
H  H166  1  0.34820000  0.70200000  0.25350000  1.0 0.1395595002
H  H167  1  0.37360000  0.76730000  0.23280000  1.0 0.1213074491
H  H168  1  0.39160000  0.77970000  0.29110000  1.0 0.1298351265
H  H169  1  0.33830000  0.81340000  0.31990000  1.0 0.1395595002
H  H170  1  0.36640000  0.85360000  0.28460000  1.0 0.1395595002
H  H171  1  0.26530000  0.81890000  0.25890000  1.0 0.2750678556
H  H172  1  0.25870000  0.76050000  0.28420000  1.0 0.2673256146
H  H173  1  0.69740000  0.26840000  0.72000000  1.0 0.1395595002
H  H174  1  0.65180000  0.29800000  0.75350000  1.0 0.1395595002
H  H175  1  0.62640000  0.23270000  0.73280000  1.0 0.1213074491
H  H176  1  0.60840000  0.22030000  0.79110000  1.0 0.1298351265
H  H177  1  0.66170000  0.18660000  0.81990000  1.0 0.1395595002
H  H178  1  0.63360000  0.14640000  0.78460000  1.0 0.1395595002
H  H179  1  0.73470000  0.18110000  0.75890000  1.0 0.2750678556
H  H180  1  0.74130000  0.23950000  0.78420000  1.0 0.2673256146
H  H181  1  0.19740000  0.23160000  0.22000000  1.0 0.1395595002
H  H182  1  0.15180000  0.20200000  0.25350000  1.0 0.1395595002
H  H183  1  0.12640000  0.26730000  0.23280000  1.0 0.1213074491
H  H184  1  0.10840000  0.27970000  0.29110000  1.0 0.1298351265
H  H185  1  0.16170000  0.31340000  0.31990000  1.0 0.1395595002
H  H186  1  0.13360000  0.35360000  0.28460000  1.0 0.1395595002
H  H187  1  0.23470000  0.31890000  0.25890000  1.0 0.2750678556
H  H188  1  0.24130000  0.26050000  0.28420000  1.0 0.2673256146
H  H189  1  0.80260000  0.76840000  0.72000000  1.0 0.1395595002
H  H190  1  0.84820000  0.79800000  0.75350000  1.0 0.1395595002
H  H191  1  0.87360000  0.73270000  0.73280000  1.0 0.1213074491
H  H192  1  0.89160000  0.72030000  0.79110000  1.0 0.1298351265
H  H193  1  0.83830000  0.68660000  0.81990000  1.0 0.1395595002
H  H194  1  0.86640000  0.64640000  0.78460000  1.0 0.1395595002
H  H195  1  0.76530000  0.68110000  0.75890000  1.0 0.2750678556
H  H196  1  0.75870000  0.73950000  0.78420000  1.0 0.2673256146
H  H197  1  0.83600000  0.44640000  0.22260000  1.0 0.1213074491
H  H198  1  0.80880000  0.37250000  0.21880000  1.0 0.1395595002
H  H199  1  0.85190000  0.39460000  0.25500000  1.0 0.1213074491
H  H200  1  0.68890000  0.34270000  0.25950000  1.0 0.1298351265
H  H201  1  0.70120000  0.37730000  0.29900000  1.0 0.1213074491
H  H202  1  0.76320000  0.33590000  0.28010000  1.0 0.1395595002
H  H203  1  0.71700000  0.44120000  0.23810000  1.0 0.2750678556
H  H204  1  0.75700000  0.46040000  0.27220000  1.0 0.2673256146
H  H205  1  0.16400000  0.55360000  0.72260000  1.0 0.1213074491
H  H206  1  0.19120000  0.62750000  0.71880000  1.0 0.1395595002
H  H207  1  0.14810000  0.60540000  0.75500000  1.0 0.1213074491
H  H208  1  0.31110000  0.65730000  0.75950000  1.0 0.1298351265
H  H209  1  0.29880000  0.62270000  0.79900000  1.0 0.1213074491
H  H210  1  0.23680000  0.66410000  0.78010000  1.0 0.1395595002
H  H211  1  0.28300000  0.55880000  0.73810000  1.0 0.2750678556
H  H212  1  0.24300000  0.53960000  0.77220000  1.0 0.2673256146
H  H213  1  0.66400000  0.94640000  0.22260000  1.0 0.1213074491
H  H214  1  0.69120000  0.87250000  0.21880000  1.0 0.1395595002
H  H215  1  0.64810000  0.89460000  0.25500000  1.0 0.1213074491
H  H216  1  0.81110000  0.84270000  0.25950000  1.0 0.1298351265
H  H217  1  0.79880000  0.87730000  0.29900000  1.0 0.1213074491
H  H218  1  0.73680000  0.83590000  0.28010000  1.0 0.1395595002
H  H219  1  0.78300000  0.94120000  0.23810000  1.0 0.2750678556
H  H220  1  0.74300000  0.96040000  0.27220000  1.0 0.2673256146
H  H221  1  0.33600000  0.05360000  0.72260000  1.0 0.1213074491
H  H222  1  0.30880000  0.12750000  0.71880000  1.0 0.1395595002
H  H223  1  0.35190000  0.10540000  0.75500000  1.0 0.1213074491
H  H224  1  0.18890000  0.15730000  0.75950000  1.0 0.1298351265
H  H225  1  0.20120000  0.12270000  0.79900000  1.0 0.1213074491
H  H226  1  0.26320000  0.16410000  0.78010000  1.0 0.1395595002
H  H227  1  0.21700000  0.05880000  0.73810000  1.0 0.2750678556
H  H228  1  0.25700000  0.03960000  0.77220000  1.0 0.2673256146
H  H229  1  0.52960000  0.02870000  0.20050000  1.0 0.1395595002
H  H230  1  0.44830000  0.02360000  0.21170000  1.0 0.1395595002
H  H231  1  0.50770000  0.00170000  0.24080000  1.0 0.1298351265
H  H232  1  0.60320000  0.10970000  0.23690000  1.0 0.1395595002
H  H233  1  0.57230000  0.07030000  0.27180000  1.0 0.1213074491
H  H234  1  0.56520000  0.14840000  0.27010000  1.0 0.1298351265
H  H235  1  0.49500000  0.13150000  0.21720000  1.0 0.2673256146
H  H236  1  0.46180000  0.10830000  0.25260000  1.0 0.261996408
H  H237  1  0.47040000  0.97130000  0.70050000  1.0 0.1395595002
H  H238  1  0.55170000  0.97640000  0.71170000  1.0 0.1395595002
H  H239  1  0.49230000  0.99830000  0.74080000  1.0 0.1298351265
H  H240  1  0.39680000  0.89030000  0.73690000  1.0 0.1395595002
H  H241  1  0.42770000  0.92970000  0.77180000  1.0 0.1213074491
H  H242  1  0.43480000  0.85160000  0.77010000  1.0 0.1298351265
H  H243  1  0.50500000  0.86850000  0.71720000  1.0 0.2673256146
H  H244  1  0.53820000  0.89170000  0.75260000  1.0 0.261996408
H  H245  1  0.97040000  0.52870000  0.20050000  1.0 0.1395595002
H  H246  1  0.05170000  0.52360000  0.21170000  1.0 0.1395595002
H  H247  1  0.99230000  0.50170000  0.24080000  1.0 0.1298351265
H  H248  1  0.89680000  0.60970000  0.23690000  1.0 0.1395595002
H  H249  1  0.92770000  0.57030000  0.27180000  1.0 0.1213074491
H  H250  1  0.93480000  0.64840000  0.27010000  1.0 0.1298351265
H  H251  1  0.00500000  0.63150000  0.21720000  1.0 0.2673256146
H  H252  1  0.03820000  0.60830000  0.25260000  1.0 0.261996408
H  H253  1  0.02960000  0.47130000  0.70050000  1.0 0.1395595002
H  H254  1  0.94830000  0.47640000  0.71170000  1.0 0.1395595002
H  H255  1  0.00770000  0.49830000  0.74080000  1.0 0.1298351265
H  H256  1  0.10320000  0.39030000  0.73690000  1.0 0.1395595002
H  H257  1  0.07230000  0.42970000  0.77180000  1.0 0.1213074491
H  H258  1  0.06520000  0.35160000  0.77010000  1.0 0.1298351265
H  H259  1  0.99500000  0.36850000  0.71720000  1.0 0.2673256146
H  H260  1  0.96180000  0.39170000  0.75260000  1.0 0.261996408
C  C1  1  0.34110000  0.72090000  0.67700000  1.0 0.5829792815
C  C2  1  0.65890000  0.27910000  0.17700000  1.0 0.5829792815
C  C3  1  0.15890000  0.22090000  0.67700000  1.0 0.5829792815
C  C4  1  0.84110000  0.77910000  0.17700000  1.0 0.5829792815
C  C5  1  0.41120000  0.68300000  0.67800000  1.0 -0.0200019052
C  C6  1  0.58880000  0.31700000  0.17800000  1.0 -0.0200019052
C  C7  1  0.08880000  0.18300000  0.67800000  1.0 -0.0200019052
C  C8  1  0.91120000  0.81700000  0.17800000  1.0 -0.0200019052
C  C9  1  0.26850000  0.97330000  0.62890000  1.0 -0.0200019052
C  C10  1  0.73150000  0.02670000  0.12890000  1.0 -0.0200019052
C  C11  1  0.23150000  0.47330000  0.62890000  1.0 -0.0200019052
C  C12  1  0.76850000  0.52670000  0.12890000  1.0 -0.0200019052
C  C13  1  0.44920000  0.67900000  0.71160000  1.0 -0.121734838
C  C14  1  0.55080000  0.32100000  0.21160000  1.0 -0.121734838
C  C15  1  0.05080000  0.17900000  0.71160000  1.0 -0.121734838
C  C16  1  0.94920000  0.82100000  0.21160000  1.0 -0.121734838
C  C17  1  0.51400000  0.64480000  0.71420000  1.0 -0.1272409648
C  C18  1  0.48600000  0.35520000  0.21420000  1.0 -0.1272409648
C  C19  1  0.98600000  0.14480000  0.71420000  1.0 -0.1272409648
C  C20  1  0.01400000  0.85520000  0.21420000  1.0 -0.1272409648
C  C21  1  0.54100000  0.61370000  0.68080000  1.0 -0.0200019052
C  C22  1  0.45900000  0.38630000  0.18080000  1.0 -0.0200019052
C  C23  1  0.95900000  0.11370000  0.68080000  1.0 -0.0330175946
C  C24  1  0.04100000  0.88630000  0.18080000  1.0 -0.0200019052
C  C25  1  0.50420000  0.61950000  0.64700000  1.0 -0.1089929352
C  C26  1  0.49580000  0.38050000  0.14700000  1.0 -0.1089929352
C  C27  1  0.99580000  0.11950000  0.64700000  1.0 -0.1089929352
C  C28  1  0.00420000  0.88050000  0.14700000  1.0 -0.1089929352
C  C29  1  0.43980000  0.65270000  0.64560000  1.0 -0.0993729744
C  C30  1  0.56020000  0.34730000  0.14560000  1.0 -0.0993729744
C  C31  1  0.06020000  0.15270000  0.64560000  1.0 -0.0993729744
C  C32  1  0.93980000  0.84730000  0.14560000  1.0 -0.0993729744
C  C33  1  0.60870000  0.57220000  0.68300000  1.0 0.5934220152
C  C34  1  0.39130000  0.42780000  0.18300000  1.0 0.5934220152
C  C35  1  0.89130000  0.07220000  0.68300000  1.0 0.5934220152
C  C36  1  0.10870000  0.92780000  0.18300000  1.0 0.5934220152
C  C37  1  0.10900000  0.73540000  0.66666667  1.0 0.5829792815
C  C38  1  0.89100000  0.26460000  0.16667000  1.0 0.5829792815
C  C39  1  0.39100000  0.23540000  0.66666667  1.0 0.5829792815
C  C40  1  0.60900000  0.76460000  0.16667000  1.0 0.5829792815
C  C41  1  0.03740000  0.69880000  0.67030000  1.0 -0.0200019052
C  C42  1  0.96260000  0.30120000  0.17030000  1.0 -0.0200019052
C  C43  1  0.46260000  0.19880000  0.67030000  1.0 -0.0200019052
C  C44  1  0.53740000  0.80120000  0.17030000  1.0 -0.0200019052
C  C45  1  0.99120000  0.69150000  0.63950000  1.0 -0.1089929352
C  C46  1  0.00880000  0.30850000  0.13950000  1.0 -0.1089929352
C  C47  1  0.50880000  0.19150000  0.63950000  1.0 -0.1089929352
C  C48  1  0.49120000  0.80850000  0.13950000  1.0 -0.1089929352
C  C49  1  0.92900000  0.65530000  0.64350000  1.0 -0.0993729744
C  C50  1  0.07100000  0.34470000  0.14350000  1.0 -0.0993729744
C  C51  1  0.57100000  0.15530000  0.64350000  1.0 -0.0993729744
C  C52  1  0.42900000  0.84470000  0.14350000  1.0 -0.0993729744
C  C53  1  0.91040000  0.62860000  0.67870000  1.0 -0.0330175946
C  C54  1  0.08960000  0.37140000  0.17870000  1.0 -0.0330175946
C  C55  1  0.58960000  0.12860000  0.67870000  1.0 -0.0330175946
C  C56  1  0.41040000  0.87140000  0.17870000  1.0 -0.0330175946
C  C57  1  0.95540000  0.63550000  0.70970000  1.0 -0.121734838
C  C58  1  0.04460000  0.36450000  0.20970000  1.0 -0.121734838
C  C59  1  0.54460000  0.13550000  0.70970000  1.0 -0.121734838
C  C60  1  0.45540000  0.86450000  0.20970000  1.0 -0.121734838
C  C61  1  0.01750000  0.67070000  0.70570000  1.0 -0.1272409648
C  C62  1  0.98250000  0.32930000  0.20570000  1.0 -0.1272409648
C  C63  1  0.48250000  0.17070000  0.70570000  1.0 -0.1272409648
C  C64  1  0.51750000  0.82930000  0.20570000  1.0 -0.1272409648
C  C65  1  0.84040000  0.59080000  0.68280000  1.0 0.6016556965
C  C66  1  0.15960000  0.40920000  0.18280000  1.0 0.6016556965
C  C67  1  0.65960000  0.09080000  0.68280000  1.0 0.6016556965
C  C68  1  0.34040000  0.90920000  0.18280000  1.0 0.6016556965
C  C69  1  0.14020000  0.83340000  0.52710000  1.0 0.6016556965
C  C70  1  0.85980000  0.16660000  0.02710000  1.0 0.6016556965
C  C71  1  0.35980000  0.33340000  0.52710000  1.0 0.6016556965
C  C72  1  0.64020000  0.66666667  0.02710000  1.0 0.6016556965
C  C73  1  0.06670000  0.86650000  0.53000000  1.0 -0.0106700054
C  C74  1  0.93330000  0.13350000  0.03000000  1.0 -0.0106700054
C  C75  1  0.43330000  0.36650000  0.53000000  1.0 -0.0106700054
C  C76  1  0.56670000  0.63350000  0.03000000  1.0 -0.0106700054
C  C77  1  0.03300000  0.88820000  0.49700000  1.0 -0.089875791
C  C78  1  0.96700000  0.11180000  0.99700000  1.0 -0.089875791
C  C79  1  0.46700000  0.38820000  0.49700000  1.0 -0.089875791
C  C80  1  0.53300000  0.61180000  0.99700000  1.0 -0.089875791
C  C81  1  0.96850000  0.92360000  0.50020000  1.0 -0.0993729744
C  C82  1  0.03150000  0.07640000  0.00020000  1.0 -0.0993729744
C  C83  1  0.53150000  0.42360000  0.50020000  1.0 -0.0993729744
C  C84  1  0.46850000  0.57640000  0.00020000  1.0 -0.0993729744
C  C85  1  0.93670000  0.93230000  0.53490000  1.0 -0.0106700054
C  C86  1  0.06330000  0.06770000  0.03490000  1.0 -0.0106700054
C  C87  1  0.56330000  0.43230000  0.53490000  1.0 -0.0106700054
C  C88  1  0.43670000  0.56770000  0.03490000  1.0 -0.0106700054
C  C89  1  0.96680000  0.90870000  0.56600000  1.0 -0.0993729744
C  C90  1  0.03320000  0.09130000  0.06600000  1.0 -0.1089929352
C  C91  1  0.53320000  0.40870000  0.56600000  1.0 -0.1089929352
C  C92  1  0.46680000  0.59130000  0.06600000  1.0 -0.0993729744
C  C93  1  0.03520000  0.87580000  0.56410000  1.0 -0.1089929352
C  C94  1  0.96480000  0.12420000  0.06410000  1.0 -0.1089929352
C  C95  1  0.46480000  0.37580000  0.56410000  1.0 -0.1089929352
C  C96  1  0.53520000  0.62420000  0.06410000  1.0 -0.1089929352
C  C97  1  0.86670000  0.96940000  0.53880000  1.0 0.6110254126
C  C98  1  0.13330000  0.03060000  0.03880000  1.0 0.6110254126
C  C99  1  0.63330000  0.46940000  0.53880000  1.0 0.6110254126
C  C100  1  0.36670000  0.53060000  0.03880000  1.0 0.6110254126
C  C101  1  0.25620000  0.68530000  0.43640000  1.0 0.5491327839
C  C102  1  0.74380000  0.31470000  0.93640000  1.0 0.5491327839
C  C103  1  0.24380000  0.18530000  0.43640000  1.0 0.5491327839
C  C104  1  0.75620000  0.81470000  0.93640000  1.0 0.5491327839
C  C105  1  0.25700000  0.65370000  0.39660000  1.0 0.0092188589
C  C106  1  0.74300000  0.34630000  0.89660000  1.0 0.0092188589
C  C107  1  0.24300000  0.15370000  0.39660000  1.0 0.0092188589
C  C108  1  0.75700000  0.84630000  0.89660000  1.0 0.0092188589
C  C109  1  0.21900000  0.59650000  0.39170000  1.0 -0.089875791
C  C110  1  0.78100000  0.40350000  0.89170000  1.0 -0.089875791
C  C111  1  0.28100000  0.09650000  0.39170000  1.0 -0.089875791
C  C112  1  0.71900000  0.90350000  0.89170000  1.0 -0.089875791
C  C113  1  0.21790000  0.56770000  0.35480000  1.0 -0.1089929352
C  C114  1  0.78210000  0.43230000  0.85480000  1.0 -0.1089929352
C  C115  1  0.28210000  0.06770000  0.35480000  1.0 -0.1089929352
C  C116  1  0.71790000  0.93230000  0.85480000  1.0 -0.1089929352
C  C117  1  0.26450000  0.59360000  0.32630000  1.0 -0.0106700054
C  C118  1  0.73550000  0.40640000  0.82630000  1.0 -0.0106700054
C  C119  1  0.23550000  0.09360000  0.32630000  1.0 -0.0106700054
C  C120  1  0.76450000  0.90640000  0.82630000  1.0 -0.0106700054
C  C121  1  0.30540000  0.64600000  0.33450000  1.0 -0.1272409648
C  C122  1  0.69460000  0.35400000  0.83450000  1.0 -0.1272409648
C  C123  1  0.19460000  0.14600000  0.33450000  1.0 -0.1272409648
C  C124  1  0.80540000  0.85400000  0.83450000  1.0 -0.1272409648
C  C125  1  0.30020000  0.67810000  0.36910000  1.0 -0.1089929352
C  C126  1  0.69980000  0.32190000  0.86910000  1.0 -0.1089929352
C  C127  1  0.19980000  0.17810000  0.36910000  1.0 -0.1089929352
C  C128  1  0.80020000  0.82190000  0.86910000  1.0 -0.1089929352
C  C129  1  0.26530000  0.55670000  0.28840000  1.0 0.5440920986
C  C130  1  0.73470000  0.44330000  0.78840000  1.0 0.5440920986
C  C131  1  0.23470000  0.05670000  0.28840000  1.0 0.5440920986
C  C132  1  0.76530000  0.94330000  0.78840000  1.0 0.5440920986
C  C133  1  0.36850000  0.82580000  0.54870000  1.0 0.6016556965
C  C134  1  0.63150000  0.17420000  0.04870000  1.0 0.6016556965
C  C135  1  0.13150000  0.32580000  0.54870000  1.0 0.6016556965
C  C136  1  0.86850000  0.67420000  0.04870000  1.0 0.6016556965
C  C137  1  0.43940000  0.86000000  0.55230000  1.0 -0.0106700054
C  C138  1  0.56060000  0.14000000  0.05230000  1.0 -0.0106700054
C  C139  1  0.06060000  0.36000000  0.55230000  1.0 -0.0106700054
C  C140  1  0.93940000  0.64000000  0.05230000  1.0 -0.0106700054
C  C141  1  0.47210000  0.87400000  0.58910000  1.0 -0.1089929352
C  C142  1  0.52790000  0.12600000  0.08910000  1.0 -0.1089929352
C  C143  1  0.02790000  0.37400000  0.58910000  1.0 -0.1089929352
C  C144  1  0.97210000  0.62600000  0.08910000  1.0 -0.1089929352
C  C145  1  0.53730000  0.90780000  0.59110000  1.0 -0.1089929352
C  C146  1  0.46270000  0.09220000  0.09110000  1.0 -0.1089929352
C  C147  1  0.96270000  0.40780000  0.59110000  1.0 -0.1089929352
C  C148  1  0.03730000  0.59220000  0.09110000  1.0 -0.1089929352
C  C149  1  0.56950000  0.92550000  0.55940000  1.0 -0.0200019052
C  C150  1  0.43050000  0.07450000  0.05940000  1.0 -0.0200019052
C  C151  1  0.93050000  0.42550000  0.55940000  1.0 -0.0200019052
C  C152  1  0.06950000  0.57450000  0.05940000  1.0 -0.0200019052
C  C153  1  0.54170000  0.91260000  0.52340000  1.0 -0.089875791
C  C154  1  0.45830000  0.08740000  0.02340000  1.0 -0.089875791
C  C155  1  0.95830000  0.41260000  0.52340000  1.0 -0.089875791
C  C156  1  0.04170000  0.58740000  0.02340000  1.0 -0.089875791
C  C157  1  0.47670000  0.88140000  0.51900000  1.0 -0.0993729744
C  C158  1  0.52330000  0.11860000  0.01900000  1.0 -0.0993729744
C  C159  1  0.02330000  0.38140000  0.51900000  1.0 -0.0993729744
C  C160  1  0.97670000  0.61860000  0.01900000  1.0 -0.0993729744
C  C161  1  0.64190000  0.96340000  0.56170000  1.0 0.6016556965
C  C162  1  0.35810000  0.03660000  0.06170000  1.0 0.6016556965
C  C163  1  0.85810000  0.46340000  0.56170000  1.0 0.6016556965
C  C164  1  0.14190000  0.53660000  0.06170000  1.0 0.6016556965
C  C165  1  0.27310000  0.91770000  0.65710000  1.0 0.5598104494
C  C166  1  0.72690000  0.08230000  0.15710000  1.0 0.5598104494
C  C167  1  0.22690000  0.41770000  0.65710000  1.0 0.5598104494
C  C168  1  0.77310000  0.58230000  0.15710000  1.0 0.5598104494
C  C169  1  0.31250000  0.03050000  0.63170000  1.0 -0.121734838
C  C170  1  0.68750000  0.96950000  0.13170000  1.0 -0.121734838
C  C171  1  0.18750000  0.53050000  0.63170000  1.0 -0.121734838
C  C172  1  0.81250000  0.46950000  0.13170000  1.0 -0.121734838
C  C173  1  0.30390000  0.08340000  0.60790000  1.0 -0.1089929352
C  C174  1  0.69610000  0.91660000  0.10790000  1.0 -0.1089929352
C  C175  1  0.19610000  0.58340000  0.60790000  1.0 -0.1089929352
C  C176  1  0.80390000  0.41660000  0.10790000  1.0 -0.1089929352
C  C177  1  0.20010000  0.02650000  0.57710000  1.0 -0.0993729744
C  C178  1  0.79990000  0.97350000  0.07710000  1.0 -0.0993729744
C  C179  1  0.29990000  0.52650000  0.57710000  1.0 -0.0993729744
C  C180  1  0.70010000  0.47350000  0.07710000  1.0 -0.0993729744
C  C181  1  0.20970000  0.97180000  0.60110000  1.0 -0.0993729744
C  C182  1  0.79030000  0.02820000  0.10110000  1.0 -0.0993729744
C  C183  1  0.29030000  0.47180000  0.60110000  1.0 -0.0993729744
C  C184  1  0.70970000  0.52820000  0.10110000  1.0 -0.0993729744
C  C185  1  0.24670000  0.08450000  0.58090000  1.0 0.0031789122
C  C186  1  0.75330000  0.91550000  0.08090000  1.0 0.0031789122
C  C187  1  0.25330000  0.58450000  0.58090000  1.0 0.0031789122
C  C188  1  0.74670000  0.41550000  0.08090000  1.0 0.0031789122
C  C189  1  0.23570000  0.14310000  0.55530000  1.0 0.5598104494
C  C190  1  0.76430000  0.85690000  0.05530000  1.0 0.5598104494
C  C191  1  0.26430000  0.64310000  0.55530000  1.0 0.5598104494
C  C192  1  0.73570000  0.35690000  0.05530000  1.0 0.5598104494
C  C193  1  0.73570000  0.16070000  0.57150000  1.0 0.5829792815
C  C194  1  0.26430000  0.83930000  0.07150000  1.0 0.5829792815
C  C195  1  0.76430000  0.66070000  0.57150000  1.0 0.5829792815
C  C196  1  0.23570000  0.33930000  0.07150000  1.0 0.5829792815
C  C197  1  0.74930000  0.21890000  0.59730000  1.0 -0.0106700054
C  C198  1  0.25070000  0.78110000  0.09730000  1.0 -0.0106700054
C  C199  1  0.75070000  0.71890000  0.59730000  1.0 -0.0106700054
C  C200  1  0.24930000  0.28110000  0.09730000  1.0 -0.0106700054
C  C201  1  0.79930000  0.22060000  0.62240000  1.0 -0.0749016432
C  C202  1  0.20070000  0.77940000  0.12240000  1.0 -0.0749016432
C  C203  1  0.70070000  0.72060000  0.62240000  1.0 -0.0749016432
C  C204  1  0.29930000  0.27940000  0.12240000  1.0 -0.0749016432
C  C205  1  0.81070000  0.27830000  0.64570000  1.0 -0.1089929352
C  C206  1  0.18930000  0.72170000  0.14570000  1.0 -0.1089929352
C  C207  1  0.68930000  0.77830000  0.64570000  1.0 -0.1089929352
C  C208  1  0.31070000  0.22170000  0.14570000  1.0 -0.1089929352
C  C209  1  0.76440000  0.32860000  0.64460000  1.0 -0.0200019052
C  C210  1  0.23560000  0.67140000  0.14460000  1.0 -0.0200019052
C  C211  1  0.73560000  0.82860000  0.64460000  1.0 -0.0200019052
C  C212  1  0.26440000  0.17140000  0.14460000  1.0 -0.0200019052
C  C213  1  0.70680000  0.32880000  0.61820000  1.0 -0.1089929352
C  C214  1  0.29320000  0.67120000  0.11820000  1.0 -0.1089929352
C  C215  1  0.79320000  0.82880000  0.61820000  1.0 -0.1089929352
C  C216  1  0.20680000  0.17120000  0.11820000  1.0 -0.1089929352
C  C217  1  0.69680000  0.27420000  0.59520000  1.0 -0.0993729744
C  C218  1  0.30320000  0.72580000  0.09520000  1.0 -0.0993729744
C  C219  1  0.80320000  0.77420000  0.59520000  1.0 -0.0993729744
C  C220  1  0.19680000  0.22580000  0.09520000  1.0 -0.0993729744
C  C221  1  0.77070000  0.38780000  0.67120000  1.0 0.5829792815
C  C222  1  0.22930000  0.61220000  0.17120000  1.0 0.5829792815
C  C223  1  0.72930000  0.88780000  0.67120000  1.0 0.5829792815
C  C224  1  0.27070000  0.11220000  0.17120000  1.0 0.5829792815
C  C225  1  0.73870000  0.11210000  0.44890000  1.0 0.5440920986
C  C226  1  0.26130000  0.88790000  0.94890000  1.0 0.5440920986
C  C227  1  0.76130000  0.61210000  0.44890000  1.0 0.5440920986
C  C228  1  0.23870000  0.38790000  0.94890000  1.0 0.5440920986
C  C229  1  0.74120000  0.13590000  0.40710000  1.0 0.0092188589
C  C230  1  0.25880000  0.86410000  0.90710000  1.0 0.0092188589
C  C231  1  0.75880000  0.63590000  0.40710000  1.0 0.0092188589
C  C232  1  0.24120000  0.36410000  0.90710000  1.0 0.0092188589
C  C233  1  0.78460000  0.18460000  0.39550000  1.0 -0.089875791
C  C234  1  0.21540000  0.81540000  0.89550000  1.0 -0.089875791
C  C235  1  0.71540000  0.68460000  0.39550000  1.0 -0.089875791
C  C236  1  0.28460000  0.31540000  0.89550000  1.0 -0.089875791
C  C237  1  0.79070000  0.20190000  0.35650000  1.0 -0.0993729744
C  C238  1  0.20930000  0.79810000  0.85650000  1.0 -0.0993729744
C  C239  1  0.70930000  0.70190000  0.35650000  1.0 -0.0993729744
C  C240  1  0.29070000  0.29810000  0.85650000  1.0 -0.0993729744
C  C241  1  0.74930000  0.16750000  0.33140000  1.0 -0.0200019052
C  C242  1  0.25070000  0.83250000  0.83140000  1.0 -0.0200019052
C  C243  1  0.75070000  0.66750000  0.33140000  1.0 -0.0200019052
C  C244  1  0.24930000  0.33250000  0.83140000  1.0 -0.0200019052
C  C245  1  0.69920000  0.11730000  0.34460000  1.0 -0.121734838
C  C246  1  0.30080000  0.88270000  0.84460000  1.0 -0.121734838
C  C247  1  0.80080000  0.61730000  0.34460000  1.0 -0.121734838
C  C248  1  0.19920000  0.38270000  0.84460000  1.0 -0.121734838
C  C249  1  0.69780000  0.10340000  0.38160000  1.0 -0.089875791
C  C250  1  0.30220000  0.89660000  0.88160000  1.0 -0.089875791
C  C251  1  0.80220000  0.60340000  0.38160000  1.0 -0.089875791
C  C252  1  0.19780000  0.39660000  0.88160000  1.0 -0.089875791
C  C253  1  0.75830000  0.18070000  0.28940000  1.0 0.5440920986
C  C254  1  0.24170000  0.81930000  0.78940000  1.0 0.5440920986
C  C255  1  0.74170000  0.68070000  0.28940000  1.0 0.5440920986
C  C256  1  0.25830000  0.31930000  0.78940000  1.0 0.5440920986
C  C257  1  0.07360000  0.88770000  0.72050000  1.0 0.44291081
C  C258  1  0.92640000  0.11230000  0.22050000  1.0 0.44291081
C  C259  1  0.42640000  0.38770000  0.72050000  1.0 0.44291081
C  C260  1  0.57360000  0.61230000  0.22050000  1.0 0.44291081
C  C261  1  0.03810000  0.84360000  0.75600000  1.0 -0.6010611309
C  C262  1  0.96190000  0.15640000  0.25600000  1.0 -0.6010611309
C  C263  1  0.46190000  0.34360000  0.75600000  1.0 -0.6010611309
C  C264  1  0.53810000  0.65640000  0.25600000  1.0 -0.6010611309
C  C265  1  0.94620000  0.89420000  0.69770000  1.0 -0.3762576235
C  C266  1  0.05380000  0.10580000  0.19770000  1.0 -0.3762576235
C  C267  1  0.55380000  0.39420000  0.69770000  1.0 -0.3762576235
C  C268  1  0.44620000  0.60580000  0.19770000  1.0 -0.3762576235
C  C269  1  0.05590000  0.94260000  0.66530000  1.0 -0.3480241401
C  C270  1  0.94410000  0.05740000  0.16530000  1.0 -0.3480241401
C  C271  1  0.44410000  0.44260000  0.66530000  1.0 -0.3480241401
C  C272  1  0.55590000  0.55740000  0.16530000  1.0 -0.3480241401
C  C273  1  0.33260000  0.74250000  0.24140000  1.0 -0.3379452629
C  C274  1  0.35220000  0.81030000  0.29360000  1.0 -0.3094354486
C  C275  1  0.66740000  0.25750000  0.74140000  1.0 -0.3379452629
C  C276  1  0.64780000  0.18970000  0.79360000  1.0 -0.3094354486
C  C277  1  0.16740000  0.24250000  0.24140000  1.0 -0.3379452629
C  C278  1  0.14780000  0.31030000  0.29360000  1.0 -0.3094354486
C  C279  1  0.83260000  0.75750000  0.74140000  1.0 -0.3379452629
C  C280  1  0.85220000  0.68970000  0.79360000  1.0 -0.3094354486
C  C281  1  0.81750000  0.40860000  0.23630000  1.0 -0.3001532173
C  C282  1  0.72330000  0.36520000  0.27530000  1.0 -0.3001532173
C  C283  1  0.18250000  0.59140000  0.73630000  1.0 -0.3001532173
C  C284  1  0.27670000  0.63480000  0.77530000  1.0 -0.3001532173
C  C285  1  0.68250000  0.90860000  0.23630000  1.0 -0.3001532173
C  C286  1  0.77670000  0.86520000  0.27530000  1.0 -0.3001532173
C  C287  1  0.31750000  0.09140000  0.73630000  1.0 -0.3001532173
C  C288  1  0.22330000  0.13480000  0.77530000  1.0 -0.3001532173
C  C289  1  0.49570000  0.03290000  0.22100000  1.0 -0.3094354486
C  C290  1  0.56520000  0.10800000  0.25530000  1.0 -0.2884773118
C  C291  1  0.50430000  0.96710000  0.72100000  1.0 -0.3094354486
C  C292  1  0.43480000  0.89200000  0.75530000  1.0 -0.2884773118
C  C293  1  0.00430000  0.53290000  0.22100000  1.0 -0.3094354486
C  C294  1  0.93480000  0.60800000  0.25530000  1.0 -0.2884773118
C  C295  1  0.99570000  0.46710000  0.72100000  1.0 -0.3094354486
C  C296  1  0.06520000  0.39200000  0.75530000  1.0 -0.2884773118
N  N1  1  0.02920000  0.90920000  0.69850000  1.0 0.0092188589
N  N2  1  0.97080000  0.09080000  0.19850000  1.0 0.0092188589
N  N3  1  0.47080000  0.40920000  0.69850000  1.0 0.0092188589
N  N4  1  0.52920000  0.59080000  0.19850000  1.0 0.0092188589
N  N5  1  0.28930000  0.78540000  0.27030000  1.0 -0.0818717321
N  N6  1  0.71070000  0.21460000  0.77030000  1.0 -0.0818717321
N  N7  1  0.21070000  0.28540000  0.27030000  1.0 -0.0818717321
N  N8  1  0.78930000  0.71460000  0.77030000  1.0 -0.0818717321
N  N9  1  0.74950000  0.42730000  0.25530000  1.0 -0.0993729744
N  N10  1  0.25050000  0.57270000  0.75530000  1.0 -0.0993729744
N  N11  1  0.75050000  0.92730000  0.25530000  1.0 -0.0993729744
N  N12  1  0.24950000  0.07270000  0.75530000  1.0 -0.0993729744
N  N13  1  0.49830000  0.10150000  0.23620000  1.0 -0.0818717321
N  N14  1  0.50170000  0.89850000  0.73620000  1.0 -0.0818717321
N  N15  1  0.00170000  0.60150000  0.23620000  1.0 -0.0818717321
N  N16  1  0.99830000  0.39850000  0.73620000  1.0 -0.0818717321
O  O1  1  0.32390000  0.75200000  0.70580000  1.0 -0.5313368641
O  O2  1  0.67610000  0.24800000  0.20580000  1.0 -0.5313368641
O  O3  1  0.17610000  0.25200000  0.70580000  1.0 -0.5313368641
O  O4  1  0.82390000  0.74800000  0.20580000  1.0 -0.5313368641
O  O5  1  0.30410000  0.71630000  0.64730000  1.0 -0.6198116544
O  O6  1  0.69590000  0.28370000  0.14730000  1.0 -0.6198116544
O  O7  1  0.19590000  0.21630000  0.64730000  1.0 -0.6198116544
O  O8  1  0.80410000  0.78370000  0.14730000  1.0 -0.6198116544
O  O9  1  0.63850000  0.56440000  0.71540000  1.0 -0.5563022299
O  O10  1  0.36150000  0.43560000  0.21540000  1.0 -0.5563022299
O  O11  1  0.86150000  0.06440000  0.71540000  1.0 -0.5563022299
O  O12  1  0.13850000  0.93560000  0.21540000  1.0 -0.5563022299
O  O13  1  0.63270000  0.55090000  0.65220000  1.0 -0.6198116544
O  O14  1  0.36730000  0.44910000  0.15220000  1.0 -0.6198116544
O  O15  1  0.86730000  0.05090000  0.65220000  1.0 -0.6198116544
O  O16  1  0.13270000  0.94910000  0.15220000  1.0 -0.6198116544
O  O17  1  0.14350000  0.74620000  0.69740000  1.0 -0.5712443096
O  O18  1  0.85650000  0.25380000  0.19740000  1.0 -0.5712443096
O  O19  1  0.35650000  0.24620000  0.69740000  1.0 -0.5712443096
O  O20  1  0.64350000  0.75380000  0.19740000  1.0 -0.5712443096
O  O21  1  0.12620000  0.75130000  0.63360000  1.0 -0.6111473245
O  O22  1  0.87380000  0.24870000  0.13360000  1.0 -0.6111473245
O  O23  1  0.37380000  0.25130000  0.63360000  1.0 -0.6111473245
O  O24  1  0.62620000  0.74870000  0.13360000  1.0 -0.6111473245
O  O25  1  0.82800000  0.56500000  0.71510000  1.0 -0.5515097363
O  O26  1  0.17200000  0.43500000  0.21510000  1.0 -0.5515097363
O  O27  1  0.67200000  0.06500000  0.71510000  1.0 -0.5515097363
O  O28  1  0.32800000  0.93500000  0.21510000  1.0 -0.5515097363
O  O29  1  0.79840000  0.58370000  0.65380000  1.0 -0.6855912609
O  O30  1  0.20160000  0.41630000  0.15380000  1.0 -0.6855912609
O  O31  1  0.70160000  0.08370000  0.65380000  1.0 -0.6855912609
O  O32  1  0.29840000  0.91630000  0.15380000  1.0 -0.6855912609
O  O33  1  0.17650000  0.82950000  0.55710000  1.0 -0.633102457
O  O34  1  0.82350000  0.17050000  0.05710000  1.0 -0.633102457
O  O35  1  0.32350000  0.32950000  0.55710000  1.0 -0.633102457
O  O36  1  0.67650000  0.67050000  0.05710000  1.0 -0.633102457
O  O37  1  0.15830000  0.81060000  0.49630000  1.0 -0.4886261228
O  O38  1  0.84170000  0.18940000  0.99630000  1.0 -0.4886261228
O  O39  1  0.34170000  0.31060000  0.49630000  1.0 -0.4886261228
O  O40  1  0.65830000  0.68940000  0.99630000  1.0 -0.4886261228
O  O41  1  0.83730000  0.97090000  0.57010000  1.0 -0.6198116544
O  O42  1  0.16270000  0.02910000  0.07010000  1.0 -0.6198116544
O  O43  1  0.66270000  0.47090000  0.57010000  1.0 -0.6198116544
O  O44  1  0.33730000  0.52910000  0.07010000  1.0 -0.6198116544
O  O45  1  0.84390000  0.00080000  0.50860000  1.0 -0.5360514922
O  O46  1  0.15610000  0.99920000  0.00860000  1.0 -0.5360514922
O  O47  1  0.65610000  0.50080000  0.50860000  1.0 -0.5360514922
O  O48  1  0.34390000  0.49920000  0.00860000  1.0 -0.5360514922
O  O49  1  0.30020000  0.73240000  0.44280000  1.0 -0.5313368641
O  O50  1  0.69980000  0.26760000  0.94280000  1.0 -0.5313368641
O  O51  1  0.19980000  0.23240000  0.44280000  1.0 -0.5313368641
O  O52  1  0.80020000  0.76760000  0.94280000  1.0 -0.5313368641
O  O53  1  0.20820000  0.66950000  0.45960000  1.0 -0.4886261228
O  O54  1  0.79180000  0.33050000  0.95960000  1.0 -0.4886261228
O  O55  1  0.29180000  0.16950000  0.45960000  1.0 -0.4886261228
O  O56  1  0.70820000  0.83050000  0.95960000  1.0 -0.4886261228
O  O57  1  0.31240000  0.57610000  0.26490000  1.0 -0.5515097363
O  O58  1  0.68760000  0.42390000  0.76490000  1.0 -0.5515097363
O  O59  1  0.18760000  0.07610000  0.26490000  1.0 -0.5515097363
O  O60  1  0.81240000  0.92390000  0.76490000  1.0 -0.5515097363
O  O61  1  0.22260000  0.51160000  0.28070000  1.0 -0.5313368641
O  O62  1  0.77740000  0.48840000  0.78070000  1.0 -0.5313368641
O  O63  1  0.27740000  0.01160000  0.28070000  1.0 -0.5313368641
O  O64  1  0.72260000  0.98840000  0.78070000  1.0 -0.5313368641
O  O65  1  0.34680000  0.81380000  0.51550000  1.0 -0.5230905069
O  O66  1  0.65320000  0.18620000  0.01550000  1.0 -0.5230905069
O  O67  1  0.15320000  0.31380000  0.51550000  1.0 -0.5230905069
O  O68  1  0.84680000  0.68620000  0.01550000  1.0 -0.5230905069
O  O69  1  0.33790000  0.80780000  0.57880000  1.0 -0.6397975935
O  O70  1  0.66210000  0.19220000  0.07880000  1.0 -0.6397975935
O  O71  1  0.16210000  0.30780000  0.57880000  1.0 -0.6397975935
O  O72  1  0.83790000  0.69220000  0.07880000  1.0 -0.6397975935
O  O73  1  0.66850000  0.97390000  0.59190000  1.0 -0.5712443096
O  O74  1  0.33150000  0.02610000  0.09190000  1.0 -0.5712443096
O  O75  1  0.83150000  0.47390000  0.59190000  1.0 -0.5712443096
O  O76  1  0.16850000  0.52610000  0.09190000  1.0 -0.5712443096
O  O77  1  0.66400000  0.98600000  0.53020000  1.0 -0.5102206273
O  O78  1  0.33600000  0.01400000  0.03020000  1.0 -0.5102206273
O  O79  1  0.83600000  0.48600000  0.53020000  1.0 -0.5102206273
O  O80  1  0.16400000  0.51400000  0.03020000  1.0 -0.5102206273
O  O81  1  0.23910000  0.86420000  0.65010000  1.0 -0.6397975935
O  O82  1  0.76090000  0.13580000  0.15010000  1.0 -0.6397975935
O  O83  1  0.26090000  0.36420000  0.65010000  1.0 -0.6397975935
O  O84  1  0.73910000  0.63580000  0.15010000  1.0 -0.6397975935
O  O85  1  0.30780000  0.92620000  0.68520000  1.0 -0.5102206273
O  O86  1  0.69220000  0.07380000  0.18520000  1.0 -0.5102206273
O  O87  1  0.19220000  0.42620000  0.68520000  1.0 -0.5102206273
O  O88  1  0.80780000  0.57380000  0.18520000  1.0 -0.5102206273
O  O89  1  0.18910000  0.14080000  0.53100000  1.0 -0.4849042995
O  O90  1  0.81090000  0.85920000  0.03100000  1.0 -0.4886261228
O  O91  1  0.31090000  0.64080000  0.53100000  1.0 -0.4849042995
O  O92  1  0.68910000  0.35920000  0.03100000  1.0 -0.4849042995
O  O93  1  0.27530000  0.19300000  0.55930000  1.0 -0.6010611309
O  O94  1  0.72470000  0.80700000  0.05930000  1.0 -0.6010611309
O  O95  1  0.22470000  0.69300000  0.55930000  1.0 -0.6010611309
O  O96  1  0.77530000  0.30700000  0.05930000  1.0 -0.6010611309
O  O97  1  0.68650000  0.15970000  0.54720000  1.0 -0.5230905069
O  O98  1  0.31350000  0.84030000  0.04720000  1.0 -0.5230905069
O  O99  1  0.81350000  0.65970000  0.54720000  1.0 -0.5230905069
O  O100  1  0.18650000  0.34030000  0.04720000  1.0 -0.5230905069
O  O101  1  0.78240000  0.11160000  0.57430000  1.0 -0.6549793286
O  O102  1  0.21760000  0.88840000  0.07430000  1.0 -0.6549793286
O  O103  1  0.71760000  0.61160000  0.57430000  1.0 -0.6549793286
O  O104  1  0.28240000  0.38840000  0.07430000  1.0 -0.6549793286
O  O105  1  0.72830000  0.43660000  0.66520000  1.0 -0.633102457
O  O106  1  0.27170000  0.56340000  0.16520000  1.0 -0.633102457
O  O107  1  0.77170000  0.93660000  0.66520000  1.0 -0.633102457
O  O108  1  0.22830000  0.06340000  0.16520000  1.0 -0.633102457
O  O109  1  0.81160000  0.38430000  0.69920000  1.0 -0.5515097363
O  O110  1  0.18840000  0.61570000  0.19920000  1.0 -0.5515097363
O  O111  1  0.68840000  0.88430000  0.69920000  1.0 -0.5515097363
O  O112  1  0.31160000  0.11570000  0.19920000  1.0 -0.5515097363
O  O113  1  0.69140000  0.07130000  0.45850000  1.0 -0.497886735
O  O114  1  0.30860000  0.92870000  0.95850000  1.0 -0.497886735
O  O115  1  0.80860000  0.57130000  0.45850000  1.0 -0.497886735
O  O116  1  0.19140000  0.42870000  0.95850000  1.0 -0.497886735
O  O117  1  0.78340000  0.13700000  0.47110000  1.0 -0.5102206273
O  O118  1  0.21660000  0.86300000  0.97110000  1.0 -0.5102206273
O  O119  1  0.71660000  0.63700000  0.47110000  1.0 -0.5102206273
O  O120  1  0.28340000  0.36300000  0.97110000  1.0 -0.5102206273
O  O121  1  0.72400000  0.14340000  0.26640000  1.0 -0.5515097363
O  O122  1  0.27600000  0.85660000  0.76640000  1.0 -0.5515097363
O  O123  1  0.77600000  0.64340000  0.26640000  1.0 -0.5515097363
O  O124  1  0.22400000  0.35660000  0.76640000  1.0 -0.5515097363
O  O125  1  0.79840000  0.22660000  0.27760000  1.0 -0.5515097363
O  O126  1  0.20160000  0.77340000  0.77760000  1.0 -0.5515097363
O  O127  1  0.70160000  0.72660000  0.27760000  1.0 -0.5515097363
O  O128  1  0.29840000  0.27340000  0.77760000  1.0 -0.5515097363
O  O129  1  0.13700000  0.89710000  0.72040000  1.0 -0.5102206273
O  O130  1  0.86300000  0.10290000  0.22040000  1.0 -0.5102206273
O  O131  1  0.36300000  0.39710000  0.72040000  1.0 -0.5102206273
O  O132  1  0.63700000  0.60290000  0.22040000  1.0 -0.5102206273
