# DDEC6 charges by PACMAN v1.1 (https://github.com/mtap-research/PACMAN-charge/)
data_IYALUR_ASR_pacman
_symmetry_space_group_name_H-M   'P 1'
_cell_length_a   22.22050000
_cell_length_b   22.22050000
_cell_length_c   34.58900000
_cell_angle_alpha   76.66850000
_cell_angle_beta   103.33100000
_cell_angle_gamma   157.81800000
_symmetry_Int_Tables_number   1
_chemical_formula_structural   Ba9P9H43C68(NO14)2
_chemical_formula_sum   'Ba36 P36 H172 C272 N8 O112'
_cell_volume   6267.40209542
_cell_formula_units_Z   4
loop_
 _symmetry_equiv_pos_site_id
 _symmetry_equiv_pos_as_xyz
  1  'x, y, z'
loop_
 _atom_site_type_symbol
 _atom_site_label
 _atom_site_symmetry_multiplicity
 _atom_site_fract_x
 _atom_site_fract_y
 _atom_site_fract_z
 _atom_site_occupancy
 _atom_site_charge
Ba  Ba1  1  0.38394000  0.80722000  0.30460000  1.0 1.4094617533
Ba  Ba2  1  0.80722000  0.38394000  0.19540000  1.0 1.4094617533
Ba  Ba3  1  0.61606000  0.19278000  0.69540000  1.0 1.4094617533
Ba  Ba4  1  0.19278000  0.61606000  0.80460000  1.0 1.4094617533
Ba  Ba5  1  0.36522000  0.11458000  0.69969000  1.0 0.2736085075
Ba  Ba6  1  0.11458000  0.36522000  0.80031000  1.0 0.2736085075
Ba  Ba7  1  0.63478000  0.88542000  0.30031000  1.0 0.2736085075
Ba  Ba8  1  0.88542000  0.63478000  0.19969000  1.0 0.2736085075
Ba  Ba9  1  0.31279000  0.55601000  0.36786000  1.0 0.2127015459
Ba  Ba10  1  0.55601000  0.31279000  0.13214000  1.0 0.2127015459
Ba  Ba11  1  0.68721000  0.44399000  0.63214000  1.0 0.2127015459
Ba  Ba12  1  0.44399000  0.68721000  0.86786000  1.0 0.2127015459
Ba  Ba13  1  0.87600000  0.29520000  0.30910000  1.0 0.9783225822
Ba  Ba14  1  0.29520000  0.87600000  0.19090000  1.0 0.9783225822
Ba  Ba15  1  0.12400000  0.70480000  0.69090000  1.0 0.9783225822
Ba  Ba16  1  0.70480000  0.12400000  0.80910000  1.0 0.9783225822
Ba  Ba17  1  0.26885000  0.00915000  0.69757000  1.0 0.3561768177
Ba  Ba18  1  0.00915000  0.26885000  0.80243000  1.0 0.3561768177
Ba  Ba19  1  0.73115000  0.99085000  0.30243000  1.0 0.3561768177
Ba  Ba20  1  0.99085000  0.73115000  0.19757000  1.0 0.3561768177
Ba  Ba21  1  0.20203000  0.95137000  0.69240000  1.0 0.2324623185
Ba  Ba22  1  0.95137000  0.20203000  0.80760000  1.0 0.2324623185
Ba  Ba23  1  0.79797000  0.04863000  0.30760000  1.0 0.2324623185
Ba  Ba24  1  0.04863000  0.79797000  0.19240000  1.0 0.2324623185
Ba  Ba25  1  0.21480000  0.47580000  0.36578000  1.0 0.3827326837
Ba  Ba26  1  0.47580000  0.21480000  0.13422000  1.0 0.3827326837
Ba  Ba27  1  0.78520000  0.52420000  0.63422000  1.0 0.3827326837
Ba  Ba28  1  0.52420000  0.78520000  0.86578000  1.0 0.3827326837
Ba  Ba29  1  0.13720000  0.38880000  0.36881000  1.0 0.3016710448
Ba  Ba30  1  0.38880000  0.13720000  0.13119000  1.0 0.3016710448
Ba  Ba31  1  0.86280000  0.61120000  0.63119000  1.0 0.3016710448
Ba  Ba32  1  0.61120000  0.86280000  0.86881000  1.0 0.3016710448
Ba  Ba33  1  0.88237000  0.31663000  0.30642000  1.0 1.0830741691
Ba  Ba34  1  0.31663000  0.88237000  0.19358000  1.0 1.0830741691
Ba  Ba35  1  0.11763000  0.68337000  0.69358000  1.0 1.0830741691
Ba  Ba36  1  0.68337000  0.11763000  0.80642000  1.0 1.0830741691
P  P1  1  0.06524000  0.64516000  0.26791000  1.0 1.0425974297
P  P2  1  0.64516000  0.06524000  0.23209000  1.0 1.0425974297
P  P3  1  0.93476000  0.35484000  0.73209000  1.0 1.0425974297
P  P4  1  0.35484000  0.93476000  0.76791000  1.0 1.0425974297
P  P5  1  0.15946000  0.58054000  0.38708000  1.0 1.1554082798
P  P6  1  0.58054000  0.15946000  0.11292000  1.0 1.1554082798
P  P7  1  0.84054000  0.41946000  0.61292000  1.0 1.1554082798
P  P8  1  0.41946000  0.84054000  0.88708000  1.0 1.1554082798
P  P9  1  0.49652000  0.82448000  0.76914000  1.0 0.9478132892
P  P10  1  0.82448000  0.49652000  0.73086000  1.0 0.9478132892
P  P11  1  0.50348000  0.17552000  0.23086000  1.0 0.9478132892
P  P12  1  0.17552000  0.50348000  0.26914000  1.0 0.9478132892
P  P13  1  0.09543000  0.22757000  0.31720000  1.0 0.407818185
P  P14  1  0.22757000  0.09543000  0.18280000  1.0 0.407818185
P  P15  1  0.90457000  0.77243000  0.68280000  1.0 0.407818185
P  P16  1  0.77243000  0.90457000  0.81720000  1.0 0.407818185
P  P17  1  0.46943000  0.33777000  0.61190000  1.0 0.3243289756
P  P18  1  0.33777000  0.46943000  0.88810000  1.0 0.3243289756
P  P19  1  0.53057000  0.66223000  0.38810000  1.0 0.3243289756
P  P20  1  0.66223000  0.53057000  0.11190000  1.0 0.3243289756
P  P21  1  0.32965000  0.00115000  0.62051000  1.0 0.3361479211
P  P22  1  0.00115000  0.32965000  0.87949000  1.0 0.3361479211
P  P23  1  0.67035000  0.99885000  0.37949000  1.0 0.3361479211
P  P24  1  0.99885000  0.67035000  0.12051000  1.0 0.3361479211
P  P25  1  0.00410000  0.14310000  0.32190000  1.0 0.2771796602
P  P26  1  0.14310000  0.00410000  0.17810000  1.0 0.2771796602
P  P27  1  0.99590000  0.85690000  0.67810000  1.0 0.2771796602
P  P28  1  0.85690000  0.99590000  0.82190000  1.0 0.2771796602
P  P29  1  0.36680000  0.24020000  0.61080000  1.0 0.4547500032
P  P30  1  0.24020000  0.36680000  0.88920000  1.0 0.4547500032
P  P31  1  0.63320000  0.75980000  0.38920000  1.0 0.4547500032
P  P32  1  0.75980000  0.63320000  0.11080000  1.0 0.4547500032
P  P33  1  0.25380000  0.91620000  0.61650000  1.0 0.3312754202
P  P34  1  0.91620000  0.25380000  0.88350000  1.0 0.3312754202
P  P35  1  0.74620000  0.08380000  0.38350000  1.0 0.3312754202
P  P36  1  0.08380000  0.74620000  0.11650000  1.0 0.3312754202
H  H1  1  0.18110000  0.03870000  0.44290000  1.0 0.1006253915
H  H2  1  0.03870000  0.18110000  0.05710000  1.0 0.1006253915
H  H3  1  0.81890000  0.96130000  0.55710000  1.0 0.1006253915
H  H4  1  0.96130000  0.81890000  0.94290000  1.0 0.1006253915
H  H5  1  0.18080000  0.86380000  0.42890000  1.0 0.1118051097
H  H6  1  0.86380000  0.18080000  0.07110000  1.0 0.1118051097
H  H7  1  0.81920000  0.13620000  0.57110000  1.0 0.1118051097
H  H8  1  0.13620000  0.81920000  0.92890000  1.0 0.1118051097
H  H9  1  0.27800000  0.85380000  0.33380000  1.0 0.1194539579
H  H10  1  0.85380000  0.27800000  0.16620000  1.0 0.1194539579
H  H11  1  0.72200000  0.14620000  0.66620000  1.0 0.1194539579
H  H12  1  0.14620000  0.72200000  0.83380000  1.0 0.1194539579
H  H13  1  0.88610000  0.58330000  0.27790000  1.0 0.0797007089
H  H14  1  0.58330000  0.88610000  0.22210000  1.0 0.0797007089
H  H15  1  0.11390000  0.41670000  0.72210000  1.0 0.0797007089
H  H16  1  0.41670000  0.11390000  0.77790000  1.0 0.0797007089
H  H17  1  0.90560000  0.67000000  0.31990000  1.0 0.1006253915
H  H18  1  0.67000000  0.90560000  0.18010000  1.0 0.1006253915
H  H19  1  0.09440000  0.33000000  0.68010000  1.0 0.1006253915
H  H20  1  0.33000000  0.09440000  0.81990000  1.0 0.1006253915
H  H21  1  0.29380000  0.93460000  0.37630000  1.0 0.1006253915
H  H22  1  0.93460000  0.29380000  0.12370000  1.0 0.1006253915
H  H23  1  0.70620000  0.06540000  0.62370000  1.0 0.1006253915
H  H24  1  0.06540000  0.70620000  0.87630000  1.0 0.1006253915
H  H25  1  0.36890000  0.79250000  0.45160000  1.0 0.1118051097
H  H26  1  0.79250000  0.36890000  0.04840000  1.0 0.1118051097
H  H27  1  0.63110000  0.20750000  0.54840000  1.0 0.1118051097
H  H28  1  0.20750000  0.63110000  0.95160000  1.0 0.1118051097
H  H29  1  0.43750000  0.79590000  0.51550000  1.0 0.1006253915
H  H30  1  0.79590000  0.43750000  0.98450000  1.0 0.1006253915
H  H31  1  0.56250000  0.20410000  0.48450000  1.0 0.1006253915
H  H32  1  0.20410000  0.56250000  0.01550000  1.0 0.1006253915
H  H33  1  0.13920000  0.38480000  0.49740000  1.0 0.1118051097
H  H34  1  0.38480000  0.13920000  0.00260000  1.0 0.1118051097
H  H35  1  0.86080000  0.61520000  0.50260000  1.0 0.1118051097
H  H36  1  0.61520000  0.86080000  0.99740000  1.0 0.1118051097
H  H37  1  0.06850000  0.38070000  0.43200000  1.0 0.0900535197
H  H38  1  0.38070000  0.06850000  0.06800000  1.0 0.0900535197
H  H39  1  0.93150000  0.61930000  0.56800000  1.0 0.0900535197
H  H40  1  0.61930000  0.93150000  0.93200000  1.0 0.0900535197
H  H41  1  0.45440000  0.59960000  0.64990000  1.0 0.1194539579
H  H42  1  0.59960000  0.45440000  0.85010000  1.0 0.1194539579
H  H43  1  0.54560000  0.40040000  0.35010000  1.0 0.1194539579
H  H44  1  0.40040000  0.54560000  0.14990000  1.0 0.1194539579
H  H45  1  0.32130000  0.49490000  0.53430000  1.0 0.1194539579
H  H46  1  0.49490000  0.32130000  0.96570000  1.0 0.1194539579
H  H47  1  0.67870000  0.50510000  0.46570000  1.0 0.1194539579
H  H48  1  0.50510000  0.67870000  0.03430000  1.0 0.1194539579
H  H49  1  0.29470000  0.63910000  0.63810000  1.0 0.1118051097
H  H50  1  0.63910000  0.29470000  0.86190000  1.0 0.1118051097
H  H51  1  0.70530000  0.36090000  0.36190000  1.0 0.1118051097
H  H52  1  0.36090000  0.70530000  0.13810000  1.0 0.1118051097
H  H53  1  0.33000000  0.71020000  0.69510000  1.0 0.1347193735
H  H54  1  0.71020000  0.33000000  0.80490000  1.0 0.1347193735
H  H55  1  0.67000000  0.28980000  0.30490000  1.0 0.1347193735
H  H56  1  0.28980000  0.67000000  0.19510000  1.0 0.1347193735
H  H57  1  0.65720000  0.88080000  0.73870000  1.0 0.1118051097
H  H58  1  0.88080000  0.65720000  0.76130000  1.0 0.1118051097
H  H59  1  0.34280000  0.11920000  0.26130000  1.0 0.1118051097
H  H60  1  0.11920000  0.34280000  0.23870000  1.0 0.1118051097
H  H61  1  0.62170000  0.80970000  0.68230000  1.0 0.1194539579
H  H62  1  0.80970000  0.62170000  0.81770000  1.0 0.1194539579
H  H63  1  0.37830000  0.19030000  0.31770000  1.0 0.1194539579
H  H64  1  0.19030000  0.37830000  0.18230000  1.0 0.1194539579
H  H65  1  0.12880000  0.15080000  0.28630000  1.0 0.1006253915
H  H66  1  0.15080000  0.12880000  0.21370000  1.0 0.1006253915
H  H67  1  0.87120000  0.84920000  0.71370000  1.0 0.1006253915
H  H68  1  0.84920000  0.87120000  0.78630000  1.0 0.1006253915
H  H69  1  0.13260000  0.04860000  0.31280000  1.0 0.1118051097
H  H70  1  0.04860000  0.13260000  0.18720000  1.0 0.1118051097
H  H71  1  0.86740000  0.95140000  0.68720000  1.0 0.1118051097
H  H72  1  0.95140000  0.86740000  0.81280000  1.0 0.1118051097
H  H73  1  0.05000000  0.00260000  0.42030000  1.0 0.1118051097
H  H74  1  0.00260000  0.05000000  0.07970000  1.0 0.1118051097
H  H75  1  0.95000000  0.99740000  0.57970000  1.0 0.1118051097
H  H76  1  0.99740000  0.95000000  0.92030000  1.0 0.1118051097
H  H77  1  0.04650000  0.10410000  0.39350000  1.0 0.1006253915
H  H78  1  0.10410000  0.04650000  0.10650000  1.0 0.1006253915
H  H79  1  0.95350000  0.89590000  0.60650000  1.0 0.1006253915
H  H80  1  0.89590000  0.95350000  0.89350000  1.0 0.1006253915
H  H81  1  0.48900000  0.56740000  0.54230000  1.0 0.1006253915
H  H82  1  0.56740000  0.48900000  0.95770000  1.0 0.1006253915
H  H83  1  0.51100000  0.43260000  0.45770000  1.0 0.1006253915
H  H84  1  0.43260000  0.51100000  0.04230000  1.0 0.1006253915
H  H85  1  0.52450000  0.49350000  0.55080000  1.0 0.1118051097
H  H86  1  0.49350000  0.52450000  0.94920000  1.0 0.1118051097
H  H87  1  0.47550000  0.50650000  0.44920000  1.0 0.1118051097
H  H88  1  0.50650000  0.47550000  0.05080000  1.0 0.1118051097
H  H89  1  0.35860000  0.31200000  0.66170000  1.0 0.1118051097
H  H90  1  0.31200000  0.35860000  0.83830000  1.0 0.1118051097
H  H91  1  0.64140000  0.68800000  0.33830000  1.0 0.1118051097
H  H92  1  0.68800000  0.64140000  0.16170000  1.0 0.1118051097
H  H93  1  0.39670000  0.17310000  0.56120000  1.0 0.1006253915
H  H94  1  0.17310000  0.39670000  0.93880000  1.0 0.1006253915
H  H95  1  0.60330000  0.82690000  0.43880000  1.0 0.1006253915
H  H96  1  0.82690000  0.60330000  0.06120000  1.0 0.1006253915
H  H97  1  0.34050000  0.15310000  0.49260000  1.0 0.1006253915
H  H98  1  0.15310000  0.34050000  0.00740000  1.0 0.1006253915
H  H99  1  0.65950000  0.84690000  0.50740000  1.0 0.1006253915
H  H100  1  0.84690000  0.65950000  0.99260000  1.0 0.1006253915
H  H101  1  0.15710000  0.81470000  0.49200000  1.0 0.0900535197
H  H102  1  0.81470000  0.15710000  0.00800000  1.0 0.0900535197
H  H103  1  0.84290000  0.18530000  0.50800000  1.0 0.0900535197
H  H104  1  0.18530000  0.84290000  0.99200000  1.0 0.0900535197
H  H105  1  0.21330000  0.83470000  0.56050000  1.0 0.1006253915
H  H106  1  0.83470000  0.21330000  0.93950000  1.0 0.1006253915
H  H107  1  0.78670000  0.16530000  0.43950000  1.0 0.1006253915
H  H108  1  0.16530000  0.78670000  0.06050000  1.0 0.1006253915
H  H109  1  0.15550000  0.92410000  0.30120000  1.0 0.1006253915
H  H110  1  0.92410000  0.15550000  0.19880000  1.0 0.1006253915
H  H111  1  0.84450000  0.07590000  0.69880000  1.0 0.1006253915
H  H112  1  0.07590000  0.84450000  0.80120000  1.0 0.1006253915
H  H113  1  0.13920000  0.84080000  0.25940000  1.0 0.0378480487
H  H114  1  0.84080000  0.13920000  0.24060000  1.0 0.0378480487
H  H115  1  0.86080000  0.15920000  0.74060000  1.0 0.0378480487
H  H116  1  0.15920000  0.86080000  0.75940000  1.0 0.0378480487
H  H117  1  0.97300000  0.55540000  0.34910000  1.0 0.1118051097
H  H118  1  0.55540000  0.97300000  0.15090000  1.0 0.1118051097
H  H119  1  0.02700000  0.44460000  0.65090000  1.0 0.1118051097
H  H120  1  0.44460000  0.02700000  0.84910000  1.0 0.1118051097
H  H121  1  0.03000000  0.67060000  0.39330000  1.0 0.1006253915
H  H122  1  0.67060000  0.03000000  0.10670000  1.0 0.1006253915
H  H123  1  0.97000000  0.32940000  0.60670000  1.0 0.1006253915
H  H124  1  0.32940000  0.97000000  0.89330000  1.0 0.1006253915
H  H125  1  0.25780000  0.19680000  0.40980000  1.0 0.0900535197
H  H126  1  0.19680000  0.25780000  0.09020000  1.0 0.0900535197
H  H127  1  0.74220000  0.80320000  0.59020000  1.0 0.0900535197
H  H128  1  0.80320000  0.74220000  0.90980000  1.0 0.0900535197
H  H129  1  0.21500000  0.26260000  0.38640000  1.0 0.1006253915
H  H130  1  0.26260000  0.21500000  0.11360000  1.0 0.1006253915
H  H131  1  0.78500000  0.73740000  0.61360000  1.0 0.1006253915
H  H132  1  0.73740000  0.78500000  0.88640000  1.0 0.1006253915
H  H133  1  0.88360000  0.92300000  0.30480000  1.0 0.1006253915
H  H134  1  0.92300000  0.88360000  0.19520000  1.0 0.1006253915
H  H135  1  0.11640000  0.07700000  0.69520000  1.0 0.1006253915
H  H136  1  0.07700000  0.11640000  0.80480000  1.0 0.1006253915
H  H137  1  0.92910000  0.85930000  0.32930000  1.0 0.1194539579
H  H138  1  0.85930000  0.92910000  0.17070000  1.0 0.1194539579
H  H139  1  0.07090000  0.14070000  0.67070000  1.0 0.1194539579
H  H140  1  0.14070000  0.07090000  0.82930000  1.0 0.1194539579
H  H141  1  0.19740000  0.29340000  0.55680000  1.0 0.0900535197
H  H142  1  0.29340000  0.19740000  0.94320000  1.0 0.0900535197
H  H143  1  0.80260000  0.70660000  0.44320000  1.0 0.0900535197
H  H144  1  0.70660000  0.80260000  0.05680000  1.0 0.0900535197
H  H145  1  0.18890000  0.17810000  0.56520000  1.0 0.1006253915
H  H146  1  0.17810000  0.18890000  0.93480000  1.0 0.1006253915
H  H147  1  0.81110000  0.82190000  0.43480000  1.0 0.1006253915
H  H148  1  0.82190000  0.81110000  0.06520000  1.0 0.1006253915
H  H149  1  0.53240000  0.47600000  0.65360000  1.0 0.1118051097
H  H150  1  0.47600000  0.53240000  0.84640000  1.0 0.1118051097
H  H151  1  0.46760000  0.52400000  0.34640000  1.0 0.1118051097
H  H152  1  0.52400000  0.46760000  0.15360000  1.0 0.1118051097
H  H153  1  0.54090000  0.59150000  0.64520000  1.0 0.1006253915
H  H154  1  0.59150000  0.54090000  0.85480000  1.0 0.1006253915
H  H155  1  0.45910000  0.40850000  0.35480000  1.0 0.1006253915
H  H156  1  0.40850000  0.45910000  0.14520000  1.0 0.1006253915
H  H157  1  0.18670000  0.97530000  0.56770000  1.0 0.1006253915
H  H158  1  0.97530000  0.18670000  0.93230000  1.0 0.1006253915
H  H159  1  0.81330000  0.02470000  0.43230000  1.0 0.1006253915
H  H160  1  0.02470000  0.81330000  0.06770000  1.0 0.1006253915
H  H161  1  0.14380000  0.97180000  0.49890000  1.0 0.1006253915
H  H162  1  0.97180000  0.14380000  0.00110000  1.0 0.1006253915
H  H163  1  0.85620000  0.02820000  0.50110000  1.0 0.1006253915
H  H164  1  0.02820000  0.85620000  0.99890000  1.0 0.1006253915
H  H165  1  0.29820000  0.95020000  0.48210000  1.0 0.0900535197
H  H166  1  0.95020000  0.29820000  0.01790000  1.0 0.0900535197
H  H167  1  0.70180000  0.04980000  0.51790000  1.0 0.0900535197
H  H168  1  0.04980000  0.70180000  0.98210000  1.0 0.0900535197
H  H169  1  0.34110000  0.95370000  0.55090000  1.0 0.0797007089
H  H170  1  0.95370000  0.34110000  0.94910000  1.0 0.0797007089
H  H171  1  0.65890000  0.04630000  0.44910000  1.0 0.0797007089
H  H172  1  0.04630000  0.65890000  0.05090000  1.0 0.0797007089
C  C1  1  0.11530000  0.97070000  0.38720000  1.0 0.1558298933
C  C2  1  0.97070000  0.11530000  0.11280000  1.0 0.1558298933
C  C3  1  0.88470000  0.02930000  0.61280000  1.0 0.1558298933
C  C4  1  0.02930000  0.88470000  0.88720000  1.0 0.1558298933
C  C5  1  0.16398000  0.99462000  0.42640000  1.0 -0.3509771956
C  C6  1  0.99462000  0.16398000  0.07360000  1.0 -0.3509771956
C  C7  1  0.83602000  0.00538000  0.57360000  1.0 -0.3509771956
C  C8  1  0.00538000  0.83602000  0.92640000  1.0 -0.3509771956
C  C9  1  0.18814000  0.95466000  0.44170000  1.0 0.0797007089
C  C10  1  0.95466000  0.18814000  0.05830000  1.0 0.0797007089
C  C11  1  0.81186000  0.04534000  0.55830000  1.0 0.0797007089
C  C12  1  0.04534000  0.81186000  0.94170000  1.0 0.0797007089
C  C13  1  0.16390000  0.89110000  0.41820000  1.0 -0.3206833335
C  C14  1  0.89110000  0.16390000  0.08180000  1.0 -0.3206833335
C  C15  1  0.83610000  0.10890000  0.58180000  1.0 -0.3206833335
C  C16  1  0.10890000  0.83610000  0.91820000  1.0 -0.3206833335
C  C17  1  0.11510000  0.86670000  0.37880000  1.0 0.1924969124
C  C18  1  0.86670000  0.11510000  0.12120000  1.0 0.1924969124
C  C19  1  0.88490000  0.13330000  0.62120000  1.0 0.1924969124
C  C20  1  0.13330000  0.88490000  0.87880000  1.0 0.1924969124
C  C21  1  0.07690000  0.70770000  0.30140000  1.0 -0.0680957454
C  C22  1  0.70770000  0.07690000  0.19860000  1.0 -0.0680957454
C  C23  1  0.92310000  0.29230000  0.69860000  1.0 -0.0680957454
C  C24  1  0.29230000  0.92310000  0.80140000  1.0 -0.0680957454
C  C25  1  0.10323000  0.81297000  0.35190000  1.0 0.0472948308
C  C26  1  0.81297000  0.10323000  0.14810000  1.0 0.0472948308
C  C27  1  0.89677000  0.18703000  0.64810000  1.0 0.0472948308
C  C28  1  0.18703000  0.89677000  0.85190000  1.0 0.0472948308
C  C29  1  0.20190000  0.81570000  0.33110000  1.0 -0.027615408
C  C30  1  0.81570000  0.20190000  0.16890000  1.0 -0.027615408
C  C31  1  0.79810000  0.18430000  0.66890000  1.0 -0.027615408
C  C32  1  0.18430000  0.79810000  0.83110000  1.0 -0.027615408
C  C33  1  0.97010000  0.65590000  0.29780000  1.0 -0.0508233632
C  C34  1  0.65590000  0.97010000  0.20220000  1.0 -0.0508233632
C  C35  1  0.02990000  0.34410000  0.70220000  1.0 -0.0508233632
C  C36  1  0.34410000  0.02990000  0.79780000  1.0 -0.0508233632
C  C37  1  0.98120000  0.70720000  0.32280000  1.0 -0.0385443998
C  C38  1  0.70720000  0.98120000  0.17720000  1.0 -0.0385443998
C  C39  1  0.01880000  0.29280000  0.67720000  1.0 -0.0385443998
C  C40  1  0.29280000  0.01880000  0.82280000  1.0 -0.0385443998
C  C41  1  0.21160000  0.86440000  0.35590000  1.0 -0.0680957454
C  C42  1  0.86440000  0.21160000  0.14410000  1.0 -0.0680957454
C  C43  1  0.78840000  0.13560000  0.64410000  1.0 -0.0680957454
C  C44  1  0.13560000  0.78840000  0.85590000  1.0 -0.0680957454
C  C45  1  0.21170000  0.58530000  0.43590000  1.0 -0.1602465195
C  C46  1  0.58530000  0.21170000  0.06410000  1.0 -0.1602465195
C  C47  1  0.78830000  0.41470000  0.56410000  1.0 -0.1602465195
C  C48  1  0.41470000  0.78830000  0.93590000  1.0 -0.1602465195
C  C49  1  0.32190000  0.70950000  0.46060000  1.0 -0.0680957454
C  C50  1  0.70950000  0.32190000  0.03940000  1.0 -0.0680957454
C  C51  1  0.67810000  0.29050000  0.53940000  1.0 -0.0680957454
C  C52  1  0.29050000  0.67810000  0.96060000  1.0 -0.0680957454
C  C53  1  0.36260000  0.71160000  0.49860000  1.0 -0.1304564223
C  C54  1  0.71160000  0.36260000  0.00140000  1.0 -0.1304564223
C  C55  1  0.63740000  0.28840000  0.50140000  1.0 -0.1304564223
C  C56  1  0.28840000  0.63740000  0.99860000  1.0 -0.1304564223
C  C57  1  0.29400000  0.59060000  0.51180000  1.0 0.0609687696
C  C58  1  0.59060000  0.29400000  0.98820000  1.0 0.0609687696
C  C59  1  0.70600000  0.40940000  0.48820000  1.0 0.0609687696
C  C60  1  0.40940000  0.70600000  0.01180000  1.0 0.0609687696
C  C61  1  0.18560000  0.46720000  0.48820000  1.0 -0.1991259774
C  C62  1  0.46720000  0.18560000  0.01180000  1.0 -0.1991259774
C  C63  1  0.81440000  0.53280000  0.51180000  1.0 -0.1991259774
C  C64  1  0.53280000  0.81440000  0.98820000  1.0 -0.1991259774
C  C65  1  0.14330000  0.46510000  0.44880000  1.0 -0.189773312
C  C66  1  0.46510000  0.14330000  0.05120000  1.0 -0.189773312
C  C67  1  0.85670000  0.53490000  0.55120000  1.0 -0.189773312
C  C68  1  0.53490000  0.85670000  0.94880000  1.0 -0.189773312
C  C69  1  0.34490000  0.59730000  0.55200000  1.0 0.1924969124
C  C70  1  0.59730000  0.34490000  0.94800000  1.0 0.1924969124
C  C71  1  0.65510000  0.40270000  0.44800000  1.0 0.1924969124
C  C72  1  0.40270000  0.65510000  0.05200000  1.0 0.1924969124
C  C73  1  0.42280000  0.65900000  0.61950000  1.0 0.1964988726
C  C74  1  0.65900000  0.42280000  0.88050000  1.0 0.1964988726
C  C75  1  0.57720000  0.34100000  0.38050000  1.0 0.1964988726
C  C76  1  0.34100000  0.57720000  0.11950000  1.0 0.1964988726
C  C77  1  0.42610000  0.59910000  0.62460000  1.0 -0.2599151974
C  C78  1  0.59910000  0.42610000  0.87540000  1.0 -0.2599151974
C  C79  1  0.57390000  0.40090000  0.37540000  1.0 -0.2599151974
C  C80  1  0.40090000  0.57390000  0.12460000  1.0 -0.2599151974
C  C81  1  0.38820000  0.53820000  0.59280000  1.0 0.0900535197
C  C82  1  0.53820000  0.38820000  0.90720000  1.0 0.0900535197
C  C83  1  0.61180000  0.46180000  0.40720000  1.0 0.0900535197
C  C84  1  0.46180000  0.61180000  0.09280000  1.0 0.0900535197
C  C85  1  0.34740000  0.53680000  0.55630000  1.0 -0.2672605646
C  C86  1  0.53680000  0.34740000  0.94370000  1.0 -0.2672605646
C  C87  1  0.65260000  0.46320000  0.44370000  1.0 -0.2672605646
C  C88  1  0.46320000  0.65260000  0.05630000  1.0 -0.2672605646
C  C89  1  0.45600000  0.71800000  0.65480000  1.0 0.0472948308
C  C90  1  0.71800000  0.45600000  0.84520000  1.0 0.0472948308
C  C91  1  0.54400000  0.28200000  0.34520000  1.0 0.0472948308
C  C92  1  0.28200000  0.54400000  0.15480000  1.0 0.0472948308
C  C93  1  0.36910000  0.68850000  0.65870000  1.0 -0.1304564223
C  C94  1  0.68850000  0.36910000  0.84130000  1.0 -0.1304564223
C  C95  1  0.63090000  0.31150000  0.34130000  1.0 -0.1304564223
C  C96  1  0.31150000  0.63090000  0.15870000  1.0 -0.1304564223
C  C97  1  0.38990000  0.73050000  0.69260000  1.0 -0.0508233632
C  C98  1  0.73050000  0.38990000  0.80740000  1.0 -0.0508233632
C  C99  1  0.61010000  0.26950000  0.30740000  1.0 -0.0508233632
C  C100  1  0.26950000  0.61010000  0.19260000  1.0 -0.0508233632
C  C101  1  0.49620000  0.80120000  0.72250000  1.0 -0.1070350996
C  C102  1  0.80120000  0.49620000  0.77750000  1.0 -0.1070350996
C  C103  1  0.50380000  0.19880000  0.27750000  1.0 -0.1070350996
C  C104  1  0.19880000  0.50380000  0.22250000  1.0 -0.1070350996
C  C105  1  0.58230000  0.83070000  0.71830000  1.0 -0.0680957454
C  C106  1  0.83070000  0.58230000  0.78170000  1.0 -0.0680957454
C  C107  1  0.41770000  0.16930000  0.28170000  1.0 -0.0680957454
C  C108  1  0.16930000  0.41770000  0.21830000  1.0 -0.0680957454
C  C109  1  0.56120000  0.78880000  0.68460000  1.0 -0.1371823551
C  C110  1  0.78880000  0.56120000  0.81540000  1.0 -0.1371823551
C  C111  1  0.43880000  0.21120000  0.31540000  1.0 -0.1371823551
C  C112  1  0.21120000  0.43880000  0.18460000  1.0 -0.1371823551
C  C113  1  0.11310000  0.12090000  0.31390000  1.0 -0.0508233632
C  C114  1  0.12090000  0.11310000  0.18610000  1.0 -0.0508233632
C  C115  1  0.88690000  0.87910000  0.68610000  1.0 -0.0508233632
C  C116  1  0.87910000  0.88690000  0.81390000  1.0 -0.0508233632
C  C117  1  0.09250000  0.01550000  0.36960000  1.0 0.0206054109
C  C118  1  0.01550000  0.09250000  0.13040000  1.0 0.0206054109
C  C119  1  0.90750000  0.98450000  0.63040000  1.0 0.0206054109
C  C120  1  0.98450000  0.90750000  0.86960000  1.0 0.0206054109
C  C121  1  0.08780000  0.13820000  0.33720000  1.0 -0.0889662636
C  C122  1  0.13820000  0.08780000  0.16280000  1.0 -0.0889662636
C  C123  1  0.91220000  0.86180000  0.66280000  1.0 -0.0889662636
C  C124  1  0.86180000  0.91220000  0.83720000  1.0 -0.0889662636
C  C125  1  0.11560000  0.06040000  0.32950000  1.0 -0.0385443998
C  C126  1  0.06040000  0.11560000  0.17050000  1.0 -0.0385443998
C  C127  1  0.88440000  0.93960000  0.67050000  1.0 -0.0385443998
C  C128  1  0.93960000  0.88440000  0.82950000  1.0 -0.0385443998
C  C129  1  0.06680000  0.03320000  0.39280000  1.0 -0.0133103264
C  C130  1  0.03320000  0.06680000  0.10720000  1.0 -0.0133103264
C  C131  1  0.93320000  0.96680000  0.60720000  1.0 -0.0133103264
C  C132  1  0.96680000  0.93320000  0.89280000  1.0 -0.0133103264
C  C133  1  0.06460000  0.09340000  0.37680000  1.0 0.0325840524
C  C134  1  0.09340000  0.06460000  0.12320000  1.0 0.0325840524
C  C135  1  0.93540000  0.90660000  0.62320000  1.0 0.0325840524
C  C136  1  0.90660000  0.93540000  0.87680000  1.0 0.0325840524
C  C137  1  0.36410000  0.40790000  0.63240000  1.0 0.0088628518
C  C138  1  0.40790000  0.36410000  0.86760000  1.0 0.0088628518
C  C139  1  0.63590000  0.59210000  0.36760000  1.0 0.0088628518
C  C140  1  0.59210000  0.63590000  0.13240000  1.0 0.0088628518
C  C141  1  0.40250000  0.48350000  0.59700000  1.0 0.0378480487
C  C142  1  0.48350000  0.40250000  0.90300000  1.0 0.0378480487
C  C143  1  0.59750000  0.51650000  0.40300000  1.0 0.0378480487
C  C144  1  0.51650000  0.59750000  0.09700000  1.0 0.0378480487
C  C145  1  0.46250000  0.51550000  0.56650000  1.0 -0.0803993327
C  C146  1  0.51550000  0.46250000  0.93350000  1.0 -0.0803993327
C  C147  1  0.53750000  0.48450000  0.43350000  1.0 -0.0803993327
C  C148  1  0.48450000  0.53750000  0.06650000  1.0 -0.0803993327
C  C149  1  0.48400000  0.47200000  0.57160000  1.0 -0.1847630275
C  C150  1  0.47200000  0.48400000  0.92840000  1.0 -0.1847630275
C  C151  1  0.51600000  0.52800000  0.42840000  1.0 -0.1847630275
C  C152  1  0.52800000  0.51600000  0.07160000  1.0 -0.1847630275
C  C153  1  0.44450000  0.39550000  0.60700000  1.0 -0.0385443998
C  C154  1  0.39550000  0.44450000  0.89300000  1.0 -0.0385443998
C  C155  1  0.55550000  0.60450000  0.39300000  1.0 -0.0385443998
C  C156  1  0.60450000  0.55550000  0.10700000  1.0 -0.0385443998
C  C157  1  0.38460000  0.36340000  0.63740000  1.0 0.0088628518
C  C158  1  0.36340000  0.38460000  0.86260000  1.0 0.0088628518
C  C159  1  0.61540000  0.63660000  0.36260000  1.0 0.0088628518
C  C160  1  0.63660000  0.61540000  0.13740000  1.0 0.0088628518
C  C161  1  0.34810000  0.10030000  0.54720000  1.0 -0.027615408
C  C162  1  0.10030000  0.34810000  0.95280000  1.0 -0.027615408
C  C163  1  0.65190000  0.89970000  0.45280000  1.0 -0.027615408
C  C164  1  0.89970000  0.65190000  0.04720000  1.0 -0.027615408
C  C165  1  0.31472000  0.08848000  0.50640000  1.0 -0.027615408
C  C166  1  0.08848000  0.31472000  0.99360000  1.0 -0.027615408
C  C167  1  0.68528000  0.91152000  0.49360000  1.0 -0.027615408
C  C168  1  0.91152000  0.68528000  0.00640000  1.0 -0.027615408
C  C169  1  0.24360000  0.98200000  0.48585000  1.0 0.0378480487
C  C170  1  0.98200000  0.24360000  0.01415000  1.0 0.0378480487
C  C171  1  0.75640000  0.01800000  0.51415000  1.0 0.0378480487
C  C172  1  0.01800000  0.75640000  0.98585000  1.0 0.0378480487
C  C173  1  0.20570000  0.88750000  0.50600000  1.0 0.0020812587
C  C174  1  0.88750000  0.20570000  0.99400000  1.0 0.0020812587
C  C175  1  0.79430000  0.11250000  0.49400000  1.0 0.0020812587
C  C176  1  0.11250000  0.79430000  0.00600000  1.0 0.0020812587
C  C177  1  0.23910000  0.89930000  0.54680000  1.0 0.0325840524
C  C178  1  0.89930000  0.23910000  0.95320000  1.0 0.0325840524
C  C179  1  0.76090000  0.10070000  0.45320000  1.0 0.0325840524
C  C180  1  0.10070000  0.76090000  0.04680000  1.0 0.0325840524
C  C181  1  0.31020000  0.00580000  0.56734000  1.0 -0.1474756507
C  C182  1  0.00580000  0.31020000  0.93266000  1.0 -0.1474756507
C  C183  1  0.68980000  0.99420000  0.43266000  1.0 -0.1474756507
C  C184  1  0.99420000  0.68980000  0.06734000  1.0 -0.1474756507
C  C185  1  0.12980000  0.85820000  0.31160000  1.0 -0.0508233632
C  C186  1  0.85820000  0.12980000  0.18840000  1.0 -0.0508233632
C  C187  1  0.87020000  0.14180000  0.68840000  1.0 -0.0508233632
C  C188  1  0.14180000  0.87020000  0.81160000  1.0 -0.0508233632
C  C189  1  0.11850000  0.80750000  0.28680000  1.0 -0.0680957454
C  C190  1  0.80750000  0.11850000  0.21320000  1.0 -0.0680957454
C  C191  1  0.88150000  0.19250000  0.71320000  1.0 -0.0680957454
C  C192  1  0.19250000  0.88150000  0.78680000  1.0 -0.0680957454
C  C193  1  0.02450000  0.64150000  0.34040000  1.0 -0.0203493734
C  C194  1  0.64150000  0.02450000  0.15960000  1.0 -0.0203493734
C  C195  1  0.97550000  0.35850000  0.65960000  1.0 -0.0203493734
C  C196  1  0.35850000  0.97550000  0.84040000  1.0 -0.0203493734
C  C197  1  0.04920000  0.70280000  0.36590000  1.0 -0.0508233632
C  C198  1  0.70280000  0.04920000  0.13410000  1.0 -0.0508233632
C  C199  1  0.95080000  0.29720000  0.63410000  1.0 -0.0508233632
C  C200  1  0.29720000  0.95080000  0.86590000  1.0 -0.0508233632
C  C201  1  0.18140000  0.14060000  0.38850000  1.0 -0.0203493734
C  C202  1  0.14060000  0.18140000  0.11150000  1.0 -0.0203493734
C  C203  1  0.81860000  0.85940000  0.61150000  1.0 -0.0203493734
C  C204  1  0.85940000  0.81860000  0.88850000  1.0 -0.0203493734
C  C205  1  0.15620000  0.17980000  0.37470000  1.0 -0.027615408
C  C206  1  0.17980000  0.15620000  0.12530000  1.0 -0.027615408
C  C207  1  0.84380000  0.82020000  0.62530000  1.0 -0.027615408
C  C208  1  0.82020000  0.84380000  0.87470000  1.0 -0.027615408
C  C209  1  0.09820000  0.02180000  0.37190000  1.0 0.0206054109
C  C210  1  0.02180000  0.09820000  0.12810000  1.0 0.0206054109
C  C211  1  0.90180000  0.97820000  0.62810000  1.0 0.0206054109
C  C212  1  0.97820000  0.90180000  0.87190000  1.0 0.0206054109
C  C213  1  0.95950000  0.97850000  0.32610000  1.0 -0.0582153016
C  C214  1  0.97850000  0.95950000  0.17390000  1.0 -0.0582153016
C  C215  1  0.04050000  0.02150000  0.67390000  1.0 -0.0582153016
C  C216  1  0.02150000  0.04050000  0.82610000  1.0 -0.0582153016
C  C217  1  0.04550000  0.09850000  0.34360000  1.0 -0.0582153016
C  C218  1  0.09850000  0.04550000  0.15640000  1.0 -0.0582153016
C  C219  1  0.95450000  0.90150000  0.65640000  1.0 -0.0582153016
C  C220  1  0.90150000  0.95450000  0.84360000  1.0 -0.0582153016
C  C221  1  0.98780000  0.94220000  0.34080000  1.0 -0.027615408
C  C222  1  0.94220000  0.98780000  0.15920000  1.0 -0.027615408
C  C223  1  0.01220000  0.05780000  0.65920000  1.0 -0.027615408
C  C224  1  0.05780000  0.01220000  0.84080000  1.0 -0.027615408
C  C225  1  0.37030000  0.45370000  0.60020000  1.0 0.0378480487
C  C226  1  0.45370000  0.37030000  0.89980000  1.0 0.0378480487
C  C227  1  0.62970000  0.54630000  0.39980000  1.0 0.0378480487
C  C228  1  0.54630000  0.62970000  0.10020000  1.0 0.0378480487
C  C229  1  0.26550000  0.33050000  0.57640000  1.0 -0.0582153016
C  C230  1  0.33050000  0.26550000  0.92360000  1.0 -0.0582153016
C  C231  1  0.73450000  0.66950000  0.42360000  1.0 -0.0582153016
C  C232  1  0.66950000  0.73450000  0.07640000  1.0 -0.0582153016
C  C233  1  0.26020000  0.26180000  0.58140000  1.0 -0.2092440018
C  C234  1  0.26180000  0.26020000  0.91860000  1.0 -0.2092440018
C  C235  1  0.73980000  0.73820000  0.41860000  1.0 -0.2092440018
C  C236  1  0.73820000  0.73980000  0.08140000  1.0 -0.2092440018
C  C237  1  0.35980000  0.31620000  0.61020000  1.0 -0.0203493734
C  C238  1  0.31620000  0.35980000  0.88980000  1.0 -0.0203493734
C  C239  1  0.64020000  0.68380000  0.38980000  1.0 -0.0203493734
C  C240  1  0.68380000  0.64020000  0.11020000  1.0 -0.0203493734
C  C241  1  0.46470000  0.43930000  0.63390000  1.0 0.0206054109
C  C242  1  0.43930000  0.46470000  0.86610000  1.0 0.0206054109
C  C243  1  0.53530000  0.56070000  0.36610000  1.0 0.0206054109
C  C244  1  0.56070000  0.53530000  0.13390000  1.0 0.0206054109
C  C245  1  0.47000000  0.50800000  0.62890000  1.0 -0.0203493734
C  C246  1  0.50800000  0.47000000  0.87110000  1.0 -0.0203493734
C  C247  1  0.53000000  0.49200000  0.37110000  1.0 -0.0203493734
C  C248  1  0.49200000  0.53000000  0.12890000  1.0 -0.0203493734
C  C249  1  0.26760000  0.96440000  0.56570000  1.0 -0.1371823551
C  C250  1  0.96440000  0.26760000  0.93430000  1.0 -0.1371823551
C  C251  1  0.73240000  0.03560000  0.43430000  1.0 -0.1371823551
C  C252  1  0.03560000  0.73240000  0.06570000  1.0 -0.1371823551
C  C253  1  0.20960000  0.97040000  0.55030000  1.0 -0.027615408
C  C254  1  0.97040000  0.20960000  0.94970000  1.0 -0.027615408
C  C255  1  0.79040000  0.02960000  0.44970000  1.0 -0.027615408
C  C256  1  0.02960000  0.79040000  0.05030000  1.0 -0.027615408
C  C257  1  0.18390000  0.96810000  0.50940000  1.0 -0.0385443998
C  C258  1  0.96810000  0.18390000  0.99060000  1.0 -0.0385443998
C  C259  1  0.81610000  0.03190000  0.49060000  1.0 -0.0385443998
C  C260  1  0.03190000  0.81610000  0.00940000  1.0 -0.0385443998
C  C261  1  0.21710000  0.96090000  0.48400000  1.0 0.0609687696
C  C262  1  0.96090000  0.21710000  0.01600000  1.0 0.0609687696
C  C263  1  0.78290000  0.03910000  0.51600000  1.0 0.0609687696
C  C264  1  0.03910000  0.78290000  0.98400000  1.0 0.0609687696
C  C265  1  0.27510000  0.95490000  0.49950000  1.0 -0.0133103264
C  C266  1  0.95490000  0.27510000  0.00050000  1.0 -0.0203493734
C  C267  1  0.72490000  0.04510000  0.50050000  1.0 -0.0203493734
C  C268  1  0.04510000  0.72490000  0.99950000  1.0 -0.0203493734
C  C269  1  0.30080000  0.95720000  0.54030000  1.0 0.0020812587
C  C270  1  0.95720000  0.30080000  0.95970000  1.0 0.0020812587
C  C271  1  0.69920000  0.04280000  0.45970000  1.0 0.0020812587
C  C272  1  0.04280000  0.69920000  0.04030000  1.0 0.0020812587
N  N1  1  0.08720000  0.90340000  0.36310000  1.0 -0.3996732068
N  N2  1  0.90340000  0.08720000  0.13690000  1.0 -0.3996732068
N  N3  1  0.91280000  0.09660000  0.63690000  1.0 -0.3996732068
N  N4  1  0.09660000  0.91280000  0.86310000  1.0 -0.3996732068
N  N5  1  0.37940000  0.65620000  0.58330000  1.0 -0.3206833335
N  N6  1  0.65620000  0.37940000  0.91670000  1.0 -0.3206833335
N  N7  1  0.62060000  0.34380000  0.41670000  1.0 -0.3206833335
N  N8  1  0.34380000  0.62060000  0.08330000  1.0 -0.3206833335
O  O1  1  0.22626000  0.76234000  0.27080000  1.0 -0.7566475106
O  O2  1  0.76234000  0.22626000  0.22920000  1.0 -0.7566475106
O  O3  1  0.77374000  0.23766000  0.72920000  1.0 -0.7566475106
O  O4  1  0.23766000  0.77374000  0.77080000  1.0 -0.7566475106
O  O5  1  0.92901000  0.47499000  0.27820000  1.0 -0.7547247094
O  O6  1  0.47499000  0.92901000  0.22180000  1.0 -0.7547247094
O  O7  1  0.07099000  0.52501000  0.72180000  1.0 -0.7547247094
O  O8  1  0.52501000  0.07099000  0.77820000  1.0 -0.7547247094
O  O9  1  0.03683000  0.65957000  0.22570000  1.0 -0.8004920614
O  O10  1  0.65957000  0.03683000  0.27430000  1.0 -0.8004920614
O  O11  1  0.96317000  0.34043000  0.77430000  1.0 -0.8004920614
O  O12  1  0.34043000  0.96317000  0.72570000  1.0 -0.8004920614
O  O13  1  0.15450000  0.53370000  0.35829000  1.0 -0.8004920614
O  O14  1  0.53370000  0.15450000  0.14171000  1.0 -0.8004920614
O  O15  1  0.84550000  0.46630000  0.64171000  1.0 -0.8004920614
O  O16  1  0.46630000  0.84550000  0.85829000  1.0 -0.8004920614
O  O17  1  0.98410000  0.44210000  0.38730000  1.0 -0.6921514583
O  O18  1  0.44210000  0.98410000  0.11270000  1.0 -0.6801666025
O  O19  1  0.01590000  0.55790000  0.61270000  1.0 -0.6801666025
O  O20  1  0.55790000  0.01590000  0.88730000  1.0 -0.6801666025
O  O21  1  0.27730000  0.73990000  0.37630000  1.0 -0.6921514583
O  O22  1  0.73990000  0.27730000  0.12370000  1.0 -0.6921514583
O  O23  1  0.72270000  0.26010000  0.62370000  1.0 -0.6921514583
O  O24  1  0.26010000  0.72270000  0.87630000  1.0 -0.6921514583
O  O25  1  0.46344000  0.86196000  0.76180000  1.0 -0.6959218216
O  O26  1  0.86196000  0.46344000  0.73820000  1.0 -0.6959218216
O  O27  1  0.53656000  0.13804000  0.23820000  1.0 -0.6959218216
O  O28  1  0.13804000  0.53656000  0.26180000  1.0 -0.6959218216
O  O29  1  0.36425000  0.66655000  0.79390000  1.0 -0.6801666025
O  O30  1  0.66655000  0.36425000  0.70610000  1.0 -0.6801666025
O  O31  1  0.63575000  0.33345000  0.20610000  1.0 -0.6801666025
O  O32  1  0.33345000  0.63575000  0.29390000  1.0 -0.6801666025
O  O33  1  0.65660000  0.95780000  0.79070000  1.0 -0.7076779438
O  O34  1  0.95780000  0.65660000  0.70930000  1.0 -0.7076779438
O  O35  1  0.34340000  0.04220000  0.20930000  1.0 -0.7076779438
O  O36  1  0.04220000  0.34340000  0.29070000  1.0 -0.7076779438
O  O37  1  0.06260000  0.22940000  0.34850000  1.0 -0.2383167875
O  O38  1  0.22940000  0.06260000  0.15150000  1.0 -0.2383167875
O  O39  1  0.93740000  0.77060000  0.65150000  1.0 -0.2383167875
O  O40  1  0.77060000  0.93740000  0.84850000  1.0 -0.2383167875
O  O41  1  0.26970000  0.40430000  0.30300000  1.0 -0.2527935339
O  O42  1  0.40430000  0.26970000  0.19700000  1.0 -0.2527935339
O  O43  1  0.73030000  0.59570000  0.69700000  1.0 -0.2527935339
O  O44  1  0.59570000  0.73030000  0.80300000  1.0 -0.2527935339
O  O45  1  0.98450000  0.13950000  0.28220000  1.0 -0.1991259774
O  O46  1  0.13950000  0.98450000  0.21780000  1.0 -0.1991259774
O  O47  1  0.01550000  0.86050000  0.71780000  1.0 -0.1991259774
O  O48  1  0.86050000  0.01550000  0.78220000  1.0 -0.1991259774
O  O49  1  0.58306000  0.09294000  0.30483000  1.0 -0.6022402478
O  O50  1  0.09294000  0.58306000  0.19517000  1.0 -0.6022402478
O  O51  1  0.41694000  0.90706000  0.69517000  1.0 -0.6022402478
O  O52  1  0.90706000  0.41694000  0.80483000  1.0 -0.6022402478
O  O53  1  0.30360000  0.16340000  0.60060000  1.0 0.0088628518
O  O54  1  0.16340000  0.30360000  0.89940000  1.0 0.0088628518
O  O55  1  0.69640000  0.83660000  0.39940000  1.0 0.0088628518
O  O56  1  0.83660000  0.69640000  0.10060000  1.0 0.0088628518
O  O57  1  0.58950000  0.43310000  0.58360000  1.0 -0.3283680213
O  O58  1  0.43310000  0.58950000  0.91640000  1.0 -0.3283680213
O  O59  1  0.41050000  0.56690000  0.41640000  1.0 -0.3283680213
O  O60  1  0.56690000  0.41050000  0.08360000  1.0 -0.3283680213
O  O61  1  0.52280000  0.35720000  0.65430000  1.0 -0.3283680213
O  O62  1  0.35720000  0.52280000  0.84570000  1.0 -0.3283680213
O  O63  1  0.47720000  0.64280000  0.34570000  1.0 -0.3283680213
O  O64  1  0.64280000  0.47720000  0.15430000  1.0 -0.3283680213
O  O65  1  0.35860000  0.95900000  0.63290000  1.0 -0.2092440018
O  O66  1  0.95900000  0.35860000  0.86710000  1.0 -0.2092440018
O  O67  1  0.64140000  0.04100000  0.36710000  1.0 -0.2092440018
O  O68  1  0.04100000  0.64140000  0.13290000  1.0 -0.2092440018
O  O69  1  0.46110000  0.15830000  0.63570000  1.0 -0.3206833335
O  O70  1  0.15830000  0.46110000  0.86430000  1.0 -0.3206833335
O  O71  1  0.53890000  0.84170000  0.36430000  1.0 -0.3206833335
O  O72  1  0.84170000  0.53890000  0.13570000  1.0 -0.3206833335
O  O73  1  0.17130000  0.86790000  0.63750000  1.0 -0.2383167875
O  O74  1  0.86790000  0.17130000  0.86250000  1.0 -0.2383167875
O  O75  1  0.82870000  0.13210000  0.36250000  1.0 -0.2383167875
O  O76  1  0.13210000  0.82870000  0.13750000  1.0 -0.2383167875
O  O77  1  0.16910000  0.32530000  0.31730000  1.0 -0.027615408
O  O78  1  0.32530000  0.16910000  0.18270000  1.0 -0.027615408
O  O79  1  0.83090000  0.67470000  0.68270000  1.0 -0.027615408
O  O80  1  0.67470000  0.83090000  0.81730000  1.0 -0.027615408
O  O81  1  0.92270000  0.09130000  0.35430000  1.0 -0.3006577623
O  O82  1  0.09130000  0.92270000  0.14570000  1.0 -0.3006577623
O  O83  1  0.07730000  0.90870000  0.64570000  1.0 -0.3006577623
O  O84  1  0.90870000  0.07730000  0.85430000  1.0 -0.3006577623
O  O85  1  0.90650000  0.06550000  0.28480000  1.0 -0.2599151974
O  O86  1  0.06550000  0.90650000  0.21520000  1.0 -0.2599151974
O  O87  1  0.09350000  0.93450000  0.71520000  1.0 -0.2599151974
O  O88  1  0.93450000  0.09350000  0.78480000  1.0 -0.2599151974
O  O89  1  0.47260000  0.32740000  0.57840000  1.0 -0.1304564223
O  O90  1  0.32740000  0.47260000  0.92160000  1.0 -0.1304564223
O  O91  1  0.52740000  0.67260000  0.42160000  1.0 -0.1304564223
O  O92  1  0.67260000  0.52740000  0.07840000  1.0 -0.1304564223
O  O93  1  0.19700000  0.06740000  0.59750000  1.0 -0.2875675988
O  O94  1  0.06740000  0.19700000  0.90250000  1.0 -0.2875675988
O  O95  1  0.80300000  0.93260000  0.40250000  1.0 -0.2875675988
O  O96  1  0.93260000  0.80300000  0.09750000  1.0 -0.2875675988
O  O97  1  0.39040000  0.22560000  0.65370000  1.0 -0.2875675988
O  O98  1  0.22560000  0.39040000  0.84630000  1.0 -0.2875675988
O  O99  1  0.60960000  0.77440000  0.34630000  1.0 -0.2875675988
O  O100  1  0.77440000  0.60960000  0.15370000  1.0 -0.2875675988
O  O101  1  0.10530000  0.80270000  0.63230000  1.0 -0.3006577623
O  O102  1  0.80270000  0.10530000  0.86770000  1.0 -0.3006577623
O  O103  1  0.89470000  0.19730000  0.36770000  1.0 -0.3006577623
O  O104  1  0.19730000  0.89470000  0.13230000  1.0 -0.3006577623
O  O105  1  0.24030000  0.83370000  0.62180000  1.0 -0.3087585998
O  O106  1  0.83370000  0.24030000  0.87820000  1.0 -0.3087585998
O  O107  1  0.75970000  0.16630000  0.37820000  1.0 -0.3087585998
O  O108  1  0.16630000  0.75970000  0.12180000  1.0 -0.3087585998
O  O109  1  0.40240000  0.07560000  0.63590000  1.0 -0.1070350996
O  O110  1  0.07560000  0.40240000  0.86410000  1.0 -0.1070350996
O  O111  1  0.59760000  0.92440000  0.36410000  1.0 -0.1070350996
O  O112  1  0.92440000  0.59760000  0.13590000  1.0 -0.1070350996
