# DDEC6 charges by PACMAN v1.1 (https://github.com/mtap-research/PACMAN-charge/)
data_IYIGEC_ASR_pacman
_symmetry_space_group_name_H-M   'P 1'
_cell_length_a   16.69030000
_cell_length_b   16.69030000
_cell_length_c   16.69030000
_cell_angle_alpha   92.33220000
_cell_angle_beta   92.33220000
_cell_angle_gamma   156.72400000
_symmetry_Int_Tables_number   1
_chemical_formula_structural   Ag2H22C11S2(N2O3)2
_chemical_formula_sum   'Ag8 H88 C44 S8 N16 O24'
_cell_volume   1799.47209137
_cell_formula_units_Z   4
loop_
 _symmetry_equiv_pos_site_id
 _symmetry_equiv_pos_as_xyz
  1  'x, y, z'
loop_
 _atom_site_type_symbol
 _atom_site_label
 _atom_site_symmetry_multiplicity
 _atom_site_fract_x
 _atom_site_fract_y
 _atom_site_fract_z
 _atom_site_occupancy
 _atom_site_charge
Ag  Ag1  1  0.70868000  0.06772000  0.63256000  1.0 0.4132401299
Ag  Ag2  1  0.32612000  0.45868000  0.14096000  1.0 0.4132401299
Ag  Ag3  1  0.31772000  0.18516000  0.85904000  1.0 0.4132401299
Ag  Ag4  1  0.81484000  0.67388000  0.13256000  1.0 0.4132401299
Ag  Ag5  1  0.93228000  0.56484000  0.64096000  1.0 0.4132401299
Ag  Ag6  1  0.54132000  0.68228000  0.86744000  1.0 0.4132401299
Ag  Ag7  1  0.92388000  0.29132000  0.35904000  1.0 0.4132401299
Ag  Ag8  1  0.43516000  0.07612000  0.36744000  1.0 0.4132401299
H  H1  1  0.75540000  0.24310000  0.85090000  1.0 0.1443791937
H  H2  1  0.15450000  0.50540000  0.01230000  1.0 0.1443791937
H  H3  1  0.49310000  0.14220000  0.98770000  1.0 0.1443791937
H  H4  1  0.85780000  0.84550000  0.35090000  1.0 0.1443791937
H  H5  1  0.75690000  0.60780000  0.51230000  1.0 0.1443791937
H  H6  1  0.49460000  0.50690000  0.64910000  1.0 0.1443791937
H  H7  1  0.09550000  0.24460000  0.48770000  1.0 0.1443791937
H  H8  1  0.39220000  0.90450000  0.14910000  1.0 0.1443791937
H  H9  1  0.96070000  0.38580000  0.87230000  1.0 0.1485754278
H  H10  1  0.33840000  0.71070000  0.07490000  1.0 0.1485754278
H  H11  1  0.63580000  0.26350000  0.92510000  1.0 0.1485754278
H  H12  1  0.73650000  0.66160000  0.37230000  1.0 0.1485754278
H  H13  1  0.61420000  0.48650000  0.57490000  1.0 0.1485754278
H  H14  1  0.28930000  0.36420000  0.62770000  1.0 0.1485754278
H  H15  1  0.91160000  0.03930000  0.42510000  1.0 0.1485754278
H  H16  1  0.51350000  0.08840000  0.12770000  1.0 0.1485754278
H  H17  1  0.81580000  0.17420000  0.87540000  1.0 0.1290207873
H  H18  1  0.19040000  0.56580000  0.14160000  1.0 0.1290207873
H  H19  1  0.42420000  0.04880000  0.85840000  1.0 0.1290207873
H  H20  1  0.95120000  0.80960000  0.37540000  1.0 0.1290207873
H  H21  1  0.82580000  0.70120000  0.64160000  1.0 0.1290207873
H  H22  1  0.43420000  0.57580000  0.62460000  1.0 0.1290207873
H  H23  1  0.05960000  0.18420000  0.35840000  1.0 0.1290207873
H  H24  1  0.29880000  0.94040000  0.12460000  1.0 0.1290207873
H  H25  1  0.61590000  0.03320000  0.83570000  1.0 0.1290207873
H  H26  1  0.03020000  0.36590000  0.08270000  1.0 0.1290207873
H  H27  1  0.28320000  0.94750000  0.91730000  1.0 0.1290207873
H  H28  1  0.05250000  0.96980000  0.33570000  1.0 0.1290207873
H  H29  1  0.96680000  0.80250000  0.58270000  1.0 0.1290207873
H  H30  1  0.63410000  0.71680000  0.66430000  1.0 0.1290207873
H  H31  1  0.21980000  0.38410000  0.41730000  1.0 0.1290207873
H  H32  1  0.19750000  0.78020000  0.16430000  1.0 0.1290207873
H  H33  1  0.97200000  0.22290000  0.78970000  1.0 0.1290207873
H  H34  1  0.43230000  0.72200000  0.24910000  1.0 0.1290207873
H  H35  1  0.47290000  0.18320000  0.75090000  1.0 0.1290207873
H  H36  1  0.81680000  0.56770000  0.28970000  1.0 0.1290207873
H  H37  1  0.77710000  0.56680000  0.74910000  1.0 0.1290207873
H  H38  1  0.27800000  0.52710000  0.71030000  1.0 0.1290207873
H  H39  1  0.81770000  0.02800000  0.25090000  1.0 0.1290207873
H  H40  1  0.43320000  0.18230000  0.21030000  1.0 0.1290207873
H  H41  1  0.82170000  0.05530000  0.84480000  1.0 0.1013955975
H  H42  1  0.22690000  0.57170000  0.26640000  1.0 0.1013955975
H  H43  1  0.30530000  0.96050000  0.73360000  1.0 0.1013955975
H  H44  1  0.03950000  0.77310000  0.34480000  1.0 0.1013955975
H  H45  1  0.94470000  0.78950000  0.76640000  1.0 0.1013955975
H  H46  1  0.42830000  0.69470000  0.65520000  1.0 0.1013955975
H  H47  1  0.02310000  0.17830000  0.23360000  1.0 0.1013955975
H  H48  1  0.21050000  0.97690000  0.15520000  1.0 0.1013955975
H  H49  1  0.47250000  0.77640000  0.82310000  1.0 0.1013955975
H  H50  1  0.89940000  0.22250000  0.19610000  1.0 0.1013955975
H  H51  1  0.02640000  0.70330000  0.80390000  1.0 0.1013955975
H  H52  1  0.29670000  0.10060000  0.32310000  1.0 0.1013955975
H  H53  1  0.22360000  0.04670000  0.69610000  1.0 0.1013955975
H  H54  1  0.77750000  0.97360000  0.67690000  1.0 0.1013955975
H  H55  1  0.35060000  0.52750000  0.30390000  1.0 0.1013955975
H  H56  1  0.95330000  0.64940000  0.17690000  1.0 0.1013955975
H  H57  1  0.38820000  0.75750000  0.75310000  1.0 0.1126795372
H  H58  1  0.88510000  0.13820000  0.13070000  1.0 0.1126795372
H  H59  1  0.00750000  0.75440000  0.86930000  1.0 0.1126795372
H  H60  1  0.24560000  0.11490000  0.25310000  1.0 0.1126795372
H  H61  1  0.24250000  0.99560000  0.63070000  1.0 0.1126795372
H  H62  1  0.86180000  0.99250000  0.74690000  1.0 0.1126795372
H  H63  1  0.36490000  0.61180000  0.36930000  1.0 0.1126795372
H  H64  1  0.00440000  0.63510000  0.24690000  1.0 0.1126795372
H  H65  1  0.38820000  0.91670000  0.64030000  1.0 0.1156220192
H  H66  1  0.99790000  0.13820000  0.97150000  1.0 0.1156220192
H  H67  1  0.16670000  0.02640000  0.02850000  1.0 0.1156220192
H  H68  1  0.97360000  0.00210000  0.14030000  1.0 0.1156220192
H  H69  1  0.08330000  0.72360000  0.47150000  1.0 0.1156220192
H  H70  1  0.86180000  0.83330000  0.85970000  1.0 0.1156220192
H  H71  1  0.25210000  0.61180000  0.52850000  1.0 0.1156220192
H  H72  1  0.27640000  0.74790000  0.35970000  1.0 0.1156220192
H  H73  1  0.25540000  0.71630000  0.63770000  1.0 0.1156220192
H  H74  1  0.86770000  0.00540000  0.03910000  1.0 0.1156220192
H  H75  1  0.96630000  0.82860000  0.96090000  1.0 0.1156220192
H  H76  1  0.17140000  0.13230000  0.13770000  1.0 0.1156220192
H  H77  1  0.28370000  0.92140000  0.53910000  1.0 0.1156220192
H  H78  1  0.99460000  0.03370000  0.86230000  1.0 0.1156220192
H  H79  1  0.38230000  0.74460000  0.46090000  1.0 0.1156220192
H  H80  1  0.07860000  0.61770000  0.36230000  1.0 0.1156220192
H  H81  1  0.58300000  0.11900000  0.54000000  1.0 0.1126795372
H  H82  1  0.29300000  0.33300000  0.96400000  1.0 0.1126795372
H  H83  1  0.36900000  0.32900000  0.03600000  1.0 0.1126795372
H  H84  1  0.67100000  0.70700000  0.04000000  1.0 0.1126795372
H  H85  1  0.88100000  0.42100000  0.46400000  1.0 0.1126795372
H  H86  1  0.66700000  0.63100000  0.96000000  1.0 0.1126795372
H  H87  1  0.95700000  0.41700000  0.53600000  1.0 0.1126795372
H  H88  1  0.57900000  0.04300000  0.46000000  1.0 0.1126795372
C  C1  1  0.84150000  0.28330000  0.82880000  1.0 -0.3092787314
C  C2  1  0.26270000  0.59150000  0.05820000  1.0 -0.3092787314
C  C3  1  0.53330000  0.20450000  0.94180000  1.0 -0.3092787314
C  C4  1  0.79550000  0.73730000  0.32880000  1.0 -0.3092787314
C  C5  1  0.71670000  0.54550000  0.55820000  1.0 -0.3092787314
C  C6  1  0.40850000  0.46670000  0.67120000  1.0 -0.3092787314
C  C7  1  0.98730000  0.15850000  0.44180000  1.0 -0.3092787314
C  C8  1  0.45450000  0.01270000  0.17120000  1.0 -0.3092787314
C  C9  1  0.74930000  0.13850000  0.82580000  1.0 -0.0747303713
C  C10  1  0.17350000  0.49930000  0.11080000  1.0 -0.0747303713
C  C11  1  0.38850000  0.06270000  0.88920000  1.0 -0.0747303713
C  C12  1  0.93730000  0.82650000  0.32580000  1.0 -0.0747303713
C  C13  1  0.86150000  0.68730000  0.61080000  1.0 -0.0747303713
C  C14  1  0.50070000  0.61150000  0.67420000  1.0 -0.0747303713
C  C15  1  0.07650000  0.25070000  0.38920000  1.0 -0.0747303713
C  C16  1  0.31270000  0.92350000  0.17420000  1.0 -0.0747303713
C  C17  1  0.82990000  0.07750000  0.78980000  1.0 -0.120145865
C  C18  1  0.29010000  0.57990000  0.25240000  1.0 -0.120145865
C  C19  1  0.32750000  0.03770000  0.74760000  1.0 -0.120145865
C  C20  1  0.96230000  0.70990000  0.28980000  1.0 -0.120145865
C  C21  1  0.92250000  0.71230000  0.75240000  1.0 -0.120145865
C  C22  1  0.42010000  0.67250000  0.71020000  1.0 -0.120145865
C  C23  1  0.95990000  0.17010000  0.24760000  1.0 -0.120145865
C  C24  1  0.28770000  0.04010000  0.21020000  1.0 -0.120145865
C  C25  1  0.48240000  0.79990000  0.76830000  1.0 -0.1434895817
C  C26  1  0.96410000  0.23240000  0.18250000  1.0 -0.1434895817
C  C27  1  0.04990000  0.78160000  0.81750000  1.0 -0.1434895817
C  C28  1  0.21840000  0.03590000  0.26830000  1.0 -0.1434895817
C  C29  1  0.20010000  0.96840000  0.68250000  1.0 -0.1434895817
C  C30  1  0.76760000  0.95010000  0.73170000  1.0 -0.1434895817
C  C31  1  0.28590000  0.51760000  0.31750000  1.0 -0.1434895817
C  C32  1  0.03160000  0.71410000  0.23170000  1.0 -0.1434895817
C  C33  1  0.30360000  0.79970000  0.60410000  1.0 -0.0435189541
C  C34  1  0.94950000  0.05360000  0.00390000  1.0 -0.0435189541
C  C35  1  0.04970000  0.94560000  0.99610000  1.0 -0.0435189541
C  C36  1  0.05440000  0.05050000  0.10410000  1.0 -0.0435189541
C  C37  1  0.20030000  0.80440000  0.50390000  1.0 -0.0435189541
C  C38  1  0.94640000  0.95030000  0.89590000  1.0 -0.0435189541
C  C39  1  0.30050000  0.69640000  0.49610000  1.0 -0.0435189541
C  C40  1  0.19560000  0.69950000  0.39590000  1.0 -0.0435189541
C  C41  1  0.50260000  0.00260000  0.50000000  1.0 -0.0555260751
C  C42  1  0.25260000  0.25260000  0.00000000  1.0 -0.0555260751
C  C43  1  0.74740000  0.74740000  0.00000000  1.0 -0.0555260751
C  C44  1  0.99740000  0.49740000  0.50000000  1.0 -0.0555260751
S  S1  1  0.94131000  0.42859000  0.75610000  1.0 0.932606226
S  S2  1  0.43521000  0.69131000  0.01272000  1.0 0.932606226
S  S3  1  0.67859000  0.42249000  0.98728000  1.0 0.932606226
S  S4  1  0.57751000  0.56479000  0.25610000  1.0 0.932606226
S  S5  1  0.57141000  0.32751000  0.51272000  1.0 0.932606226
S  S6  1  0.30869000  0.32141000  0.74390000  1.0 0.932606226
S  S7  1  0.81479000  0.05869000  0.48728000  1.0 0.9539770883
S  S8  1  0.67249000  0.18521000  0.24390000  1.0 0.932606226
N  N1  1  0.69700000  0.02270000  0.76710000  1.0 -0.0877685772
N  N2  1  0.17990000  0.44700000  0.17430000  1.0 -0.0877685772
N  N3  1  0.27270000  0.00560000  0.82570000  1.0 -0.0877685772
N  N4  1  0.99440000  0.82010000  0.26710000  1.0 -0.0877685772
N  N5  1  0.97730000  0.74440000  0.67430000  1.0 -0.0877685772
N  N6  1  0.55300000  0.72730000  0.73290000  1.0 -0.0877685772
N  N7  1  0.07010000  0.30300000  0.32570000  1.0 -0.0877685772
N  N8  1  0.25560000  0.92990000  0.23290000  1.0 -0.0877685772
N  N9  1  0.43150000  0.87610000  0.55100000  1.0 -0.1254873957
N  N10  1  0.13050000  0.18150000  0.05540000  1.0 -0.1254873957
N  N11  1  0.12610000  0.07510000  0.94460000  1.0 -0.1254873957
N  N12  1  0.92490000  0.86950000  0.05100000  1.0 -0.1254873957
N  N13  1  0.12390000  0.67490000  0.55540000  1.0 -0.1254873957
N  N14  1  0.81850000  0.87390000  0.94900000  1.0 -0.1254873957
N  N15  1  0.11950000  0.56850000  0.44460000  1.0 -0.1254873957
N  N16  1  0.32510000  0.88050000  0.44900000  1.0 -0.1254873957
O  O1  1  0.97790000  0.40520000  0.69110000  1.0 -0.5802664469
O  O2  1  0.53680000  0.72790000  0.07270000  1.0 -0.5802664469
O  O3  1  0.65520000  0.46410000  0.92730000  1.0 -0.5802664469
O  O4  1  0.53590000  0.46320000  0.19110000  1.0 -0.5802664469
O  O5  1  0.59480000  0.28590000  0.57270000  1.0 -0.5802664469
O  O6  1  0.27210000  0.34480000  0.80890000  1.0 -0.5802664469
O  O7  1  0.71320000  0.02210000  0.42730000  1.0 -0.5802664469
O  O8  1  0.71410000  0.28680000  0.30890000  1.0 -0.5802664469
O  O9  1  0.13240000  0.64040000  0.79500000  1.0 -0.5952135969
O  O10  1  0.58740000  0.88240000  0.99200000  1.0 -0.5952135969
O  O11  1  0.89040000  0.59540000  0.00800000  1.0 -0.5952135969
O  O12  1  0.40460000  0.41260000  0.29500000  1.0 -0.5952135969
O  O13  1  0.35960000  0.15460000  0.49200000  1.0 -0.5952135969
O  O14  1  0.11760000  0.10960000  0.70500000  1.0 -0.5952135969
O  O15  1  0.66260000  0.86760000  0.50800000  1.0 -0.5952135969
O  O16  1  0.84540000  0.33740000  0.20500000  1.0 -0.5952135969
O  O17  1  0.78460000  0.34280000  0.72900000  1.0 -0.5802664469
O  O18  1  0.30560000  0.53460000  0.94180000  1.0 -0.5802664469
O  O19  1  0.59280000  0.36380000  0.05820000  1.0 -0.5802664469
O  O20  1  0.63620000  0.69440000  0.22900000  1.0 -0.5802664469
O  O21  1  0.65720000  0.38620000  0.44180000  1.0 -0.5802664469
O  O22  1  0.46540000  0.40720000  0.77100000  1.0 -0.5802664469
O  O23  1  0.94440000  0.21540000  0.55820000  1.0 -0.5802664469
O  O24  1  0.61380000  0.05560000  0.27100000  1.0 -0.5802664469
