# DDEC6 charges by PACMAN v1.1 (https://github.com/mtap-research/PACMAN-charge/)
data_IYOCUW_ASR_pacman
_symmetry_space_group_name_H-M   'P 1'
_cell_length_a   31.41200000
_cell_length_b   14.71220000
_cell_length_c   34.72000000
_cell_angle_alpha   90.00000000
_cell_angle_beta   103.29300000
_cell_angle_gamma   90.00000000
_symmetry_Int_Tables_number   1
_chemical_formula_structural   Zn3H24C36Br7N12
_chemical_formula_sum   'Zn24 H192 C288 Br56 N96'
_cell_volume   15615.58061418
_cell_formula_units_Z   8
loop_
 _symmetry_equiv_pos_site_id
 _symmetry_equiv_pos_as_xyz
  1  'x, y, z'
loop_
 _atom_site_type_symbol
 _atom_site_label
 _atom_site_symmetry_multiplicity
 _atom_site_fract_x
 _atom_site_fract_y
 _atom_site_fract_z
 _atom_site_occupancy
 _atom_site_charge
Zn  Zn1  1  0.59841000  0.84821000  0.82719000  1.0 0.5469750816
Zn  Zn2  1  0.09841000  0.65179000  0.82719000  1.0 0.5469750816
Zn  Zn3  1  0.93818000  0.82805000  0.13169000  1.0 0.5436785175
Zn  Zn4  1  0.43818000  0.67195000  0.13169000  1.0 0.5436785175
Zn  Zn5  1  0.08919000  0.11126000  0.34471000  1.0 0.5469750816
Zn  Zn6  1  0.58919000  0.38874000  0.34471000  1.0 0.5469750816
Zn  Zn7  1  0.28234000  0.88616000  0.44027000  1.0 0.3022575035
Zn  Zn8  1  0.78234000  0.61384000  0.44027000  1.0 0.3022575035
Zn  Zn9  1  0.43989000  0.12394000  0.63368000  1.0 0.5469750816
Zn  Zn10  1  0.93989000  0.37606000  0.63368000  1.0 0.5469750816
Zn  Zn11  1  0.26881000  0.42282000  0.92442000  1.0 0.5132997288
Zn  Zn12  1  0.76881000  0.07718000  0.92442000  1.0 0.5132997288
Zn  Zn13  1  0.90159000  0.34821000  0.17281000  1.0 0.5469750816
Zn  Zn14  1  0.40159000  0.15179000  0.17281000  1.0 0.5469750816
Zn  Zn15  1  0.56182000  0.32805000  0.86831000  1.0 0.5436785175
Zn  Zn16  1  0.06182000  0.17195000  0.86831000  1.0 0.5436785175
Zn  Zn17  1  0.41081000  0.61126000  0.65529000  1.0 0.5469750816
Zn  Zn18  1  0.91081000  0.88874000  0.65529000  1.0 0.5469750816
Zn  Zn19  1  0.21766000  0.38616000  0.55973000  1.0 0.3022575035
Zn  Zn20  1  0.71766000  0.11384000  0.55973000  1.0 0.3022575035
Zn  Zn21  1  0.06011000  0.62394000  0.36632000  1.0 0.5469750816
Zn  Zn22  1  0.56011000  0.87606000  0.36632000  1.0 0.5469750816
Zn  Zn23  1  0.23119000  0.92282000  0.07558000  1.0 0.5132997288
Zn  Zn24  1  0.73119000  0.57718000  0.07558000  1.0 0.5132997288
H  H1  1  0.63310000  0.66650000  0.84190000  1.0 0.101823987
H  H2  1  0.13310000  0.83350000  0.84190000  1.0 0.101823987
H  H3  1  0.68390000  0.57980000  0.88510000  1.0 0.1334552736
H  H4  1  0.18390000  0.92020000  0.88510000  1.0 0.1334552736
H  H5  1  0.72690000  0.81490000  0.94240000  1.0 0.1334552736
H  H6  1  0.22690000  0.68510000  0.94240000  1.0 0.1334552736
H  H7  1  0.67090000  0.88600000  0.89930000  1.0 0.1093033955
H  H8  1  0.17090000  0.61400000  0.89930000  1.0 0.1093033955
H  H9  1  0.71590000  0.39360000  0.92340000  1.0 0.1401219878
H  H10  1  0.21590000  0.10640000  0.92340000  1.0 0.1401219878
H  H11  1  0.71360000  0.24390000  0.91100000  1.0 0.101823987
H  H12  1  0.21360000  0.25610000  0.91100000  1.0 0.101823987
H  H13  1  0.83060000  0.21030000  0.97830000  1.0 0.1093033955
H  H14  1  0.33060000  0.28970000  0.97830000  1.0 0.1093033955
H  H15  1  0.83750000  0.36440000  0.99260000  1.0 0.1401219878
H  H16  1  0.33750000  0.13560000  0.99260000  1.0 0.1401219878
H  H17  1  0.86750000  0.56030000  0.05490000  1.0 0.1401219878
H  H18  1  0.36750000  0.93970000  0.05490000  1.0 0.1401219878
H  H19  1  0.91290000  0.63840000  0.10590000  1.0 0.1093033955
H  H20  1  0.41290000  0.86160000  0.10590000  1.0 0.1093033955
H  H21  1  0.87360000  0.87320000  0.05620000  1.0 0.118836131
H  H22  1  0.37360000  0.62680000  0.05620000  1.0 0.118836131
H  H23  1  0.82370000  0.80120000  0.00650000  1.0 0.1334552736
H  H24  1  0.32370000  0.69880000  0.00650000  1.0 0.1334552736
H  H25  1  0.88320000  0.79250000  0.18960000  1.0 0.1093033955
H  H26  1  0.38320000  0.70750000  0.18960000  1.0 0.1093033955
H  H27  1  0.87820000  0.69850000  0.23950000  1.0 0.1401219878
H  H28  1  0.37820000  0.80150000  0.23950000  1.0 0.1401219878
H  H29  1  0.99370000  0.58460000  0.23260000  1.0 0.1334552736
H  H30  1  0.49370000  0.91540000  0.23260000  1.0 0.1334552736
H  H31  1  0.99380000  0.68190000  0.17950000  1.0 0.1093033955
H  H32  1  0.49380000  0.81810000  0.17950000  1.0 0.1093033955
H  H33  1  0.91890000  0.51340000  0.40270000  1.0 0.1401219878
H  H34  1  0.41890000  0.98660000  0.40270000  1.0 0.1401219878
H  H35  1  0.87290000  0.55100000  0.44440000  1.0 0.0794798567
H  H36  1  0.37290000  0.94900000  0.44440000  1.0 0.0794798567
H  H37  1  0.77580000  0.60150000  0.35380000  1.0 0.0717017344
H  H38  1  0.27580000  0.89850000  0.35380000  1.0 0.0717017344
H  H39  1  0.82010000  0.57100000  0.31060000  1.0 0.1401219878
H  H40  1  0.32010000  0.92900000  0.31060000  1.0 0.1401219878
H  H41  1  0.00660000  0.36430000  0.26600000  1.0 0.1401219878
H  H42  1  0.50660000  0.13570000  0.26600000  1.0 0.1401219878
H  H43  1  0.05040000  0.23530000  0.27790000  1.0 0.101823987
H  H44  1  0.55040000  0.26470000  0.27790000  1.0 0.101823987
H  H45  1  0.03050000  0.21040000  0.38470000  1.0 0.1093033955
H  H46  1  0.53050000  0.28960000  0.38470000  1.0 0.1093033955
H  H47  1  0.98070000  0.33600000  0.37350000  1.0 0.1334552736
H  H48  1  0.48070000  0.16400000  0.37350000  1.0 0.1334552736
H  H49  1  0.12790000  0.30130000  0.35000000  1.0 0.1093033955
H  H50  1  0.62790000  0.19870000  0.35000000  1.0 0.1093033955
H  H51  1  0.18420000  0.38440000  0.38830000  1.0 0.1334552736
H  H52  1  0.68420000  0.11560000  0.38830000  1.0 0.1334552736
H  H53  1  0.22850000  0.15390000  0.44650000  1.0 0.118836131
H  H54  1  0.72850000  0.34610000  0.44650000  1.0 0.118836131
H  H55  1  0.16970000  0.08050000  0.40920000  1.0 0.0794798567
H  H56  1  0.66970000  0.41950000  0.40920000  1.0 0.0794798567
H  H57  1  0.24560000  0.56240000  0.40410000  1.0 0.1401219878
H  H58  1  0.74560000  0.93760000  0.40410000  1.0 0.1401219878
H  H59  1  0.24790000  0.71850000  0.39610000  1.0 0.0794798567
H  H60  1  0.74790000  0.78150000  0.39610000  1.0 0.0794798567
H  H61  1  0.33240000  0.74270000  0.49740000  1.0 0.0916963441
H  H62  1  0.83240000  0.75730000  0.49740000  1.0 0.0916963441
H  H63  1  0.33580000  0.58960000  0.50550000  1.0 0.1401219878
H  H64  1  0.83580000  0.91040000  0.50550000  1.0 0.1401219878
H  H65  1  0.30480000  0.16500000  0.52390000  1.0 0.1093033955
H  H66  1  0.80480000  0.33500000  0.52390000  1.0 0.1093033955
H  H67  1  0.38330000  0.38450000  0.54580000  1.0 0.1334552736
H  H68  1  0.88330000  0.11550000  0.54580000  1.0 0.1334552736
H  H69  1  0.43100000  0.30460000  0.59300000  1.0 0.1093033955
H  H70  1  0.93100000  0.19540000  0.59300000  1.0 0.1093033955
H  H71  1  0.35330000  0.09330000  0.57480000  1.0 0.0916963441
H  H72  1  0.85330000  0.40670000  0.57480000  1.0 0.0916963441
H  H73  1  0.48640000  0.28670000  0.66960000  1.0 0.1093033955
H  H74  1  0.98640000  0.21330000  0.66960000  1.0 0.1093033955
H  H75  1  0.49230000  0.38460000  0.72350000  1.0 0.1401219878
H  H76  1  0.99230000  0.11540000  0.72350000  1.0 0.1401219878
H  H77  1  0.40210000  0.23240000  0.75970000  1.0 0.1334552736
H  H78  1  0.90210000  0.26760000  0.75970000  1.0 0.1334552736
H  H79  1  0.40210000  0.12820000  0.70690000  1.0 0.101823987
H  H80  1  0.90210000  0.37180000  0.70690000  1.0 0.101823987
H  H81  1  0.53240000  0.56540000  0.76950000  1.0 0.1401219878
H  H82  1  0.03240000  0.93460000  0.76950000  1.0 0.1401219878
H  H83  1  0.56220000  0.70250000  0.76980000  1.0 0.118836131
H  H84  1  0.06220000  0.79750000  0.76980000  1.0 0.118836131
H  H85  1  0.52800000  0.77660000  0.86480000  1.0 0.1093033955
H  H86  1  0.02800000  0.72340000  0.86480000  1.0 0.1093033955
H  H87  1  0.48090000  0.65730000  0.85920000  1.0 0.1401219878
H  H88  1  0.98090000  0.84270000  0.85920000  1.0 0.1401219878
H  H89  1  0.41420000  0.49500000  0.89710000  1.0 0.1401219878
H  H90  1  0.91420000  0.00500000  0.89710000  1.0 0.1401219878
H  H91  1  0.36040000  0.49310000  0.93090000  1.0 0.1093033955
H  H92  1  0.86040000  0.00690000  0.93090000  1.0 0.1093033955
H  H93  1  0.28080000  0.35810000  0.84670000  1.0 0.1093033955
H  H94  1  0.78080000  0.14190000  0.84670000  1.0 0.1093033955
H  H95  1  0.33270000  0.37100000  0.80810000  1.0 0.1334552736
H  H96  1  0.83270000  0.12900000  0.80810000  1.0 0.1334552736
H  H97  1  0.86690000  0.16650000  0.15810000  1.0 0.101823987
H  H98  1  0.36690000  0.33350000  0.15810000  1.0 0.101823987
H  H99  1  0.81610000  0.07980000  0.11490000  1.0 0.1334552736
H  H100  1  0.31610000  0.42020000  0.11490000  1.0 0.1334552736
H  H101  1  0.77310000  0.31490000  0.05760000  1.0 0.1334552736
H  H102  1  0.27310000  0.18510000  0.05760000  1.0 0.1334552736
H  H103  1  0.82910000  0.38600000  0.10070000  1.0 0.1093033955
H  H104  1  0.32910000  0.11400000  0.10070000  1.0 0.1093033955
H  H105  1  0.78410000  0.89360000  0.07660000  1.0 0.1401219878
H  H106  1  0.28410000  0.60640000  0.07660000  1.0 0.1401219878
H  H107  1  0.78640000  0.74390000  0.08900000  1.0 0.101823987
H  H108  1  0.28640000  0.75610000  0.08900000  1.0 0.101823987
H  H109  1  0.66940000  0.71030000  0.02170000  1.0 0.1093033955
H  H110  1  0.16940000  0.78970000  0.02170000  1.0 0.1093033955
H  H111  1  0.66250000  0.86440000  0.00740000  1.0 0.1401219878
H  H112  1  0.16250000  0.63560000  0.00740000  1.0 0.1401219878
H  H113  1  0.63250000  0.06030000  0.94510000  1.0 0.1401219878
H  H114  1  0.13250000  0.43970000  0.94510000  1.0 0.1401219878
H  H115  1  0.58710000  0.13840000  0.89410000  1.0 0.1093033955
H  H116  1  0.08710000  0.36160000  0.89410000  1.0 0.1093033955
H  H117  1  0.62640000  0.37320000  0.94380000  1.0 0.118836131
H  H118  1  0.12640000  0.12680000  0.94380000  1.0 0.118836131
H  H119  1  0.67630000  0.30120000  0.99350000  1.0 0.1334552736
H  H120  1  0.17630000  0.19880000  0.99350000  1.0 0.1334552736
H  H121  1  0.61680000  0.29250000  0.81040000  1.0 0.1093033955
H  H122  1  0.11680000  0.20750000  0.81040000  1.0 0.1093033955
H  H123  1  0.62180000  0.19850000  0.76050000  1.0 0.1401219878
H  H124  1  0.12180000  0.30150000  0.76050000  1.0 0.1401219878
H  H125  1  0.50630000  0.08460000  0.76740000  1.0 0.1334552736
H  H126  1  0.00630000  0.41540000  0.76740000  1.0 0.1334552736
H  H127  1  0.50620000  0.18190000  0.82050000  1.0 0.1093033955
H  H128  1  0.00620000  0.31810000  0.82050000  1.0 0.1093033955
H  H129  1  0.58110000  0.01340000  0.59730000  1.0 0.1401219878
H  H130  1  0.08110000  0.48660000  0.59730000  1.0 0.1401219878
H  H131  1  0.62710000  0.05100000  0.55560000  1.0 0.0794798567
H  H132  1  0.12710000  0.44900000  0.55560000  1.0 0.0794798567
H  H133  1  0.72420000  0.10150000  0.64620000  1.0 0.0717017344
H  H134  1  0.22420000  0.39850000  0.64620000  1.0 0.0717017344
H  H135  1  0.67990000  0.07100000  0.68940000  1.0 0.1401219878
H  H136  1  0.17990000  0.42900000  0.68940000  1.0 0.1401219878
H  H137  1  0.49340000  0.86430000  0.73400000  1.0 0.1401219878
H  H138  1  0.99340000  0.63570000  0.73400000  1.0 0.1401219878
H  H139  1  0.44960000  0.73530000  0.72210000  1.0 0.101823987
H  H140  1  0.94960000  0.76470000  0.72210000  1.0 0.101823987
H  H141  1  0.46950000  0.71040000  0.61530000  1.0 0.1093033955
H  H142  1  0.96950000  0.78960000  0.61530000  1.0 0.1093033955
H  H143  1  0.51930000  0.83600000  0.62650000  1.0 0.1334552736
H  H144  1  0.01930000  0.66400000  0.62650000  1.0 0.1334552736
H  H145  1  0.37210000  0.80130000  0.65000000  1.0 0.1093033955
H  H146  1  0.87210000  0.69870000  0.65000000  1.0 0.1093033955
H  H147  1  0.31580000  0.88440000  0.61170000  1.0 0.1334552736
H  H148  1  0.81580000  0.61560000  0.61170000  1.0 0.1334552736
H  H149  1  0.27150000  0.65390000  0.55350000  1.0 0.118836131
H  H150  1  0.77150000  0.84610000  0.55350000  1.0 0.118836131
H  H151  1  0.33030000  0.58050000  0.59080000  1.0 0.0794798567
H  H152  1  0.83030000  0.91950000  0.59080000  1.0 0.0794798567
H  H153  1  0.25440000  0.06240000  0.59590000  1.0 0.1401219878
H  H154  1  0.75440000  0.43760000  0.59590000  1.0 0.1401219878
H  H155  1  0.25210000  0.21850000  0.60390000  1.0 0.0794798567
H  H156  1  0.75210000  0.28150000  0.60390000  1.0 0.0794798567
H  H157  1  0.16760000  0.24270000  0.50260000  1.0 0.0916963441
H  H158  1  0.66760000  0.25730000  0.50260000  1.0 0.0916963441
H  H159  1  0.16420000  0.08960000  0.49450000  1.0 0.1401219878
H  H160  1  0.66420000  0.41040000  0.49450000  1.0 0.1401219878
H  H161  1  0.19520000  0.66500000  0.47610000  1.0 0.1093033955
H  H162  1  0.69520000  0.83500000  0.47610000  1.0 0.1093033955
H  H163  1  0.11670000  0.88450000  0.45420000  1.0 0.1334552736
H  H164  1  0.61670000  0.61550000  0.45420000  1.0 0.1334552736
H  H165  1  0.06900000  0.80460000  0.40700000  1.0 0.1093033955
H  H166  1  0.56900000  0.69540000  0.40700000  1.0 0.1093033955
H  H167  1  0.14670000  0.59330000  0.42520000  1.0 0.0916963441
H  H168  1  0.64670000  0.90670000  0.42520000  1.0 0.0916963441
H  H169  1  0.01360000  0.78670000  0.33040000  1.0 0.1093033955
H  H170  1  0.51360000  0.71330000  0.33040000  1.0 0.1093033955
H  H171  1  0.00770000  0.88460000  0.27650000  1.0 0.1401219878
H  H172  1  0.50770000  0.61540000  0.27650000  1.0 0.1401219878
H  H173  1  0.09790000  0.73240000  0.24030000  1.0 0.1334552736
H  H174  1  0.59790000  0.76760000  0.24030000  1.0 0.1334552736
H  H175  1  0.09790000  0.62820000  0.29310000  1.0 0.101823987
H  H176  1  0.59790000  0.87180000  0.29310000  1.0 0.101823987
H  H177  1  0.96760000  0.06540000  0.23050000  1.0 0.1401219878
H  H178  1  0.46760000  0.43460000  0.23050000  1.0 0.1401219878
H  H179  1  0.93780000  0.20250000  0.23020000  1.0 0.118836131
H  H180  1  0.43780000  0.29750000  0.23020000  1.0 0.118836131
H  H181  1  0.97200000  0.27660000  0.13520000  1.0 0.1093033955
H  H182  1  0.47200000  0.22340000  0.13520000  1.0 0.1093033955
H  H183  1  0.01910000  0.15730000  0.14080000  1.0 0.1401219878
H  H184  1  0.51910000  0.34270000  0.14080000  1.0 0.1401219878
H  H185  1  0.08580000  0.99500000  0.10290000  1.0 0.1401219878
H  H186  1  0.58580000  0.50500000  0.10290000  1.0 0.1401219878
H  H187  1  0.13960000  0.99310000  0.06910000  1.0 0.1093033955
H  H188  1  0.63960000  0.50690000  0.06910000  1.0 0.1093033955
H  H189  1  0.21920000  0.85810000  0.15330000  1.0 0.1093033955
H  H190  1  0.71920000  0.64190000  0.15330000  1.0 0.1093033955
H  H191  1  0.16730000  0.87100000  0.19190000  1.0 0.1334552736
H  H192  1  0.66730000  0.62900000  0.19190000  1.0 0.1334552736
C  C1  1  0.65170000  0.69560000  0.86300000  1.0 0.0717017344
C  C2  1  0.15170000  0.80440000  0.86300000  1.0 0.0717017344
C  C3  1  0.68280000  0.64240000  0.88820000  1.0 -0.1497858796
C  C4  1  0.18280000  0.85760000  0.88820000  1.0 -0.1497858796
C  C5  1  0.71220000  0.68710000  0.91820000  1.0 0.0519857735
C  C6  1  0.21220000  0.81290000  0.91820000  1.0 0.0519857735
C  C7  1  0.70800000  0.78240000  0.92270000  1.0 -0.176027541
C  C8  1  0.20800000  0.71760000  0.92270000  1.0 -0.176027541
C  C9  1  0.67430000  0.82390000  0.89610000  1.0 0.0916963441
C  C10  1  0.17430000  0.67610000  0.89610000  1.0 0.0916963441
C  C11  1  0.74700000  0.63350000  0.94340000  1.0 0.3671432266
C  C12  1  0.24700000  0.86650000  0.94340000  1.0 0.3671432266
C  C13  1  0.77840000  0.49900000  0.96150000  1.0 0.3601404085
C  C14  1  0.27840000  0.00100000  0.96150000  1.0 0.3601404085
C  C15  1  0.80850000  0.62550000  0.99390000  1.0 0.3761338869
C  C16  1  0.30850000  0.87450000  0.99390000  1.0 0.3761338869
C  C17  1  0.77610000  0.39920000  0.95690000  1.0 0.0604141566
C  C18  1  0.27610000  0.10080000  0.95690000  1.0 0.0604141566
C  C19  1  0.74020000  0.35830000  0.93430000  1.0 -0.1591037237
C  C20  1  0.24020000  0.14170000  0.93430000  1.0 -0.1591037237
C  C21  1  0.73890000  0.26820000  0.92720000  1.0 0.0916963441
C  C22  1  0.23890000  0.23180000  0.92720000  1.0 0.0916963441
C  C23  1  0.80800000  0.24940000  0.96690000  1.0 0.0519857735
C  C24  1  0.30800000  0.25060000  0.96690000  1.0 0.0519857735
C  C25  1  0.81250000  0.34110000  0.97560000  1.0 -0.1591037237
C  C26  1  0.31250000  0.15890000  0.97560000  1.0 -0.1591037237
C  C27  1  0.84080000  0.67020000  0.02550000  1.0 0.0400454633
C  C28  1  0.34080000  0.82980000  0.02550000  1.0 0.0400454633
C  C29  1  0.86760000  0.62350000  0.05500000  1.0 -0.1302580103
C  C30  1  0.36760000  0.87650000  0.05500000  1.0 -0.1302580103
C  C31  1  0.89520000  0.67080000  0.08530000  1.0 0.101823987
C  C32  1  0.39520000  0.82920000  0.08530000  1.0 0.101823987
C  C33  1  0.87150000  0.81020000  0.05610000  1.0 0.0717017344
C  C34  1  0.37150000  0.68980000  0.05610000  1.0 0.0717017344
C  C35  1  0.84220000  0.76750000  0.02610000  1.0 -0.1591037237
C  C36  1  0.34220000  0.73250000  0.02610000  1.0 -0.1591037237
C  C37  1  0.90480000  0.74890000  0.19770000  1.0 0.0916963441
C  C38  1  0.40480000  0.75110000  0.19770000  1.0 0.0916963441
C  C39  1  0.90150000  0.69260000  0.22730000  1.0 -0.1591037237
C  C40  1  0.40150000  0.80740000  0.22730000  1.0 -0.1591037237
C  C41  1  0.93240000  0.62660000  0.23950000  1.0 0.0794798567
C  C42  1  0.43240000  0.87340000  0.23950000  1.0 0.0794798567
C  C43  1  0.97050000  0.62400000  0.22300000  1.0 -0.1497858796
C  C44  1  0.47050000  0.87600000  0.22300000  1.0 -0.1497858796
C  C45  1  0.97060000  0.68360000  0.19210000  1.0 0.0604141566
C  C46  1  0.47060000  0.81640000  0.19210000  1.0 0.0604141566
C  C47  1  0.93330000  0.56310000  0.27410000  1.0 0.3761338869
C  C48  1  0.43330000  0.93690000  0.27410000  1.0 0.3761338869
C  C49  1  0.95990000  0.44090000  0.31110000  1.0 0.3601404085
C  C50  1  0.45990000  0.05910000  0.31110000  1.0 0.3601404085
C  C51  1  0.90490000  0.52430000  0.32500000  1.0 0.3761338869
C  C52  1  0.40490000  0.97570000  0.32500000  1.0 0.3761338869
C  C53  1  0.87430000  0.53930000  0.35130000  1.0 0.0717017344
C  C54  1  0.37430000  0.96070000  0.35130000  1.0 0.0717017344
C  C55  1  0.89030000  0.53220000  0.39220000  1.0 -0.1377200493
C  C56  1  0.39030000  0.96780000  0.39220000  1.0 -0.1377200493
C  C57  1  0.86240000  0.55370000  0.41710000  1.0 0.0794798567
C  C58  1  0.36240000  0.94630000  0.41710000  1.0 0.0794798567
C  C59  1  0.80480000  0.58450000  0.36340000  1.0 0.0604141566
C  C60  1  0.30480000  0.91550000  0.36340000  1.0 0.0604141566
C  C61  1  0.83140000  0.56570000  0.33770000  1.0 -0.1497858796
C  C62  1  0.33140000  0.93430000  0.33770000  1.0 -0.1497858796
C  C63  1  0.98800000  0.36230000  0.31760000  1.0 0.0519857735
C  C64  1  0.48800000  0.13770000  0.31760000  1.0 0.0519857735
C  C65  1  0.00970000  0.33310000  0.28980000  1.0 -0.1497858796
C  C66  1  0.50970000  0.16690000  0.28980000  1.0 -0.1497858796
C  C67  1  0.03680000  0.25560000  0.29740000  1.0 0.0916963441
C  C68  1  0.53680000  0.24440000  0.29740000  1.0 0.0916963441
C  C69  1  0.02440000  0.24010000  0.36040000  1.0 0.0717017344
C  C70  1  0.52440000  0.25990000  0.36040000  1.0 0.0717017344
C  C71  1  0.99480000  0.31720000  0.35400000  1.0 -0.1302580103
C  C72  1  0.49480000  0.18280000  0.35400000  1.0 -0.1302580103
C  C73  1  0.14790000  0.27190000  0.37010000  1.0 0.0916963441
C  C74  1  0.64790000  0.22810000  0.37010000  1.0 0.0916963441
C  C75  1  0.18230000  0.32220000  0.39240000  1.0 -0.1497858796
C  C76  1  0.68230000  0.17780000  0.39240000  1.0 -0.1497858796
C  C77  1  0.21410000  0.27810000  0.42130000  1.0 0.0400454633
C  C78  1  0.71410000  0.22190000  0.42130000  1.0 0.0400454633
C  C79  1  0.20840000  0.18560000  0.42730000  1.0 -0.1691599329
C  C80  1  0.70840000  0.31440000  0.42730000  1.0 -0.1691599329
C  C81  1  0.17290000  0.14220000  0.40470000  1.0 0.0519857735
C  C82  1  0.67290000  0.35780000  0.40470000  1.0 0.0519857735
C  C83  1  0.25030000  0.32690000  0.44540000  1.0 0.3486936419
C  C84  1  0.75030000  0.17310000  0.44540000  1.0 0.3486936419
C  C85  1  0.28720000  0.45920000  0.46130000  1.0 0.3486936419
C  C86  1  0.78720000  0.04080000  0.46130000  1.0 0.3486936419
C  C87  1  0.30930000  0.33260000  0.49810000  1.0 0.3375108196
C  C88  1  0.80930000  0.16740000  0.49810000  1.0 0.3375108196
C  C89  1  0.29110000  0.55680000  0.45560000  1.0 0.0519857735
C  C90  1  0.79110000  0.94320000  0.45560000  1.0 0.0519857735
C  C91  1  0.26410000  0.59770000  0.42310000  1.0 -0.1497858796
C  C92  1  0.76410000  0.90230000  0.42310000  1.0 -0.1497858796
C  C93  1  0.26460000  0.69240000  0.41900000  1.0 0.0794798567
C  C94  1  0.76460000  0.80760000  0.41900000  1.0 0.0794798567
C  C95  1  0.31490000  0.70590000  0.47840000  1.0 0.0400454633
C  C96  1  0.81490000  0.79410000  0.47840000  1.0 0.0400454633
C  C97  1  0.31690000  0.61420000  0.48330000  1.0 -0.1497858796
C  C98  1  0.81690000  0.88580000  0.48330000  1.0 -0.1497858796
C  C99  1  0.32970000  0.19480000  0.53790000  1.0 -0.1691599329
C  C100  1  0.82970000  0.30520000  0.53790000  1.0 -0.1691599329
C  C101  1  0.33920000  0.28490000  0.52880000  1.0 0.0321637649
C  C102  1  0.83920000  0.21510000  0.52880000  1.0 0.0321637649
C  C103  1  0.37690000  0.32460000  0.55080000  1.0 -0.1691599329
C  C104  1  0.87690000  0.17540000  0.55080000  1.0 -0.1691599329
C  C105  1  0.40500000  0.27700000  0.58000000  1.0 0.1093033955
C  C106  1  0.90500000  0.22300000  0.58000000  1.0 0.1093033955
C  C107  1  0.35900000  0.15280000  0.56850000  1.0 0.0321637649
C  C108  1  0.85900000  0.34720000  0.56850000  1.0 0.0321637649
C  C109  1  0.46970000  0.27520000  0.68800000  1.0 0.0916963441
C  C110  1  0.96970000  0.22480000  0.68800000  1.0 0.0916963441
C  C111  1  0.47260000  0.33650000  0.71940000  1.0 -0.1591037237
C  C112  1  0.97260000  0.16350000  0.71940000  1.0 -0.1591037237
C  C113  1  0.44340000  0.32040000  0.74460000  1.0 0.0604141566
C  C114  1  0.94340000  0.17960000  0.74460000  1.0 0.0604141566
C  C115  1  0.41890000  0.24420000  0.74150000  1.0 -0.1377200493
C  C116  1  0.91890000  0.25580000  0.74150000  1.0 -0.1377200493
C  C117  1  0.41890000  0.18090000  0.70960000  1.0 0.0717017344
C  C118  1  0.91890000  0.31910000  0.70960000  1.0 0.0717017344
C  C119  1  0.44410000  0.38840000  0.77680000  1.0 0.3671432266
C  C120  1  0.94410000  0.11160000  0.77680000  1.0 0.3671432266
C  C121  1  0.46970000  0.51460000  0.80910000  1.0 0.3486936419
C  C122  1  0.96970000  0.98540000  0.80910000  1.0 0.3486936419
C  C123  1  0.41260000  0.44480000  0.82390000  1.0 0.3671432266
C  C124  1  0.91260000  0.05520000  0.82390000  1.0 0.3671432266
C  C125  1  0.49730000  0.59770000  0.81320000  1.0 0.0916963441
C  C126  1  0.99730000  0.90230000  0.81320000  1.0 0.0916963441
C  C127  1  0.52800000  0.61030000  0.78700000  1.0 -0.1691599329
C  C128  1  0.02800000  0.88970000  0.78700000  1.0 -0.1691599329
C  C129  1  0.54840000  0.68850000  0.79000000  1.0 0.0794798567
C  C130  1  0.04840000  0.81150000  0.79000000  1.0 0.0794798567
C  C131  1  0.52640000  0.73510000  0.84430000  1.0 0.0604141566
C  C132  1  0.02640000  0.76490000  0.84430000  1.0 0.0604141566
C  C133  1  0.49890000  0.66260000  0.84150000  1.0 -0.1497858796
C  C134  1  0.99890000  0.83740000  0.84150000  1.0 -0.1497858796
C  C135  1  0.37920000  0.43600000  0.84740000  1.0 0.0604141566
C  C136  1  0.87920000  0.06400000  0.84740000  1.0 0.0604141566
C  C137  1  0.38710000  0.46990000  0.88550000  1.0 -0.1497858796
C  C138  1  0.88710000  0.03010000  0.88550000  1.0 -0.1497858796
C  C139  1  0.35490000  0.46630000  0.90600000  1.0 0.0916963441
C  C140  1  0.85490000  0.03370000  0.90600000  1.0 0.0916963441
C  C141  1  0.30720000  0.38810000  0.85620000  1.0 0.0604141566
C  C142  1  0.80720000  0.11190000  0.85620000  1.0 0.0604141566
C  C143  1  0.33910000  0.39510000  0.83350000  1.0 -0.1302580103
C  C144  1  0.83910000  0.10490000  0.83350000  1.0 -0.1302580103
C  C145  1  0.84830000  0.19560000  0.13700000  1.0 0.0717017344
C  C146  1  0.34830000  0.30440000  0.13700000  1.0 0.0717017344
C  C147  1  0.81720000  0.14240000  0.11180000  1.0 -0.1497858796
C  C148  1  0.31720000  0.35760000  0.11180000  1.0 -0.1497858796
C  C149  1  0.78780000  0.18710000  0.08180000  1.0 0.0519857735
C  C150  1  0.28780000  0.31290000  0.08180000  1.0 0.0519857735
C  C151  1  0.79200000  0.28240000  0.07730000  1.0 -0.176027541
C  C152  1  0.29200000  0.21760000  0.07730000  1.0 -0.176027541
C  C153  1  0.82570000  0.32390000  0.10390000  1.0 0.0916963441
C  C154  1  0.32570000  0.17610000  0.10390000  1.0 0.0916963441
C  C155  1  0.75300000  0.13350000  0.05660000  1.0 0.3671432266
C  C156  1  0.25300000  0.36650000  0.05660000  1.0 0.3671432266
C  C157  1  0.72160000  0.99900000  0.03850000  1.0 0.3601404085
C  C158  1  0.22160000  0.50100000  0.03850000  1.0 0.3601404085
C  C159  1  0.69150000  0.12550000  0.00610000  1.0 0.3761338869
C  C160  1  0.19150000  0.37450000  0.00610000  1.0 0.3761338869
C  C161  1  0.72390000  0.89920000  0.04310000  1.0 0.0604141566
C  C162  1  0.22390000  0.60080000  0.04310000  1.0 0.0604141566
C  C163  1  0.75980000  0.85830000  0.06570000  1.0 -0.1591037237
C  C164  1  0.25980000  0.64170000  0.06570000  1.0 -0.1591037237
C  C165  1  0.76110000  0.76820000  0.07280000  1.0 0.0916963441
C  C166  1  0.26110000  0.73180000  0.07280000  1.0 0.0916963441
C  C167  1  0.69200000  0.74940000  0.03310000  1.0 0.0519857735
C  C168  1  0.19200000  0.75060000  0.03310000  1.0 0.0519857735
C  C169  1  0.68750000  0.84110000  0.02440000  1.0 -0.1591037237
C  C170  1  0.18750000  0.65890000  0.02440000  1.0 -0.1591037237
C  C171  1  0.65920000  0.17020000  0.97450000  1.0 0.0400454633
C  C172  1  0.15920000  0.32980000  0.97450000  1.0 0.0400454633
C  C173  1  0.63240000  0.12350000  0.94500000  1.0 -0.1302580103
C  C174  1  0.13240000  0.37650000  0.94500000  1.0 -0.1302580103
C  C175  1  0.60480000  0.17080000  0.91470000  1.0 0.101823987
C  C176  1  0.10480000  0.32920000  0.91470000  1.0 0.101823987
C  C177  1  0.62850000  0.31020000  0.94390000  1.0 0.0717017344
C  C178  1  0.12850000  0.18980000  0.94390000  1.0 0.0717017344
C  C179  1  0.65780000  0.26750000  0.97390000  1.0 -0.1591037237
C  C180  1  0.15780000  0.23250000  0.97390000  1.0 -0.1591037237
C  C181  1  0.59520000  0.24890000  0.80230000  1.0 0.0916963441
C  C182  1  0.09520000  0.25110000  0.80230000  1.0 0.0916963441
C  C183  1  0.59850000  0.19260000  0.77270000  1.0 -0.1591037237
C  C184  1  0.09850000  0.30740000  0.77270000  1.0 -0.1591037237
C  C185  1  0.56760000  0.12660000  0.76050000  1.0 0.0794798567
C  C186  1  0.06760000  0.37340000  0.76050000  1.0 0.0794798567
C  C187  1  0.52950000  0.12400000  0.77700000  1.0 -0.1497858796
C  C188  1  0.02950000  0.37600000  0.77700000  1.0 -0.1497858796
C  C189  1  0.52940000  0.18360000  0.80790000  1.0 0.0604141566
C  C190  1  0.02940000  0.31640000  0.80790000  1.0 0.0604141566
C  C191  1  0.56670000  0.06310000  0.72590000  1.0 0.3761338869
C  C192  1  0.06670000  0.43690000  0.72590000  1.0 0.3761338869
C  C193  1  0.54010000  0.94090000  0.68890000  1.0 0.3601404085
C  C194  1  0.04010000  0.55910000  0.68890000  1.0 0.3601404085
C  C195  1  0.59510000  0.02430000  0.67500000  1.0 0.3761338869
C  C196  1  0.09510000  0.47570000  0.67500000  1.0 0.3761338869
C  C197  1  0.62570000  0.03930000  0.64870000  1.0 0.0717017344
C  C198  1  0.12570000  0.46070000  0.64870000  1.0 0.0717017344
C  C199  1  0.60970000  0.03220000  0.60780000  1.0 -0.1377200493
C  C200  1  0.10970000  0.46780000  0.60780000  1.0 -0.1377200493
C  C201  1  0.63760000  0.05370000  0.58290000  1.0 0.0794798567
C  C202  1  0.13760000  0.44630000  0.58290000  1.0 0.0794798567
C  C203  1  0.69520000  0.08450000  0.63660000  1.0 0.0604141566
C  C204  1  0.19520000  0.41550000  0.63660000  1.0 0.0604141566
C  C205  1  0.66860000  0.06570000  0.66230000  1.0 -0.1497858796
C  C206  1  0.16860000  0.43430000  0.66230000  1.0 -0.1497858796
C  C207  1  0.51200000  0.86230000  0.68240000  1.0 0.0519857735
C  C208  1  0.01200000  0.63770000  0.68240000  1.0 0.0519857735
C  C209  1  0.49030000  0.83310000  0.71020000  1.0 -0.1497858796
C  C210  1  0.99030000  0.66690000  0.71020000  1.0 -0.1497858796
C  C211  1  0.46320000  0.75560000  0.70260000  1.0 0.0916963441
C  C212  1  0.96320000  0.74440000  0.70260000  1.0 0.0916963441
C  C213  1  0.47560000  0.74010000  0.63960000  1.0 0.0717017344
C  C214  1  0.97560000  0.75990000  0.63960000  1.0 0.0717017344
C  C215  1  0.50520000  0.81720000  0.64600000  1.0 -0.1302580103
C  C216  1  0.00520000  0.68280000  0.64600000  1.0 -0.1302580103
C  C217  1  0.35210000  0.77190000  0.62990000  1.0 0.0916963441
C  C218  1  0.85210000  0.72810000  0.62990000  1.0 0.0916963441
C  C219  1  0.31770000  0.82220000  0.60760000  1.0 -0.1497858796
C  C220  1  0.81770000  0.67780000  0.60760000  1.0 -0.1497858796
C  C221  1  0.28590000  0.77810000  0.57870000  1.0 0.0400454633
C  C222  1  0.78590000  0.72190000  0.57870000  1.0 0.0400454633
C  C223  1  0.29160000  0.68560000  0.57270000  1.0 -0.1691599329
C  C224  1  0.79160000  0.81440000  0.57270000  1.0 -0.1691599329
C  C225  1  0.32710000  0.64220000  0.59530000  1.0 0.0519857735
C  C226  1  0.82710000  0.85780000  0.59530000  1.0 0.0519857735
C  C227  1  0.24970000  0.82690000  0.55460000  1.0 0.3486936419
C  C228  1  0.74970000  0.67310000  0.55460000  1.0 0.3486936419
C  C229  1  0.21280000  0.95920000  0.53870000  1.0 0.3486936419
C  C230  1  0.71280000  0.54080000  0.53870000  1.0 0.3486936419
C  C231  1  0.19070000  0.83260000  0.50190000  1.0 0.3375108196
C  C232  1  0.69070000  0.66740000  0.50190000  1.0 0.3375108196
C  C233  1  0.20890000  0.05680000  0.54440000  1.0 0.0519857735
C  C234  1  0.70890000  0.44320000  0.54440000  1.0 0.0519857735
C  C235  1  0.23590000  0.09770000  0.57690000  1.0 -0.1497858796
C  C236  1  0.73590000  0.40230000  0.57690000  1.0 -0.1497858796
C  C237  1  0.23540000  0.19240000  0.58100000  1.0 0.0794798567
C  C238  1  0.73540000  0.30760000  0.58100000  1.0 0.0794798567
C  C239  1  0.18510000  0.20590000  0.52160000  1.0 0.0400454633
C  C240  1  0.68510000  0.29410000  0.52160000  1.0 0.0400454633
C  C241  1  0.18310000  0.11420000  0.51670000  1.0 -0.1497858796
C  C242  1  0.68310000  0.38580000  0.51670000  1.0 -0.1497858796
C  C243  1  0.17030000  0.69480000  0.46210000  1.0 -0.1691599329
C  C244  1  0.67030000  0.80520000  0.46210000  1.0 -0.1691599329
C  C245  1  0.16080000  0.78490000  0.47120000  1.0 0.0321637649
C  C246  1  0.66080000  0.71510000  0.47120000  1.0 0.0321637649
C  C247  1  0.12310000  0.82460000  0.44920000  1.0 -0.1691599329
C  C248  1  0.62310000  0.67540000  0.44920000  1.0 -0.1691599329
C  C249  1  0.09500000  0.77700000  0.42000000  1.0 0.1093033955
C  C250  1  0.59500000  0.72300000  0.42000000  1.0 0.1093033955
C  C251  1  0.14100000  0.65280000  0.43150000  1.0 0.0321637649
C  C252  1  0.64100000  0.84720000  0.43150000  1.0 0.0321637649
C  C253  1  0.03030000  0.77520000  0.31200000  1.0 0.0916963441
C  C254  1  0.53030000  0.72480000  0.31200000  1.0 0.0916963441
C  C255  1  0.02740000  0.83650000  0.28060000  1.0 -0.1591037237
C  C256  1  0.52740000  0.66350000  0.28060000  1.0 -0.1591037237
C  C257  1  0.05660000  0.82040000  0.25540000  1.0 0.0604141566
C  C258  1  0.55660000  0.67960000  0.25540000  1.0 0.0604141566
C  C259  1  0.08110000  0.74420000  0.25850000  1.0 -0.1377200493
C  C260  1  0.58110000  0.75580000  0.25850000  1.0 -0.1377200493
C  C261  1  0.08110000  0.68090000  0.29040000  1.0 0.0717017344
C  C262  1  0.58110000  0.81910000  0.29040000  1.0 0.0717017344
C  C263  1  0.05590000  0.88840000  0.22320000  1.0 0.3671432266
C  C264  1  0.55590000  0.61160000  0.22320000  1.0 0.3671432266
C  C265  1  0.03030000  0.01460000  0.19090000  1.0 0.3486936419
C  C266  1  0.53030000  0.48540000  0.19090000  1.0 0.3486936419
C  C267  1  0.08740000  0.94480000  0.17610000  1.0 0.3671432266
C  C268  1  0.58740000  0.55520000  0.17610000  1.0 0.3671432266
C  C269  1  0.00270000  0.09770000  0.18680000  1.0 0.0916963441
C  C270  1  0.50270000  0.40230000  0.18680000  1.0 0.0916963441
C  C271  1  0.97200000  0.11030000  0.21300000  1.0 -0.1691599329
C  C272  1  0.47200000  0.38970000  0.21300000  1.0 -0.1691599329
C  C273  1  0.95160000  0.18850000  0.21000000  1.0 0.0794798567
C  C274  1  0.45160000  0.31150000  0.21000000  1.0 0.0794798567
C  C275  1  0.97360000  0.23510000  0.15570000  1.0 0.0604141566
C  C276  1  0.47360000  0.26490000  0.15570000  1.0 0.0604141566
C  C277  1  0.00110000  0.16260000  0.15850000  1.0 -0.1497858796
C  C278  1  0.50110000  0.33740000  0.15850000  1.0 -0.1497858796
C  C279  1  0.12080000  0.93600000  0.15260000  1.0 0.0604141566
C  C280  1  0.62080000  0.56400000  0.15260000  1.0 0.0604141566
C  C281  1  0.11290000  0.96990000  0.11450000  1.0 -0.1497858796
C  C282  1  0.61290000  0.53010000  0.11450000  1.0 -0.1497858796
C  C283  1  0.14510000  0.96630000  0.09400000  1.0 0.0916963441
C  C284  1  0.64510000  0.53370000  0.09400000  1.0 0.0916963441
C  C285  1  0.19280000  0.88810000  0.14380000  1.0 0.0604141566
C  C286  1  0.69280000  0.61190000  0.14380000  1.0 0.0604141566
C  C287  1  0.16090000  0.89510000  0.16650000  1.0 -0.1302580103
C  C288  1  0.66090000  0.60490000  0.16650000  1.0 -0.1302580103
Br  Br1  1  0.57102000  0.96824000  0.85854000  1.0 -0.487177317
Br  Br2  1  0.07102000  0.53176000  0.85854000  1.0 -0.487177317
Br  Br3  1  0.62363000  0.86170000  0.76874000  1.0 -0.4700780445
Br  Br4  1  0.12363000  0.63830000  0.76874000  1.0 -0.4700780445
Br  Br5  1  0.00840000  0.81664000  0.11920000  1.0 -0.4770144717
Br  Br6  1  0.50840000  0.68336000  0.11920000  1.0 -0.4770144717
Br  Br7  1  0.10522000  0.06410000  0.28500000  1.0 -0.487177317
Br  Br8  1  0.60522000  0.43590000  0.28500000  1.0 -0.487177317
Br  Br9  1  0.06969000  0.00835000  0.38906000  1.0 -0.5192184494
Br  Br10  1  0.56969000  0.49165000  0.38906000  1.0 -0.5192184494
Br  Br11  1  0.21016000  0.91160000  0.40757000  1.0 0.0400454633
Br  Br12  1  0.71016000  0.58840000  0.40757000  1.0 0.0400454633
Br  Br13  1  0.50844000  0.13995000  0.61808000  1.0 -0.487177317
Br  Br14  1  0.00844000  0.36005000  0.61808000  1.0 -0.487177317
Br  Br15  1  0.40694000  0.98495000  0.64334000  1.0 -0.5026109861
Br  Br16  1  0.90694000  0.51505000  0.64334000  1.0 -0.5026109861
Br  Br17  1  0.29331000  0.51622000  0.97952000  1.0 -0.4642686592
Br  Br18  1  0.79331000  0.98378000  0.97952000  1.0 -0.4642686592
Br  Br19  1  0.90222000  0.96374000  0.14017000  1.0 -0.508005266
Br  Br20  1  0.40222000  0.53626000  0.14017000  1.0 -0.508005266
Br  Br21  1  0.31100000  0.95750000  0.50237000  1.0 0.0916963441
Br  Br22  1  0.81100000  0.54250000  0.50237000  1.0 0.0916963441
Br  Br23  1  0.20157000  0.43803000  0.87828000  1.0 -0.4700780445
Br  Br24  1  0.70157000  0.06197000  0.87828000  1.0 -0.4700780445
Br  Br25  1  0.20320000  0.89800000  0.38950000  1.0 0.118836131
Br  Br26  1  0.70320000  0.60200000  0.38950000  1.0 0.118836131
Br  Br27  1  0.29930000  0.96620000  0.49270000  1.0 0.0604141566
Br  Br28  1  0.79930000  0.53380000  0.49270000  1.0 0.0604141566
Br  Br29  1  0.92898000  0.46824000  0.14146000  1.0 -0.487177317
Br  Br30  1  0.42898000  0.03176000  0.14146000  1.0 -0.487177317
Br  Br31  1  0.87637000  0.36170000  0.23126000  1.0 -0.4700780445
Br  Br32  1  0.37637000  0.13830000  0.23126000  1.0 -0.4700780445
Br  Br33  1  0.49160000  0.31664000  0.88080000  1.0 -0.4770144717
Br  Br34  1  0.99160000  0.18336000  0.88080000  1.0 -0.4770144717
Br  Br35  1  0.39478000  0.56410000  0.71500000  1.0 -0.487177317
Br  Br36  1  0.89478000  0.93590000  0.71500000  1.0 -0.487177317
Br  Br37  1  0.43031000  0.50835000  0.61094000  1.0 -0.5192184494
Br  Br38  1  0.93031000  0.99165000  0.61094000  1.0 -0.5192184494
Br  Br39  1  0.28984000  0.41160000  0.59243000  1.0 0.0400454633
Br  Br40  1  0.78984000  0.08840000  0.59243000  1.0 0.0400454633
Br  Br41  1  0.99156000  0.63995000  0.38192000  1.0 -0.487177317
Br  Br42  1  0.49156000  0.86005000  0.38192000  1.0 -0.487177317
Br  Br43  1  0.09306000  0.48495000  0.35666000  1.0 -0.5026109861
Br  Br44  1  0.59306000  0.01505000  0.35666000  1.0 -0.5026109861
Br  Br45  1  0.20669000  0.01622000  0.02048000  1.0 -0.4642686592
Br  Br46  1  0.70669000  0.48378000  0.02048000  1.0 -0.4642686592
Br  Br47  1  0.59778000  0.46374000  0.85983000  1.0 -0.508005266
Br  Br48  1  0.09778000  0.03626000  0.85983000  1.0 -0.508005266
Br  Br49  1  0.18900000  0.45750000  0.49763000  1.0 0.0916963441
Br  Br50  1  0.68900000  0.04250000  0.49763000  1.0 0.0916963441
Br  Br51  1  0.29843000  0.93803000  0.12172000  1.0 -0.4700780445
Br  Br52  1  0.79843000  0.56197000  0.12172000  1.0 -0.4700780445
Br  Br53  1  0.29680000  0.39800000  0.61050000  1.0 0.118836131
Br  Br54  1  0.79680000  0.10200000  0.61050000  1.0 0.118836131
Br  Br55  1  0.20070000  0.46620000  0.50730000  1.0 0.0604141566
Br  Br56  1  0.70070000  0.03380000  0.50730000  1.0 0.0604141566
N  N1  1  0.64640000  0.78520000  0.86660000  1.0 -0.2097028763
N  N2  1  0.14640000  0.71480000  0.86660000  1.0 -0.2097028763
N  N3  1  0.77120000  0.21340000  0.94180000  1.0 -0.2003154231
N  N4  1  0.27120000  0.28660000  0.94180000  1.0 -0.2003154231
N  N5  1  0.89730000  0.76120000  0.08580000  1.0 -0.2003154231
N  N6  1  0.39730000  0.73880000  0.08580000  1.0 -0.2003154231
N  N7  1  0.77490000  0.67780000  0.97300000  1.0 -0.3992863679
N  N8  1  0.27490000  0.82220000  0.97300000  1.0 -0.3992863679
N  N9  1  0.74740000  0.54330000  0.93820000  1.0 -0.378438373
N  N10  1  0.24740000  0.95670000  0.93820000  1.0 -0.378438373
N  N11  1  0.81000000  0.53590000  0.99080000  1.0 -0.3992863679
N  N12  1  0.31000000  0.96410000  0.99080000  1.0 -0.3992863679
N  N13  1  0.93720000  0.74520000  0.17950000  1.0 -0.2097028763
N  N14  1  0.43720000  0.75480000  0.17950000  1.0 -0.2097028763
N  N15  1  0.82170000  0.57760000  0.40230000  1.0 -0.2003154231
N  N16  1  0.32170000  0.92240000  0.40230000  1.0 -0.2003154231
N  N17  1  0.04340000  0.21110000  0.33100000  1.0 -0.2189589934
N  N18  1  0.54340000  0.28890000  0.33100000  1.0 -0.2189589934
N  N19  1  0.90200000  0.57930000  0.29410000  1.0 -0.4080662575
N  N20  1  0.40200000  0.92070000  0.29410000  1.0 -0.4080662575
N  N21  1  0.96300000  0.49820000  0.28160000  1.0 -0.3881001965
N  N22  1  0.46300000  0.00180000  0.28160000  1.0 -0.3881001965
N  N23  1  0.93120000  0.45490000  0.33500000  1.0 -0.3881001965
N  N24  1  0.43120000  0.04510000  0.33500000  1.0 -0.3881001965
N  N25  1  0.14190000  0.18270000  0.37600000  1.0 -0.2003154231
N  N26  1  0.64190000  0.31730000  0.37600000  1.0 -0.2003154231
N  N27  1  0.28780000  0.74600000  0.44610000  1.0 -0.2189589934
N  N28  1  0.78780000  0.75400000  0.44610000  1.0 -0.2189589934
N  N29  1  0.39680000  0.19490000  0.59030000  1.0 -0.2003154231
N  N30  1  0.89680000  0.30510000  0.59030000  1.0 -0.2003154231
N  N31  1  0.27560000  0.28420000  0.47520000  1.0 -0.4196844594
N  N32  1  0.77560000  0.21580000  0.47520000  1.0 -0.4196844594
N  N33  1  0.25480000  0.41440000  0.43460000  1.0 -0.4770144717
N  N34  1  0.75480000  0.08560000  0.43460000  1.0 -0.4770144717
N  N35  1  0.31470000  0.42120000  0.49090000  1.0 -0.4080662575
N  N36  1  0.81470000  0.07880000  0.49090000  1.0 -0.4080662575
N  N37  1  0.44440000  0.20110000  0.68320000  1.0 -0.2189589934
N  N38  1  0.94440000  0.29890000  0.68320000  1.0 -0.2189589934
N  N39  1  0.55170000  0.74800000  0.81760000  1.0 -0.2003154231
N  N40  1  0.05170000  0.75200000  0.81760000  1.0 -0.2003154231
N  N41  1  0.31700000  0.42760000  0.89300000  1.0 -0.2003154231
N  N42  1  0.81700000  0.07240000  0.89300000  1.0 -0.2003154231
N  N43  1  0.41060000  0.37900000  0.79600000  1.0 -0.4080662575
N  N44  1  0.91060000  0.12100000  0.79600000  1.0 -0.4080662575
N  N45  1  0.47380000  0.45130000  0.78390000  1.0 -0.3679238082
N  N46  1  0.97380000  0.04870000  0.78390000  1.0 -0.3679238082
N  N47  1  0.43820000  0.51170000  0.83110000  1.0 -0.378438373
N  N48  1  0.93820000  0.98830000  0.83110000  1.0 -0.378438373
N  N49  1  0.85360000  0.28520000  0.13340000  1.0 -0.2097028763
N  N50  1  0.35360000  0.21480000  0.13340000  1.0 -0.2097028763
N  N51  1  0.72880000  0.71340000  0.05820000  1.0 -0.2003154231
N  N52  1  0.22880000  0.78660000  0.05820000  1.0 -0.2003154231
N  N53  1  0.60270000  0.26120000  0.91420000  1.0 -0.2003154231
N  N54  1  0.10270000  0.23880000  0.91420000  1.0 -0.2003154231
N  N55  1  0.72510000  0.17780000  0.02700000  1.0 -0.3992863679
N  N56  1  0.22510000  0.32220000  0.02700000  1.0 -0.3992863679
N  N57  1  0.75260000  0.04330000  0.06180000  1.0 -0.378438373
N  N58  1  0.25260000  0.45670000  0.06180000  1.0 -0.378438373
N  N59  1  0.69000000  0.03590000  0.00920000  1.0 -0.3992863679
N  N60  1  0.19000000  0.46410000  0.00920000  1.0 -0.3992863679
N  N61  1  0.56280000  0.24520000  0.82050000  1.0 -0.2097028763
N  N62  1  0.06280000  0.25480000  0.82050000  1.0 -0.2097028763
N  N63  1  0.67830000  0.07760000  0.59770000  1.0 -0.2003154231
N  N64  1  0.17830000  0.42240000  0.59770000  1.0 -0.2003154231
N  N65  1  0.45660000  0.71110000  0.66900000  1.0 -0.2189589934
N  N66  1  0.95660000  0.78890000  0.66900000  1.0 -0.2189589934
N  N67  1  0.59800000  0.07930000  0.70590000  1.0 -0.4080662575
N  N68  1  0.09800000  0.42070000  0.70590000  1.0 -0.4080662575
N  N69  1  0.53700000  0.99820000  0.71840000  1.0 -0.3881001965
N  N70  1  0.03700000  0.50180000  0.71840000  1.0 -0.3881001965
N  N71  1  0.56880000  0.95490000  0.66500000  1.0 -0.3881001965
N  N72  1  0.06880000  0.54510000  0.66500000  1.0 -0.3881001965
N  N73  1  0.35810000  0.68270000  0.62400000  1.0 -0.2003154231
N  N74  1  0.85810000  0.81730000  0.62400000  1.0 -0.2003154231
N  N75  1  0.21220000  0.24600000  0.55390000  1.0 -0.2189589934
N  N76  1  0.71220000  0.25400000  0.55390000  1.0 -0.2189589934
N  N77  1  0.10320000  0.69490000  0.40970000  1.0 -0.2003154231
N  N78  1  0.60320000  0.80510000  0.40970000  1.0 -0.2003154231
N  N79  1  0.22440000  0.78420000  0.52480000  1.0 -0.4196844594
N  N80  1  0.72440000  0.71580000  0.52480000  1.0 -0.4196844594
N  N81  1  0.24520000  0.91440000  0.56540000  1.0 -0.4770144717
N  N82  1  0.74520000  0.58560000  0.56540000  1.0 -0.4770144717
N  N83  1  0.18530000  0.92120000  0.50910000  1.0 -0.4080662575
N  N84  1  0.68530000  0.57880000  0.50910000  1.0 -0.4080662575
N  N85  1  0.05560000  0.70110000  0.31680000  1.0 -0.2189589934
N  N86  1  0.55560000  0.79890000  0.31680000  1.0 -0.2189589934
N  N87  1  0.94830000  0.24800000  0.18240000  1.0 -0.2003154231
N  N88  1  0.44830000  0.25200000  0.18240000  1.0 -0.2003154231
N  N89  1  0.18300000  0.92760000  0.10700000  1.0 -0.2003154231
N  N90  1  0.68300000  0.57240000  0.10700000  1.0 -0.2003154231
N  N91  1  0.08940000  0.87900000  0.20400000  1.0 -0.4080662575
N  N92  1  0.58940000  0.62100000  0.20400000  1.0 -0.4080662575
N  N93  1  0.02620000  0.95130000  0.21610000  1.0 -0.3679238082
N  N94  1  0.52620000  0.54870000  0.21610000  1.0 -0.3679238082
N  N95  1  0.06180000  0.01170000  0.16890000  1.0 -0.378438373
N  N96  1  0.56180000  0.48830000  0.16890000  1.0 -0.378438373
