# DDEC6 charges by PACMAN v1.1 (https://github.com/mtap-research/PACMAN-charge/)
data_IYOQEU_FSR_pacman
_symmetry_space_group_name_H-M   'P 1'
_cell_length_a   10.19740000
_cell_length_b   19.26100000
_cell_length_c   20.49800000
_cell_angle_alpha   90.00000000
_cell_angle_beta   90.00000000
_cell_angle_gamma   90.00000000
_symmetry_Int_Tables_number   1
_chemical_formula_structural   Cd5H14C27(N3O5)4
_chemical_formula_sum   'Cd20 H56 C108 N48 O80'
_cell_volume   4026.05566446
_cell_formula_units_Z   4
loop_
 _symmetry_equiv_pos_site_id
 _symmetry_equiv_pos_as_xyz
  1  'x, y, z'
loop_
 _atom_site_type_symbol
 _atom_site_label
 _atom_site_symmetry_multiplicity
 _atom_site_fract_x
 _atom_site_fract_y
 _atom_site_fract_z
 _atom_site_occupancy
 _atom_site_charge
Cd  Cd1  1  0.03194000  0.83941000  0.26233000  1.0 0.8894496998
Cd  Cd2  1  0.10306000  0.65277000  0.26225000  1.0 0.8022669097
Cd  Cd3  1  0.75499000  0.68760000  0.23235000  1.0 1.0239966055
Cd  Cd4  1  0.23045000  0.58785000  0.07988000  1.0 0.9255232503
Cd  Cd5  1  0.29826000  0.58791000  0.40730000  1.0 0.940092816
Cd  Cd6  1  0.96806000  0.33941000  0.23767000  1.0 0.8894496998
Cd  Cd7  1  0.89694000  0.15277000  0.23775000  1.0 0.8022669097
Cd  Cd8  1  0.24501000  0.18760000  0.26765000  1.0 1.0239966055
Cd  Cd9  1  0.76955000  0.08785000  0.42012000  1.0 0.9255232503
Cd  Cd10  1  0.70174000  0.08791000  0.09270000  1.0 0.940092816
Cd  Cd11  1  0.46806000  0.16059000  0.76233000  1.0 0.8894496998
Cd  Cd12  1  0.39694000  0.34723000  0.76225000  1.0 0.8022669097
Cd  Cd13  1  0.74501000  0.31240000  0.73235000  1.0 1.0239966055
Cd  Cd14  1  0.26955000  0.41215000  0.57988000  1.0 0.9255232503
Cd  Cd15  1  0.20174000  0.41209000  0.90730000  1.0 0.940092816
Cd  Cd16  1  0.53194000  0.66059000  0.73767000  1.0 0.8894496998
Cd  Cd17  1  0.60306000  0.84723000  0.73775000  1.0 0.8022669097
Cd  Cd18  1  0.25499000  0.81240000  0.76765000  1.0 1.0239966055
Cd  Cd19  1  0.73045000  0.91215000  0.92012000  1.0 0.9255232503
Cd  Cd20  1  0.79826000  0.91209000  0.59270000  1.0 0.940092816
H  H1  1  0.89210000  0.91280000  0.36350000  1.0 0.3785400269
H  H2  1  0.85030000  0.84480000  0.36290000  1.0 0.3503572819
H  H3  1  0.79510000  0.84790000  0.20010000  1.0 0.3695253435
H  H4  1  0.85260000  0.90070000  0.16450000  1.0 0.3695253435
H  H5  1  0.59320000  0.65140000  0.35120000  1.0 0.3695253435
H  H6  1  0.67220000  0.70910000  0.34580000  1.0 0.3503572819
H  H7  1  0.51950000  0.65360000  0.14360000  1.0 0.3785400269
H  H8  1  0.51570000  0.70130000  0.19400000  1.0 0.3695253435
H  H9  1  0.88850000  0.66180000  0.12180000  1.0 0.3695253435
H  H10  1  0.86600000  0.72970000  0.10440000  1.0 0.3861437281
H  H11  1  0.29730000  0.58780000  0.95600000  1.0 0.3695253435
H  H12  1  0.16380000  0.59250000  0.96290000  1.0 0.3785400269
H  H13  1  0.21030000  0.58130000  0.52900000  1.0 0.3785400269
H  H14  1  0.20740000  0.65220000  0.51950000  1.0 0.3586412286
H  H15  1  0.10790000  0.41280000  0.13650000  1.0 0.3785400269
H  H16  1  0.14970000  0.34480000  0.13710000  1.0 0.3503572819
H  H17  1  0.20490000  0.34790000  0.29990000  1.0 0.3695253435
H  H18  1  0.14740000  0.40070000  0.33550000  1.0 0.3695253435
H  H19  1  0.40680000  0.15140000  0.14880000  1.0 0.3695253435
H  H20  1  0.32780000  0.20910000  0.15420000  1.0 0.3503572819
H  H21  1  0.48050000  0.15360000  0.35640000  1.0 0.3785400269
H  H22  1  0.48430000  0.20130000  0.30600000  1.0 0.3695253435
H  H23  1  0.11150000  0.16180000  0.37820000  1.0 0.3695253435
H  H24  1  0.13400000  0.22970000  0.39560000  1.0 0.3861437281
H  H25  1  0.70270000  0.08780000  0.54400000  1.0 0.3695253435
H  H26  1  0.83620000  0.09250000  0.53710000  1.0 0.3785400269
H  H27  1  0.78970000  0.08130000  0.97100000  1.0 0.3785400269
H  H28  1  0.79260000  0.15220000  0.98050000  1.0 0.3586412286
H  H29  1  0.60790000  0.08720000  0.86350000  1.0 0.3785400269
H  H30  1  0.64970000  0.15520000  0.86290000  1.0 0.3503572819
H  H31  1  0.70490000  0.15210000  0.70010000  1.0 0.3695253435
H  H32  1  0.64740000  0.09930000  0.66450000  1.0 0.3695253435
H  H33  1  0.90680000  0.34860000  0.85120000  1.0 0.3695253435
H  H34  1  0.82780000  0.29090000  0.84580000  1.0 0.3503572819
H  H35  1  0.98050000  0.34640000  0.64360000  1.0 0.3785400269
H  H36  1  0.98430000  0.29870000  0.69400000  1.0 0.3695253435
H  H37  1  0.61150000  0.33820000  0.62180000  1.0 0.3695253435
H  H38  1  0.63400000  0.27030000  0.60440000  1.0 0.3861437281
H  H39  1  0.20270000  0.41220000  0.45600000  1.0 0.3695253435
H  H40  1  0.33620000  0.40750000  0.46290000  1.0 0.3785400269
H  H41  1  0.28970000  0.41870000  0.02900000  1.0 0.3785400269
H  H42  1  0.29260000  0.34780000  0.01950000  1.0 0.3586412286
H  H43  1  0.39210000  0.58720000  0.63650000  1.0 0.3785400269
H  H44  1  0.35030000  0.65520000  0.63710000  1.0 0.3503572819
H  H45  1  0.29510000  0.65210000  0.79990000  1.0 0.3695253435
H  H46  1  0.35260000  0.59930000  0.83550000  1.0 0.3695253435
H  H47  1  0.09320000  0.84860000  0.64880000  1.0 0.3695253435
H  H48  1  0.17220000  0.79090000  0.65420000  1.0 0.3503572819
H  H49  1  0.01950000  0.84640000  0.85640000  1.0 0.3785400269
H  H50  1  0.01570000  0.79870000  0.80600000  1.0 0.3695253435
H  H51  1  0.38850000  0.83820000  0.87820000  1.0 0.3695253435
H  H52  1  0.36600000  0.77030000  0.89560000  1.0 0.3861437281
H  H53  1  0.79730000  0.91220000  0.04400000  1.0 0.3695253435
H  H54  1  0.66380000  0.90750000  0.03710000  1.0 0.3785400269
H  H55  1  0.71030000  0.91870000  0.47100000  1.0 0.3785400269
H  H56  1  0.70740000  0.84780000  0.48050000  1.0 0.3586412286
C  C1  1  0.19980000  0.81300000  0.11760000  1.0 0.2734027644
C  C2  1  0.20630000  0.88780000  0.10090000  1.0 -0.030385922
C  C3  1  0.08940000  0.92590000  0.09930000  1.0 0.0012400778
C  C4  1  0.09200000  0.99820000  0.09490000  1.0 -0.0831728301
C  C5  1  0.21240000  0.03250000  0.08990000  1.0 0.0730401976
C  C6  1  0.32880000  0.99390000  0.08790000  1.0 -0.0965860496
C  C7  1  0.32720000  0.92100000  0.09350000  1.0 0.0383961009
C  C8  1  0.96450000  0.03840000  0.10010000  1.0 0.5901155835
C  C9  1  0.45990000  0.02940000  0.08480000  1.0 0.5901155835
C  C10  1  0.26230000  0.81640000  0.38920000  1.0 0.2853784104
C  C11  1  0.26950000  0.88970000  0.40920000  1.0 -0.030385922
C  C12  1  0.15250000  0.92660000  0.41440000  1.0 0.0012400778
C  C13  1  0.15240000  0.99890000  0.42320000  1.0 -0.0917480002
C  C14  1  0.27350000  0.03400000  0.42820000  1.0 0.0591482073
C  C15  1  0.39070000  0.99610000  0.42570000  1.0 -0.0831728301
C  C16  1  0.38940000  0.92410000  0.41670000  1.0 0.0201209456
C  C17  1  0.02380000  0.03580000  0.42300000  1.0 0.5901155835
C  C18  1  0.52200000  0.03240000  0.42960000  1.0 0.5847652694
C  C19  1  0.78840000  0.50070000  0.24420000  1.0 0.2983815213
C  C20  1  0.65040000  0.47830000  0.24450000  1.0 -0.0368669555
C  C21  1  0.55080000  0.52790000  0.24510000  1.0 0.0201209456
C  C22  1  0.42080000  0.50720000  0.24170000  1.0 -0.0710559366
C  C23  1  0.38840000  0.43700000  0.23930000  1.0 0.0383961009
C  C24  1  0.48710000  0.38750000  0.24510000  1.0 -0.0831728301
C  C25  1  0.61800000  0.40680000  0.24600000  1.0 0.014961644
C  C26  1  0.31210000  0.56020000  0.24110000  1.0 0.6170902988
C  C27  1  0.45400000  0.31150000  0.25100000  1.0 0.5952347656
C  C28  1  0.80020000  0.31300000  0.38240000  1.0 0.2734027644
C  C29  1  0.79370000  0.38780000  0.39910000  1.0 -0.030385922
C  C30  1  0.91060000  0.42590000  0.40070000  1.0 0.0012400778
C  C31  1  0.90800000  0.49820000  0.40510000  1.0 -0.0831728301
C  C32  1  0.78760000  0.53250000  0.41010000  1.0 0.0730401976
C  C33  1  0.67120000  0.49390000  0.41210000  1.0 -0.0965860496
C  C34  1  0.67280000  0.42100000  0.40650000  1.0 0.0383961009
C  C35  1  0.03550000  0.53840000  0.39990000  1.0 0.5901155835
C  C36  1  0.54010000  0.52940000  0.41520000  1.0 0.5901155835
C  C37  1  0.73770000  0.31640000  0.11080000  1.0 0.2853784104
C  C38  1  0.73050000  0.38970000  0.09080000  1.0 -0.030385922
C  C39  1  0.84750000  0.42660000  0.08560000  1.0 0.0012400778
C  C40  1  0.84760000  0.49890000  0.07680000  1.0 -0.0917480002
C  C41  1  0.72650000  0.53400000  0.07180000  1.0 0.0591482073
C  C42  1  0.60930000  0.49610000  0.07430000  1.0 -0.0831728301
C  C43  1  0.61060000  0.42410000  0.08330000  1.0 0.0201209456
C  C44  1  0.97620000  0.53580000  0.07700000  1.0 0.5901155835
C  C45  1  0.47800000  0.53240000  0.07040000  1.0 0.5901155835
C  C46  1  0.21160000  0.00070000  0.25580000  1.0 0.2983815213
C  C47  1  0.34960000  0.97830000  0.25550000  1.0 -0.0368669555
C  C48  1  0.44920000  0.02790000  0.25490000  1.0 0.0201209456
C  C49  1  0.57920000  0.00720000  0.25830000  1.0 -0.0710559366
C  C50  1  0.61160000  0.93700000  0.26070000  1.0 0.0383961009
C  C51  1  0.51290000  0.88750000  0.25490000  1.0 -0.0831728301
C  C52  1  0.38200000  0.90680000  0.25400000  1.0 0.0201209456
C  C53  1  0.68790000  0.06020000  0.25890000  1.0 0.6170902988
C  C54  1  0.54600000  0.81150000  0.24900000  1.0 0.5952347656
C  C55  1  0.30020000  0.18700000  0.61760000  1.0 0.2734027644
C  C56  1  0.29370000  0.11220000  0.60090000  1.0 -0.030385922
C  C57  1  0.41060000  0.07410000  0.59930000  1.0 0.0012400778
C  C58  1  0.40800000  0.00180000  0.59490000  1.0 -0.0831728301
C  C59  1  0.28760000  0.96750000  0.58990000  1.0 0.0730401976
C  C60  1  0.17120000  0.00610000  0.58790000  1.0 -0.0965860496
C  C61  1  0.17280000  0.07900000  0.59350000  1.0 0.0383961009
C  C62  1  0.53550000  0.96160000  0.60010000  1.0 0.5901155835
C  C63  1  0.04010000  0.97060000  0.58480000  1.0 0.5901155835
C  C64  1  0.23770000  0.18360000  0.88920000  1.0 0.2853784104
C  C65  1  0.23050000  0.11030000  0.90920000  1.0 -0.030385922
C  C66  1  0.34750000  0.07340000  0.91440000  1.0 0.0012400778
C  C67  1  0.34760000  0.00110000  0.92320000  1.0 -0.0917480002
C  C68  1  0.22650000  0.96600000  0.92820000  1.0 0.0591482073
C  C69  1  0.10930000  0.00390000  0.92570000  1.0 -0.0831728301
C  C70  1  0.11060000  0.07590000  0.91670000  1.0 0.0201209456
C  C71  1  0.47620000  0.96420000  0.92300000  1.0 0.5901155835
C  C72  1  0.97800000  0.96760000  0.92960000  1.0 0.5901155835
C  C73  1  0.71160000  0.49930000  0.74420000  1.0 0.2983815213
C  C74  1  0.84960000  0.52170000  0.74450000  1.0 -0.0368669555
C  C75  1  0.94920000  0.47210000  0.74510000  1.0 0.0201209456
C  C76  1  0.07920000  0.49280000  0.74170000  1.0 -0.0710559366
C  C77  1  0.11160000  0.56300000  0.73930000  1.0 0.0383961009
C  C78  1  0.01290000  0.61250000  0.74510000  1.0 -0.0831728301
C  C79  1  0.88200000  0.59320000  0.74600000  1.0 0.0201209456
C  C80  1  0.18790000  0.43980000  0.74110000  1.0 0.6170902988
C  C81  1  0.04600000  0.68850000  0.75100000  1.0 0.5952347656
C  C82  1  0.69980000  0.68700000  0.88240000  1.0 0.2734027644
C  C83  1  0.70630000  0.61220000  0.89910000  1.0 -0.030385922
C  C84  1  0.58940000  0.57410000  0.90070000  1.0 0.0012400778
C  C85  1  0.59200000  0.50180000  0.90510000  1.0 -0.0831728301
C  C86  1  0.71240000  0.46750000  0.91010000  1.0 0.0730401976
C  C87  1  0.82880000  0.50610000  0.91210000  1.0 -0.0965860496
C  C88  1  0.82720000  0.57900000  0.90650000  1.0 0.0383961009
C  C89  1  0.46450000  0.46160000  0.89990000  1.0 0.5901155835
C  C90  1  0.95990000  0.47060000  0.91520000  1.0 0.5901155835
C  C91  1  0.76230000  0.68360000  0.61080000  1.0 0.2853784104
C  C92  1  0.76950000  0.61030000  0.59080000  1.0 -0.030385922
C  C93  1  0.65250000  0.57340000  0.58560000  1.0 0.0012400778
C  C94  1  0.65240000  0.50110000  0.57680000  1.0 -0.0917480002
C  C95  1  0.77350000  0.46600000  0.57180000  1.0 0.0591482073
C  C96  1  0.89070000  0.50390000  0.57430000  1.0 -0.0831728301
C  C97  1  0.88940000  0.57590000  0.58330000  1.0 0.0201209456
C  C98  1  0.52380000  0.46420000  0.57700000  1.0 0.5901155835
C  C99  1  0.02200000  0.46760000  0.57040000  1.0 0.5901155835
C  C100  1  0.28840000  0.99930000  0.75580000  1.0 0.2983815213
C  C101  1  0.15040000  0.02170000  0.75550000  1.0 -0.0368669555
C  C102  1  0.05080000  0.97210000  0.75490000  1.0 0.0201209456
C  C103  1  0.92080000  0.99280000  0.75830000  1.0 -0.0710559366
C  C104  1  0.88840000  0.06300000  0.76070000  1.0 0.0383961009
C  C105  1  0.98710000  0.11250000  0.75490000  1.0 -0.0831728301
C  C106  1  0.11800000  0.09320000  0.75400000  1.0 0.0201209456
C  C107  1  0.81210000  0.93980000  0.75890000  1.0 0.6170902988
C  C108  1  0.95400000  0.18850000  0.74900000  1.0 0.5901155835
N  N1  1  0.14730000  0.79040000  0.17390000  1.0 -0.2610974918
N  N2  1  0.16150000  0.72110000  0.17190000  1.0 -0.0629910768
N  N3  1  0.22270000  0.70370000  0.11800000  1.0 -0.0629910768
N  N4  1  0.24920000  0.76030000  0.08260000  1.0 -0.2461767318
N  N5  1  0.18290000  0.79550000  0.34230000  1.0 -0.2610974918
N  N6  1  0.20170000  0.72620000  0.33900000  1.0 -0.030385922
N  N7  1  0.28750000  0.70780000  0.38350000  1.0 -0.0475156764
N  N8  1  0.32930000  0.76380000  0.41620000  1.0 -0.2610974918
N  N9  1  0.82820000  0.56660000  0.24340000  1.0 -0.2934492389
N  N10  1  0.96030000  0.56340000  0.24410000  1.0 -0.0629910768
N  N11  1  0.99960000  0.49890000  0.24450000  1.0 -0.030385922
N  N12  1  0.89330000  0.45800000  0.24420000  1.0 -0.3012262071
N  N13  1  0.85270000  0.29040000  0.32610000  1.0 -0.2610974918
N  N14  1  0.83850000  0.22110000  0.32810000  1.0 -0.0629910768
N  N15  1  0.77730000  0.20370000  0.38200000  1.0 -0.0629910768
N  N16  1  0.75080000  0.26030000  0.41740000  1.0 -0.2461767318
N  N17  1  0.81710000  0.29550000  0.15770000  1.0 -0.2610974918
N  N18  1  0.79830000  0.22620000  0.16100000  1.0 -0.030385922
N  N19  1  0.71250000  0.20780000  0.11650000  1.0 -0.0475156764
N  N20  1  0.67070000  0.26380000  0.08380000  1.0 -0.2610974918
N  N21  1  0.17180000  0.06660000  0.25660000  1.0 -0.2934492389
N  N22  1  0.03970000  0.06340000  0.25590000  1.0 -0.0629910768
N  N23  1  0.00040000  0.99890000  0.25550000  1.0 -0.030385922
N  N24  1  0.10670000  0.95800000  0.25580000  1.0 -0.3012262071
N  N25  1  0.35270000  0.20960000  0.67390000  1.0 -0.2610974918
N  N26  1  0.33850000  0.27890000  0.67190000  1.0 -0.0629910768
N  N27  1  0.27730000  0.29630000  0.61800000  1.0 -0.0629910768
N  N28  1  0.25080000  0.23970000  0.58260000  1.0 -0.2461767318
N  N29  1  0.31710000  0.20450000  0.84230000  1.0 -0.2610974918
N  N30  1  0.29830000  0.27380000  0.83900000  1.0 -0.030385922
N  N31  1  0.21250000  0.29220000  0.88350000  1.0 -0.0475156764
N  N32  1  0.17070000  0.23620000  0.91620000  1.0 -0.2610974918
N  N33  1  0.67180000  0.43340000  0.74340000  1.0 -0.2934492389
N  N34  1  0.53970000  0.43660000  0.74410000  1.0 -0.0629910768
N  N35  1  0.50040000  0.50110000  0.74450000  1.0 -0.030385922
N  N36  1  0.60670000  0.54200000  0.74420000  1.0 -0.3012262071
N  N37  1  0.64730000  0.70960000  0.82610000  1.0 -0.2610974918
N  N38  1  0.66150000  0.77890000  0.82810000  1.0 -0.0629910768
N  N39  1  0.72270000  0.79630000  0.88200000  1.0 -0.0629910768
N  N40  1  0.74920000  0.73970000  0.91740000  1.0 -0.2461767318
N  N41  1  0.68290000  0.70450000  0.65770000  1.0 -0.2610974918
N  N42  1  0.70170000  0.77380000  0.66100000  1.0 -0.030385922
N  N43  1  0.78750000  0.79220000  0.61650000  1.0 -0.0475156764
N  N44  1  0.82930000  0.73620000  0.58380000  1.0 -0.2610974918
N  N45  1  0.32820000  0.93340000  0.75660000  1.0 -0.2934492389
N  N46  1  0.46030000  0.93660000  0.75590000  1.0 -0.0629910768
N  N47  1  0.49960000  0.00110000  0.75550000  1.0 -0.030385922
N  N48  1  0.39330000  0.04200000  0.75580000  1.0 -0.3012262071
O  O1  1  0.85860000  0.00360000  0.09840000  1.0 -0.5830392698
O  O2  1  0.96510000  0.10200000  0.10840000  1.0 -0.5510242839
O  O3  1  0.56210000  0.99280000  0.08270000  1.0 -0.5510242839
O  O4  1  0.46620000  0.09470000  0.08670000  1.0 -0.5601129563
O  O5  1  0.91930000  0.99960000  0.41760000  1.0 -0.5510242839
O  O6  1  0.01550000  0.09980000  0.42730000  1.0 -0.5399332553
O  O7  1  0.62200000  0.99630000  0.43560000  1.0 -0.5399332553
O  O8  1  0.52670000  0.09720000  0.42500000  1.0 -0.5399332553
O  O9  1  0.28720000  0.59030000  0.29350000  1.0 -0.5191536704
O  O10  1  0.24540000  0.57140000  0.19230000  1.0 -0.5299692908
O  O11  1  0.33540000  0.29800000  0.26400000  1.0 -0.5601129563
O  O12  1  0.54270000  0.26890000  0.24410000  1.0 -0.5064545284
O  O13  1  0.93680000  0.72960000  0.27730000  1.0 -0.740260155
O  O14  1  0.88200000  0.87720000  0.33960000  1.0 -0.6438741246
O  O15  1  0.86780000  0.86470000  0.18730000  1.0 -0.6674355129
O  O16  1  0.62550000  0.68050000  0.32450000  1.0 -0.6674355129
O  O17  1  0.56490000  0.67360000  0.17290000  1.0 -0.7048373679
O  O18  1  0.85150000  0.69930000  0.13360000  1.0 -0.6605439047
O  O19  1  0.23590000  0.61230000  0.97200000  1.0 -0.6498402367
O  O20  1  0.25160000  0.61550000  0.51270000  1.0 -0.6605439047
O  O21  1  0.14140000  0.50360000  0.40160000  1.0 -0.5830392698
O  O22  1  0.03490000  0.60200000  0.39160000  1.0 -0.5510242839
O  O23  1  0.43790000  0.49280000  0.41730000  1.0 -0.5510242839
O  O24  1  0.53380000  0.59470000  0.41330000  1.0 -0.5601129563
O  O25  1  0.08070000  0.49960000  0.08240000  1.0 -0.5510242839
O  O26  1  0.98450000  0.59980000  0.07270000  1.0 -0.5399332553
O  O27  1  0.37800000  0.49630000  0.06440000  1.0 -0.5399332553
O  O28  1  0.47330000  0.59720000  0.07500000  1.0 -0.5399332553
O  O29  1  0.71280000  0.09030000  0.20650000  1.0 -0.5191536704
O  O30  1  0.75460000  0.07140000  0.30770000  1.0 -0.5299692908
O  O31  1  0.66460000  0.79800000  0.23600000  1.0 -0.5601129563
O  O32  1  0.45730000  0.76890000  0.25590000  1.0 -0.5064545284
O  O33  1  0.06320000  0.22960000  0.22270000  1.0 -0.740260155
O  O34  1  0.11800000  0.37720000  0.16040000  1.0 -0.6438741246
O  O35  1  0.13220000  0.36470000  0.31270000  1.0 -0.6674355129
O  O36  1  0.37450000  0.18050000  0.17550000  1.0 -0.6674355129
O  O37  1  0.43510000  0.17360000  0.32710000  1.0 -0.7048373679
O  O38  1  0.14850000  0.19930000  0.36640000  1.0 -0.6605439047
O  O39  1  0.76410000  0.11230000  0.52800000  1.0 -0.6498402367
O  O40  1  0.74840000  0.11550000  0.98730000  1.0 -0.6605439047
O  O41  1  0.64140000  0.99640000  0.59840000  1.0 -0.5830392698
O  O42  1  0.53490000  0.89800000  0.60840000  1.0 -0.5510242839
O  O43  1  0.93790000  0.00720000  0.58270000  1.0 -0.5510242839
O  O44  1  0.03380000  0.90530000  0.58670000  1.0 -0.5601129563
O  O45  1  0.58070000  0.00040000  0.91760000  1.0 -0.5510242839
O  O46  1  0.48450000  0.90020000  0.92730000  1.0 -0.5399332553
O  O47  1  0.87800000  0.00370000  0.93560000  1.0 -0.5399332553
O  O48  1  0.97330000  0.90280000  0.92500000  1.0 -0.5399332553
O  O49  1  0.21280000  0.40970000  0.79350000  1.0 -0.5191536704
O  O50  1  0.25460000  0.42860000  0.69230000  1.0 -0.5299692908
O  O51  1  0.16460000  0.70200000  0.76400000  1.0 -0.5654964904
O  O52  1  0.95730000  0.73110000  0.74410000  1.0 -0.5064545284
O  O53  1  0.56320000  0.27040000  0.77730000  1.0 -0.740260155
O  O54  1  0.61800000  0.12280000  0.83960000  1.0 -0.6438741246
O  O55  1  0.63220000  0.13530000  0.68730000  1.0 -0.6674355129
O  O56  1  0.87450000  0.31950000  0.82450000  1.0 -0.6674355129
O  O57  1  0.93510000  0.32640000  0.67290000  1.0 -0.7048373679
O  O58  1  0.64850000  0.30070000  0.63360000  1.0 -0.6605439047
O  O59  1  0.26410000  0.38770000  0.47200000  1.0 -0.6498402367
O  O60  1  0.24840000  0.38450000  0.01270000  1.0 -0.6605439047
O  O61  1  0.35860000  0.49640000  0.90160000  1.0 -0.5830392698
O  O62  1  0.46510000  0.39800000  0.89160000  1.0 -0.5510242839
O  O63  1  0.06210000  0.50720000  0.91730000  1.0 -0.5510242839
O  O64  1  0.96620000  0.40530000  0.91330000  1.0 -0.5601129563
O  O65  1  0.41930000  0.50040000  0.58240000  1.0 -0.5510242839
O  O66  1  0.51550000  0.40020000  0.57270000  1.0 -0.5399332553
O  O67  1  0.12200000  0.50370000  0.56440000  1.0 -0.5399332553
O  O68  1  0.02670000  0.40280000  0.57500000  1.0 -0.5399332553
O  O69  1  0.78720000  0.90970000  0.70650000  1.0 -0.5191536704
O  O70  1  0.74540000  0.92860000  0.80770000  1.0 -0.5299692908
O  O71  1  0.83540000  0.20200000  0.73600000  1.0 -0.5601129563
O  O72  1  0.04270000  0.23110000  0.75590000  1.0 -0.5064545284
O  O73  1  0.43680000  0.77040000  0.72270000  1.0 -0.740260155
O  O74  1  0.38200000  0.62280000  0.66040000  1.0 -0.6438741246
O  O75  1  0.36780000  0.63530000  0.81270000  1.0 -0.6674355129
O  O76  1  0.12550000  0.81950000  0.67550000  1.0 -0.6674355129
O  O77  1  0.06490000  0.82640000  0.82710000  1.0 -0.7057289342
O  O78  1  0.35150000  0.80070000  0.86640000  1.0 -0.6605439047
O  O79  1  0.73590000  0.88770000  0.02800000  1.0 -0.6498402367
O  O80  1  0.75160000  0.88450000  0.48730000  1.0 -0.6605439047
