# DDEC6 charges by PACMAN v1.1 (https://github.com/mtap-research/PACMAN-charge/)
data_IYOQAQ_ASR_pacman
_symmetry_space_group_name_H-M   'P 1'
_cell_length_a   12.81710000
_cell_length_b   12.81710000
_cell_length_c   6.92700000
_cell_angle_alpha   90.00000000
_cell_angle_beta   90.00000000
_cell_angle_gamma   132.14200000
_symmetry_Int_Tables_number   1
_chemical_formula_structural   Zn2H3C9N4O5
_chemical_formula_sum   'Zn4 H6 C18 N8 O10'
_cell_volume   843.77495489
_cell_formula_units_Z   2
loop_
 _symmetry_equiv_pos_site_id
 _symmetry_equiv_pos_as_xyz
  1  'x, y, z'
loop_
 _atom_site_type_symbol
 _atom_site_label
 _atom_site_symmetry_multiplicity
 _atom_site_fract_x
 _atom_site_fract_y
 _atom_site_fract_z
 _atom_site_occupancy
 _atom_site_charge
Zn  Zn1  1  0.13404000  0.86596000  0.25000000  1.0 0.9058133031
Zn  Zn2  1  0.86596000  0.13404000  0.75000000  1.0 0.9058133031
Zn  Zn3  1  0.00000000  0.00000000  0.00000000  1.0 0.8376029098
Zn  Zn4  1  0.00000000  0.00000000  0.50000000  1.0 0.8376029098
H  H1  1  0.95730000  0.42950000  0.25000000  1.0 0.1425240302
H  H2  1  0.04270000  0.57050000  0.75000000  1.0 0.1425240302
H  H3  1  0.57050000  0.04270000  0.25000000  1.0 0.1425240302
H  H4  1  0.42950000  0.95730000  0.75000000  1.0 0.1425240302
H  H5  1  0.61500000  0.38500000  0.25000000  1.0 0.1324063802
H  H6  1  0.38500000  0.61500000  0.75000000  1.0 0.1324063802
C  C1  1  0.83770000  0.16230000  0.25000000  1.0 0.2773692424
C  C2  1  0.16230000  0.83770000  0.75000000  1.0 0.2773692424
C  C3  1  0.77360000  0.22640000  0.25000000  1.0 0.0557855239
C  C4  1  0.22640000  0.77360000  0.75000000  1.0 0.0557855239
C  C5  1  0.86010000  0.37190000  0.25000000  1.0 -0.1157008296
C  C6  1  0.13990000  0.62810000  0.75000000  1.0 -0.1157008296
C  C7  1  0.62810000  0.13990000  0.25000000  1.0 -0.1157008296
C  C8  1  0.37190000  0.86010000  0.75000000  1.0 -0.1157008296
C  C9  1  0.80030000  0.43110000  0.25000000  1.0 0.0122461499
C  C10  1  0.19970000  0.56890000  0.75000000  1.0 0.0122461499
C  C11  1  0.56890000  0.19970000  0.25000000  1.0 0.0122461499
C  C12  1  0.43110000  0.80030000  0.75000000  1.0 0.0122461499
C  C13  1  0.65470000  0.34530000  0.25000000  1.0 -0.1035469061
C  C14  1  0.34530000  0.65470000  0.75000000  1.0 -0.1035469061
C  C15  1  0.89210000  0.58950000  0.25000000  1.0 0.5534973705
C  C16  1  0.10790000  0.41050000  0.75000000  1.0 0.5534973705
C  C17  1  0.41050000  0.10790000  0.25000000  1.0 0.5534973705
C  C18  1  0.58950000  0.89210000  0.75000000  1.0 0.5534973705
N  N1  1  0.86927000  0.13073000  0.40920000  1.0 -0.202782098
N  N2  1  0.13073000  0.86927000  0.90920000  1.0 -0.202782098
N  N3  1  0.86927000  0.13073000  0.09080000  1.0 -0.202782098
N  N4  1  0.13073000  0.86927000  0.59080000  1.0 -0.202782098
N  N5  1  0.92300000  0.07700000  0.34200000  1.0 0.0122461499
N  N6  1  0.07700000  0.92300000  0.84200000  1.0 0.0155014025
N  N7  1  0.92300000  0.07700000  0.15800000  1.0 0.0155014025
N  N8  1  0.07700000  0.92300000  0.65800000  1.0 0.0122461499
O  O1  1  0.02290000  0.66230000  0.25000000  1.0 -0.5304929053
O  O2  1  0.97710000  0.33770000  0.75000000  1.0 -0.5304929053
O  O3  1  0.33770000  0.97710000  0.25000000  1.0 -0.5304929053
O  O4  1  0.66230000  0.02290000  0.75000000  1.0 -0.5304929053
O  O5  1  0.83620000  0.63760000  0.25000000  1.0 -0.4635966306
O  O6  1  0.16380000  0.36240000  0.75000000  1.0 -0.4635966306
O  O7  1  0.36240000  0.16380000  0.25000000  1.0 -0.4635966306
O  O8  1  0.63760000  0.83620000  0.75000000  1.0 -0.4635966306
O  O9  1  0.04830000  0.95170000  0.25000000  1.0 -0.9245681798
O  O10  1  0.95170000  0.04830000  0.75000000  1.0 -0.9245681798
