# DDEC6 charges by PACMAN v1.1 (https://github.com/mtap-research/PACMAN-charge/)
data_IYUCIQ_ASR_pacman
_symmetry_space_group_name_H-M   'P 1'
_cell_length_a   14.95500000
_cell_length_b   21.92400000
_cell_length_c   29.16200000
_cell_angle_alpha   90.00000000
_cell_angle_beta   103.38000000
_cell_angle_gamma   90.00000000
_symmetry_Int_Tables_number   1
_chemical_formula_structural   DyH12C24(NO)6
_chemical_formula_sum   'Dy8 H96 C192 N48 O48'
_cell_volume   9301.91564880
_cell_formula_units_Z   8
loop_
 _symmetry_equiv_pos_site_id
 _symmetry_equiv_pos_as_xyz
  1  'x, y, z'
loop_
 _atom_site_type_symbol
 _atom_site_label
 _atom_site_symmetry_multiplicity
 _atom_site_fract_x
 _atom_site_fract_y
 _atom_site_fract_z
 _atom_site_occupancy
 _atom_site_charge
Dy  Dy1  1  0.67255000  0.24796000  0.76460000  1.0 2.0472413916
Dy  Dy2  1  0.82745000  0.74796000  0.23540000  1.0 2.0472413916
Dy  Dy3  1  0.32745000  0.75204000  0.23540000  1.0 2.0472413916
Dy  Dy4  1  0.17255000  0.25204000  0.76460000  1.0 2.0472413916
Dy  Dy5  1  0.09446000  0.73669000  0.26598000  1.0 2.0263113398
Dy  Dy6  1  0.40554000  0.23669000  0.73402000  1.0 2.0263113398
Dy  Dy7  1  0.90554000  0.26331000  0.73402000  1.0 2.0263113398
Dy  Dy8  1  0.59446000  0.76331000  0.26598000  1.0 2.0263113398
H  H1  1  0.16380000  0.82980000  0.08710000  1.0 0.1298831442
H  H2  1  0.33620000  0.32980000  0.91290000  1.0 0.1298831442
H  H3  1  0.83620000  0.17020000  0.91290000  1.0 0.1298831442
H  H4  1  0.66380000  0.67020000  0.08710000  1.0 0.1298831442
H  H5  1  0.04780000  0.85960000  0.02770000  1.0 0.1298831442
H  H6  1  0.45220000  0.35960000  0.97230000  1.0 0.1298831442
H  H7  1  0.95220000  0.14040000  0.97230000  1.0 0.1298831442
H  H8  1  0.54780000  0.64040000  0.02770000  1.0 0.1298831442
H  H9  1  0.87020000  0.75880000  0.07960000  1.0 0.1378375334
H  H10  1  0.62980000  0.25880000  0.92040000  1.0 0.1378375334
H  H11  1  0.12980000  0.24120000  0.92040000  1.0 0.1378375334
H  H12  1  0.37020000  0.74120000  0.07960000  1.0 0.1378375334
H  H13  1  0.99090000  0.72950000  0.14280000  1.0 0.1298831442
H  H14  1  0.50910000  0.22950000  0.85720000  1.0 0.1298831442
H  H15  1  0.00910000  0.27050000  0.85720000  1.0 0.1298831442
H  H16  1  0.49090000  0.77050000  0.14280000  1.0 0.1298831442
H  H17  1  0.85990000  0.02070000  0.85150000  1.0 0.1298831442
H  H18  1  0.64010000  0.52070000  0.14850000  1.0 0.1298831442
H  H19  1  0.14010000  0.97930000  0.14850000  1.0 0.1298831442
H  H20  1  0.35990000  0.47930000  0.85150000  1.0 0.1298831442
H  H21  1  0.88540000  0.09560000  0.80430000  1.0 0.1298831442
H  H22  1  0.61460000  0.59560000  0.19570000  1.0 0.1298831442
H  H23  1  0.11460000  0.90440000  0.19570000  1.0 0.1298831442
H  H24  1  0.38540000  0.40440000  0.80430000  1.0 0.1298831442
H  H25  1  0.15050000  0.09750000  0.86400000  1.0 0.1378375334
H  H26  1  0.34950000  0.59750000  0.13600000  1.0 0.1378375334
H  H27  1  0.84950000  0.90250000  0.13600000  1.0 0.1378375334
H  H28  1  0.65050000  0.40250000  0.86400000  1.0 0.1378375334
H  H29  1  0.13010000  0.02410000  0.91570000  1.0 0.1378375334
H  H30  1  0.36990000  0.52410000  0.08430000  1.0 0.1378375334
H  H31  1  0.86990000  0.97590000  0.08430000  1.0 0.1378375334
H  H32  1  0.63010000  0.47590000  0.91570000  1.0 0.1378375334
H  H33  1  0.52120000  0.95290000  0.84140000  1.0 0.1298831442
H  H34  1  0.97880000  0.45290000  0.15860000  1.0 0.1298831442
H  H35  1  0.47880000  0.04710000  0.15860000  1.0 0.1298831442
H  H36  1  0.02120000  0.54710000  0.84140000  1.0 0.1298831442
H  H37  1  0.46720000  0.02830000  0.78890000  1.0 0.1378375334
H  H38  1  0.03280000  0.52830000  0.21110000  1.0 0.1378375334
H  H39  1  0.53280000  0.97170000  0.21110000  1.0 0.1378375334
H  H40  1  0.96720000  0.47170000  0.78890000  1.0 0.1378375334
H  H41  1  0.67460000  0.13830000  0.85120000  1.0 0.1378375334
H  H42  1  0.82540000  0.63830000  0.14880000  1.0 0.1298831442
H  H43  1  0.32540000  0.86170000  0.14880000  1.0 0.1298831442
H  H44  1  0.17460000  0.36170000  0.85120000  1.0 0.1378375334
H  H45  1  0.72990000  0.06090000  0.90380000  1.0 0.1298831442
H  H46  1  0.77010000  0.56090000  0.09620000  1.0 0.1298831442
H  H47  1  0.27010000  0.93910000  0.09620000  1.0 0.1298831442
H  H48  1  0.22990000  0.43910000  0.90380000  1.0 0.1298831442
H  H49  1  0.43220000  0.32410000  0.58860000  1.0 0.1298831442
H  H50  1  0.06780000  0.82410000  0.41140000  1.0 0.1298831442
H  H51  1  0.56780000  0.67590000  0.41140000  1.0 0.1298831442
H  H52  1  0.93220000  0.17590000  0.58860000  1.0 0.1298831442
H  H53  1  0.49660000  0.36010000  0.52550000  1.0 0.1298831442
H  H54  1  0.00340000  0.86010000  0.47450000  1.0 0.1298831442
H  H55  1  0.50340000  0.63990000  0.47450000  1.0 0.1298831442
H  H56  1  0.99660000  0.13990000  0.52550000  1.0 0.1298831442
H  H57  1  0.71730000  0.25740000  0.57620000  1.0 0.1298831442
H  H58  1  0.78270000  0.75740000  0.42380000  1.0 0.1298831442
H  H59  1  0.28270000  0.74260000  0.42380000  1.0 0.1298831442
H  H60  1  0.21730000  0.24260000  0.57620000  1.0 0.1298831442
H  H61  1  0.65760000  0.22260000  0.63780000  1.0 0.1298831442
H  H62  1  0.84240000  0.72260000  0.36220000  1.0 0.1298831442
H  H63  1  0.34240000  0.77740000  0.36220000  1.0 0.1298831442
H  H64  1  0.15760000  0.27740000  0.63780000  1.0 0.1298831442
H  H65  1  0.66710000  0.55480000  0.39480000  1.0 0.1298831442
H  H66  1  0.83290000  0.05480000  0.60520000  1.0 0.1298831442
H  H67  1  0.33290000  0.44520000  0.60520000  1.0 0.1298831442
H  H68  1  0.16710000  0.94520000  0.39480000  1.0 0.1298831442
H  H69  1  0.66840000  0.63570000  0.34570000  1.0 0.1378375334
H  H70  1  0.83160000  0.13570000  0.65430000  1.0 0.1378375334
H  H71  1  0.33160000  0.36430000  0.65430000  1.0 0.1378375334
H  H72  1  0.16840000  0.86430000  0.34570000  1.0 0.1378375334
H  H73  1  0.81910000  0.53350000  0.27680000  1.0 0.1378375334
H  H74  1  0.68090000  0.03350000  0.72320000  1.0 0.1378375334
H  H75  1  0.18090000  0.46650000  0.72320000  1.0 0.1378375334
H  H76  1  0.31910000  0.96650000  0.27680000  1.0 0.1378375334
H  H77  1  0.80530000  0.45240000  0.32240000  1.0 0.1298831442
H  H78  1  0.69470000  0.95240000  0.67760000  1.0 0.1298831442
H  H79  1  0.19470000  0.54760000  0.67760000  1.0 0.1298831442
H  H80  1  0.30530000  0.04760000  0.32240000  1.0 0.1298831442
H  H81  1  0.48820000  0.51960000  0.35350000  1.0 0.1298831442
H  H82  1  0.01180000  0.01960000  0.64650000  1.0 0.1298831442
H  H83  1  0.51180000  0.48040000  0.64650000  1.0 0.1298831442
H  H84  1  0.98820000  0.98040000  0.35350000  1.0 0.1298831442
H  H85  1  0.40910000  0.59580000  0.30810000  1.0 0.1378375334
H  H86  1  0.09090000  0.09580000  0.69190000  1.0 0.1378375334
H  H87  1  0.59090000  0.40420000  0.69190000  1.0 0.1378375334
H  H88  1  0.90910000  0.90420000  0.30810000  1.0 0.1378375334
H  H89  1  0.22350000  0.59590000  0.38460000  1.0 0.1378375334
H  H90  1  0.27650000  0.09590000  0.61540000  1.0 0.1378375334
H  H91  1  0.77650000  0.40410000  0.61540000  1.0 0.1378375334
H  H92  1  0.72350000  0.90410000  0.38460000  1.0 0.1378375334
H  H93  1  0.30140000  0.52370000  0.43240000  1.0 0.1378375334
H  H94  1  0.19860000  0.02370000  0.56760000  1.0 0.1378375334
H  H95  1  0.69860000  0.47630000  0.56760000  1.0 0.1378375334
H  H96  1  0.80140000  0.97630000  0.43240000  1.0 0.1378375334
C  C1  1  0.17000000  0.75680000  0.16090000  1.0 0.5990885664
C  C2  1  0.33000000  0.25680000  0.83910000  1.0 0.5990885664
C  C3  1  0.83000000  0.24320000  0.83910000  1.0 0.5990885664
C  C4  1  0.67000000  0.74320000  0.16090000  1.0 0.5990885664
C  C5  1  0.08940000  0.77520000  0.12090000  1.0 -0.0098108844
C  C6  1  0.41060000  0.27520000  0.87910000  1.0 -0.0098108844
C  C7  1  0.91060000  0.22480000  0.87910000  1.0 -0.0098108844
C  C8  1  0.58940000  0.72480000  0.12090000  1.0 -0.0098108844
C  C9  1  0.10470000  0.81570000  0.08580000  1.0 -0.0901856463
C  C10  1  0.39530000  0.31570000  0.91420000  1.0 -0.0901856463
C  C11  1  0.89530000  0.18430000  0.91420000  1.0 -0.0901856463
C  C12  1  0.60470000  0.68430000  0.08580000  1.0 -0.0901856463
C  C13  1  0.03570000  0.83420000  0.05110000  1.0 -0.126903072
C  C14  1  0.46430000  0.33420000  0.94890000  1.0 -0.126903072
C  C15  1  0.96430000  0.16580000  0.94890000  1.0 -0.126903072
C  C16  1  0.53570000  0.66580000  0.05110000  1.0 -0.126903072
C  C17  1  0.94600000  0.81600000  0.04900000  1.0 0.2314930968
C  C18  1  0.55400000  0.31600000  0.95100000  1.0 0.2314930968
C  C19  1  0.05400000  0.18400000  0.95100000  1.0 0.2314930968
C  C20  1  0.44600000  0.68400000  0.04900000  1.0 0.2314930968
C  C21  1  0.92910000  0.77420000  0.08210000  1.0 -0.1205929816
C  C22  1  0.57090000  0.27420000  0.91790000  1.0 -0.1205929816
C  C23  1  0.07090000  0.22580000  0.91790000  1.0 -0.1205929816
C  C24  1  0.42910000  0.72580000  0.08210000  1.0 -0.1205929816
C  C25  1  0.00210000  0.75530000  0.11940000  1.0 -0.0989766264
C  C26  1  0.49790000  0.25530000  0.88060000  1.0 -0.0989766264
C  C27  1  0.99790000  0.24470000  0.88060000  1.0 -0.0989766264
C  C28  1  0.50210000  0.74470000  0.11940000  1.0 -0.0989766264
C  C29  1  0.85620000  0.87950000  0.98220000  1.0 0.4888654265
C  C30  1  0.64380000  0.37950000  0.01780000  1.0 0.4888654265
C  C31  1  0.14380000  0.12050000  0.01780000  1.0 0.4888654265
C  C32  1  0.35620000  0.62050000  0.98220000  1.0 0.4888654265
C  C33  1  0.75600000  0.93700000  0.93020000  1.0 0.4768355507
C  C34  1  0.74400000  0.43700000  0.06980000  1.0 0.4768355507
C  C35  1  0.24400000  0.06300000  0.06980000  1.0 0.4768355507
C  C36  1  0.25600000  0.56300000  0.93020000  1.0 0.4768355507
C  C37  1  0.90640000  0.94790000  0.93800000  1.0 0.4888654265
C  C38  1  0.59360000  0.44790000  0.06200000  1.0 0.4888654265
C  C39  1  0.09360000  0.05210000  0.06200000  1.0 0.4888654265
C  C40  1  0.40640000  0.55210000  0.93800000  1.0 0.4888654265
C  C41  1  0.98890000  0.01540000  0.89330000  1.0 0.2685492504
C  C42  1  0.51110000  0.51540000  0.10670000  1.0 0.2685492504
C  C43  1  0.01110000  0.98460000  0.10670000  1.0 0.2685492504
C  C44  1  0.48890000  0.48460000  0.89330000  1.0 0.2685492504
C  C45  1  0.91860000  0.03700000  0.85600000  1.0 -0.1493696179
C  C46  1  0.58140000  0.53700000  0.14400000  1.0 -0.1493696179
C  C47  1  0.08140000  0.96300000  0.14400000  1.0 -0.1493696179
C  C48  1  0.41860000  0.46300000  0.85600000  1.0 -0.1493696179
C  C49  1  0.93490000  0.08050000  0.82680000  1.0 -0.0901856463
C  C50  1  0.56510000  0.58050000  0.17320000  1.0 -0.0901856463
C  C51  1  0.06510000  0.91950000  0.17320000  1.0 -0.0901856463
C  C52  1  0.43490000  0.41950000  0.82680000  1.0 -0.0901856463
C  C53  1  0.02260000  0.10470000  0.82820000  1.0 -0.0515349312
C  C54  1  0.47740000  0.60470000  0.17180000  1.0 -0.0515349312
C  C55  1  0.97740000  0.89530000  0.17180000  1.0 -0.0515349312
C  C56  1  0.52260000  0.39530000  0.82820000  1.0 -0.0515349312
C  C57  1  0.09160000  0.08250000  0.86200000  1.0 -0.0822442938
C  C58  1  0.40840000  0.58250000  0.13800000  1.0 -0.0822442938
C  C59  1  0.90840000  0.91750000  0.13800000  1.0 -0.0822442938
C  C60  1  0.59160000  0.41750000  0.86200000  1.0 -0.0822442938
C  C61  1  0.07940000  0.03880000  0.89370000  1.0 -0.1135646682
C  C62  1  0.42060000  0.53880000  0.10630000  1.0 -0.1135646682
C  C63  1  0.92060000  0.96120000  0.10630000  1.0 -0.1135646682
C  C64  1  0.57940000  0.46120000  0.89370000  1.0 -0.1135646682
C  C65  1  0.03290000  0.15230000  0.79440000  1.0 0.6416457463
C  C66  1  0.46710000  0.65230000  0.20560000  1.0 0.6416457463
C  C67  1  0.96710000  0.84770000  0.20560000  1.0 0.6416457463
C  C68  1  0.53290000  0.34770000  0.79440000  1.0 0.6416457463
C  C69  1  0.64030000  0.99460000  0.87490000  1.0 0.2492209319
C  C70  1  0.85970000  0.49460000  0.12510000  1.0 0.2492209319
C  C71  1  0.35970000  0.00540000  0.12510000  1.0 0.2492209319
C  C72  1  0.14030000  0.50540000  0.87490000  1.0 0.2492209319
C  C73  1  0.55440000  0.98890000  0.84240000  1.0 -0.1383256238
C  C74  1  0.94560000  0.48890000  0.15760000  1.0 -0.1383256238
C  C75  1  0.44560000  0.01110000  0.15760000  1.0 -0.1383256238
C  C76  1  0.05440000  0.51110000  0.84240000  1.0 -0.1383256238
C  C77  1  0.51970000  0.03510000  0.81260000  1.0 -0.0901856463
C  C78  1  0.98030000  0.53510000  0.18740000  1.0 -0.0901856463
C  C79  1  0.48030000  0.96490000  0.18740000  1.0 -0.0901856463
C  C80  1  0.01970000  0.46490000  0.81260000  1.0 -0.0901856463
C  C81  1  0.56170000  0.09370000  0.81670000  1.0 -0.0098108844
C  C82  1  0.93830000  0.59370000  0.18330000  1.0 -0.0098108844
C  C83  1  0.43830000  0.90630000  0.18330000  1.0 -0.0098108844
C  C84  1  0.06170000  0.40630000  0.81670000  1.0 -0.0098108844
C  C85  1  0.64320000  0.10140000  0.84930000  1.0 -0.0822442938
C  C86  1  0.85680000  0.60140000  0.15070000  1.0 -0.0822442938
C  C87  1  0.35680000  0.89860000  0.15070000  1.0 -0.0822442938
C  C88  1  0.14320000  0.39860000  0.84930000  1.0 -0.0822442938
C  C89  1  0.67860000  0.05360000  0.87950000  1.0 -0.1383256238
C  C90  1  0.82140000  0.55360000  0.12050000  1.0 -0.1383256238
C  C91  1  0.32140000  0.94640000  0.12050000  1.0 -0.1383256238
C  C92  1  0.17860000  0.44640000  0.87950000  1.0 -0.1383256238
C  C93  1  0.51500000  0.14430000  0.78630000  1.0 0.5990885664
C  C94  1  0.98500000  0.64430000  0.21370000  1.0 0.5990885664
C  C95  1  0.48500000  0.85570000  0.21370000  1.0 0.5990885664
C  C96  1  0.01500000  0.35570000  0.78630000  1.0 0.5990885664
C  C97  1  0.50150000  0.26100000  0.66310000  1.0 0.6051355321
C  C98  1  0.99850000  0.76100000  0.33690000  1.0 0.6051355321
C  C99  1  0.49850000  0.73900000  0.33690000  1.0 0.6051355321
C  C100  1  0.00150000  0.23900000  0.66310000  1.0 0.6051355321
C  C101  1  0.53870000  0.27350000  0.61930000  1.0 -0.0027938421
C  C102  1  0.96130000  0.77350000  0.38070000  1.0 -0.0027938421
C  C103  1  0.46130000  0.72650000  0.38070000  1.0 -0.0027938421
C  C104  1  0.03870000  0.22650000  0.61930000  1.0 -0.0027938421
C  C105  1  0.49020000  0.31120000  0.58640000  1.0 -0.0901856463
C  C106  1  0.00980000  0.81120000  0.41360000  1.0 -0.0901856463
C  C107  1  0.50980000  0.68880000  0.41360000  1.0 -0.0901856463
C  C108  1  0.99020000  0.18880000  0.58640000  1.0 -0.0901856463
C  C109  1  0.52770000  0.33200000  0.54730000  1.0 -0.1205929816
C  C110  1  0.97230000  0.83200000  0.45270000  1.0 -0.1205929816
C  C111  1  0.47230000  0.66800000  0.45270000  1.0 -0.1205929816
C  C112  1  0.02770000  0.16800000  0.54730000  1.0 -0.1205929816
C  C113  1  0.61180000  0.30800000  0.54410000  1.0 0.2093312684
C  C114  1  0.88820000  0.80800000  0.45590000  1.0 0.2093312684
C  C115  1  0.38820000  0.69200000  0.45590000  1.0 0.2093312684
C  C116  1  0.11180000  0.19200000  0.54410000  1.0 0.2093312684
C  C117  1  0.65910000  0.27030000  0.57830000  1.0 -0.1205929816
C  C118  1  0.84090000  0.77030000  0.42170000  1.0 -0.1205929816
C  C119  1  0.34090000  0.72970000  0.42170000  1.0 -0.1205929816
C  C120  1  0.15910000  0.22970000  0.57830000  1.0 -0.1205929816
C  C121  1  0.62520000  0.25020000  0.61590000  1.0 -0.0989766264
C  C122  1  0.87480000  0.75020000  0.38410000  1.0 -0.0989766264
C  C123  1  0.37480000  0.74980000  0.38410000  1.0 -0.0989766264
C  C124  1  0.12520000  0.24980000  0.61590000  1.0 -0.0989766264
C  C125  1  0.63280000  0.37310000  0.47670000  1.0 0.4888654265
C  C126  1  0.86720000  0.87310000  0.52330000  1.0 0.4888654265
C  C127  1  0.36720000  0.62690000  0.52330000  1.0 0.4888654265
C  C128  1  0.13280000  0.12690000  0.47670000  1.0 0.4888654265
C  C129  1  0.53240000  0.44330000  0.43750000  1.0 0.4888654265
C  C130  1  0.96760000  0.94330000  0.56250000  1.0 0.4888654265
C  C131  1  0.46760000  0.55670000  0.56250000  1.0 0.4888654265
C  C132  1  0.03240000  0.05670000  0.43750000  1.0 0.4888654265
C  C133  1  0.66980000  0.43000000  0.41910000  1.0 0.4888654265
C  C134  1  0.83020000  0.93000000  0.58090000  1.0 0.4888654265
C  C135  1  0.33020000  0.57000000  0.58090000  1.0 0.4888654265
C  C136  1  0.16980000  0.07000000  0.41910000  1.0 0.4888654265
C  C137  1  0.73310000  0.49330000  0.36440000  1.0 0.2314930968
C  C138  1  0.76690000  0.99330000  0.63560000  1.0 0.2314930968
C  C139  1  0.26690000  0.50670000  0.63560000  1.0 0.2314930968
C  C140  1  0.23310000  0.00670000  0.36440000  1.0 0.2314930968
C  C141  1  0.69560000  0.54990000  0.36990000  1.0 -0.1383256238
C  C142  1  0.80440000  0.04990000  0.63010000  1.0 -0.1383256238
C  C143  1  0.30440000  0.45010000  0.63010000  1.0 -0.1383256238
C  C144  1  0.19560000  0.95010000  0.36990000  1.0 -0.1383256238
C  C145  1  0.69760000  0.59940000  0.34120000  1.0 -0.0822442938
C  C146  1  0.80240000  0.09940000  0.65880000  1.0 -0.0822442938
C  C147  1  0.30240000  0.40060000  0.65880000  1.0 -0.0822442938
C  C148  1  0.19760000  0.90060000  0.34120000  1.0 -0.0822442938
C  C149  1  0.74450000  0.59400000  0.30530000  1.0 -0.0098108844
C  C150  1  0.75550000  0.09400000  0.69470000  1.0 -0.0098108844
C  C151  1  0.25550000  0.40600000  0.69470000  1.0 -0.0098108844
C  C152  1  0.24450000  0.90600000  0.30530000  1.0 -0.0098108844
C  C153  1  0.78600000  0.53760000  0.29990000  1.0 -0.0901856463
C  C154  1  0.71400000  0.03760000  0.70010000  1.0 -0.0901856463
C  C155  1  0.21400000  0.46240000  0.70010000  1.0 -0.0901856463
C  C156  1  0.28600000  0.96240000  0.29990000  1.0 -0.0901856463
C  C157  1  0.77890000  0.48930000  0.32780000  1.0 -0.1383256238
C  C158  1  0.72110000  0.98930000  0.67220000  1.0 -0.1383256238
C  C159  1  0.22110000  0.51070000  0.67220000  1.0 -0.1383256238
C  C160  1  0.27890000  0.01070000  0.32780000  1.0 -0.1383256238
C  C161  1  0.40630000  0.51320000  0.39930000  1.0 0.255559938
C  C162  1  0.09370000  0.01320000  0.60070000  1.0 0.255559938
C  C163  1  0.59370000  0.48680000  0.60070000  1.0 0.255559938
C  C164  1  0.90630000  0.98680000  0.39930000  1.0 0.255559938
C  C165  1  0.43540000  0.53540000  0.36070000  1.0 -0.1383256238
C  C166  1  0.06460000  0.03540000  0.63930000  1.0 -0.1383256238
C  C167  1  0.56460000  0.46460000  0.63930000  1.0 -0.1383256238
C  C168  1  0.93540000  0.96460000  0.36070000  1.0 -0.1383256238
C  C169  1  0.38690000  0.58040000  0.33300000  1.0 -0.0989766264
C  C170  1  0.11310000  0.08040000  0.66700000  1.0 -0.0989766264
C  C171  1  0.61310000  0.41960000  0.66700000  1.0 -0.0989766264
C  C172  1  0.88690000  0.91960000  0.33300000  1.0 -0.0989766264
C  C173  1  0.30630000  0.60320000  0.34110000  1.0 -0.0098108844
C  C174  1  0.19370000  0.10320000  0.65890000  1.0 -0.0152761061
C  C175  1  0.69370000  0.39680000  0.65890000  1.0 -0.0098108844
C  C176  1  0.80630000  0.89680000  0.34110000  1.0 -0.0098108844
C  C177  1  0.27760000  0.58080000  0.37850000  1.0 -0.0901856463
C  C178  1  0.22240000  0.08080000  0.62150000  1.0 -0.0901856463
C  C179  1  0.72240000  0.41920000  0.62150000  1.0 -0.0901856463
C  C180  1  0.77760000  0.91920000  0.37850000  1.0 -0.0901856463
C  C181  1  0.32400000  0.53760000  0.40710000  1.0 -0.1205929816
C  C182  1  0.17600000  0.03760000  0.59290000  1.0 -0.1205929816
C  C183  1  0.67600000  0.46240000  0.59290000  1.0 -0.1205929816
C  C184  1  0.82400000  0.96240000  0.40710000  1.0 -0.1205929816
C  C185  1  0.25830000  0.65650000  0.31280000  1.0 0.6416457463
C  C186  1  0.24170000  0.15650000  0.68720000  1.0 0.6416457463
C  C187  1  0.74170000  0.34350000  0.68720000  1.0 0.6416457463
C  C188  1  0.75830000  0.84350000  0.31280000  1.0 0.6416457463
C  C189  1  0.75890000  0.64880000  0.27800000  1.0 0.5990885664
C  C190  1  0.74110000  0.14880000  0.72200000  1.0 0.5990885664
C  C191  1  0.24110000  0.35120000  0.72200000  1.0 0.5990885664
C  C192  1  0.25890000  0.85120000  0.27800000  1.0 0.5990885664
N  N1  1  0.86460000  0.83450000  0.01610000  1.0 -0.3882764815
N  N2  1  0.63540000  0.33450000  0.98390000  1.0 -0.3882764815
N  N3  1  0.13540000  0.16550000  0.98390000  1.0 -0.3882764815
N  N4  1  0.36460000  0.66550000  0.01610000  1.0 -0.3882764815
N  N5  1  0.98520000  0.97130000  0.92600000  1.0 -0.3686331381
N  N6  1  0.51480000  0.47130000  0.07400000  1.0 -0.3686331381
N  N7  1  0.01480000  0.02870000  0.07400000  1.0 -0.3686331381
N  N8  1  0.48520000  0.52870000  0.92600000  1.0 -0.3686331381
N  N9  1  0.66620000  0.94930000  0.90640000  1.0 -0.3300522101
N  N10  1  0.83380000  0.44930000  0.09360000  1.0 -0.3300522101
N  N11  1  0.33380000  0.05070000  0.09360000  1.0 -0.3300522101
N  N12  1  0.16620000  0.55070000  0.90640000  1.0 -0.3300522101
N  N13  1  0.76660000  0.89110000  0.96030000  1.0 -0.3965738695
N  N14  1  0.73340000  0.39110000  0.03970000  1.0 -0.3965738695
N  N15  1  0.23340000  0.10890000  0.03970000  1.0 -0.3965738695
N  N16  1  0.26660000  0.60890000  0.96030000  1.0 -0.3965738695
N  N17  1  0.82470000  0.96460000  0.91480000  1.0 -0.4502869975
N  N18  1  0.67530000  0.46460000  0.08520000  1.0 -0.4502869975
N  N19  1  0.17530000  0.03540000  0.08520000  1.0 -0.4502869975
N  N20  1  0.32470000  0.53540000  0.91480000  1.0 -0.4502869975
N  N21  1  0.92940000  0.90570000  0.97190000  1.0 -0.4266339187
N  N22  1  0.57060000  0.40570000  0.02810000  1.0 -0.4266339187
N  N23  1  0.07060000  0.09430000  0.02810000  1.0 -0.4266339187
N  N24  1  0.42940000  0.59430000  0.97190000  1.0 -0.4266339187
N  N25  1  0.65680000  0.32740000  0.50780000  1.0 -0.3882764815
N  N26  1  0.84320000  0.82740000  0.49220000  1.0 -0.3834488671
N  N27  1  0.34320000  0.67260000  0.49220000  1.0 -0.3882764815
N  N28  1  0.15680000  0.17260000  0.50780000  1.0 -0.3882764815
N  N29  1  0.69840000  0.38520000  0.45150000  1.0 -0.4128081482
N  N30  1  0.80160000  0.88520000  0.54850000  1.0 -0.4128081482
N  N31  1  0.30160000  0.61480000  0.54850000  1.0 -0.4128081482
N  N32  1  0.19840000  0.11480000  0.45150000  1.0 -0.4128081482
N  N33  1  0.73600000  0.44400000  0.39320000  1.0 -0.3220813778
N  N34  1  0.76400000  0.94400000  0.60680000  1.0 -0.3220813778
N  N35  1  0.26400000  0.55600000  0.60680000  1.0 -0.3220813778
N  N36  1  0.23600000  0.05600000  0.39320000  1.0 -0.3220813778
N  N37  1  0.58990000  0.45910000  0.41000000  1.0 -0.4680288043
N  N38  1  0.91010000  0.95910000  0.59000000  1.0 -0.4680288043
N  N39  1  0.41010000  0.54090000  0.59000000  1.0 -0.4680288043
N  N40  1  0.08990000  0.04090000  0.41000000  1.0 -0.4680288043
N  N41  1  0.55100000  0.40020000  0.46870000  1.0 -0.4266339187
N  N42  1  0.94900000  0.90020000  0.53130000  1.0 -0.4266339187
N  N43  1  0.44900000  0.59980000  0.53130000  1.0 -0.4266339187
N  N44  1  0.05100000  0.09980000  0.46870000  1.0 -0.4266339187
N  N45  1  0.44990000  0.47090000  0.43030000  1.0 -0.3686331381
N  N46  1  0.05010000  0.97090000  0.56970000  1.0 -0.3686331381
N  N47  1  0.55010000  0.52910000  0.56970000  1.0 -0.3686331381
N  N48  1  0.94990000  0.02910000  0.43030000  1.0 -0.3686331381
O  O1  1  0.15830000  0.73330000  0.19780000  1.0 -0.6782092036
O  O2  1  0.34170000  0.23330000  0.80220000  1.0 -0.6782092036
O  O3  1  0.84170000  0.26670000  0.80220000  1.0 -0.6782092036
O  O4  1  0.65830000  0.76670000  0.19780000  1.0 -0.6782092036
O  O5  1  0.24960000  0.77060000  0.15800000  1.0 -0.5971457046
O  O6  1  0.25040000  0.27060000  0.84200000  1.0 -0.5971457046
O  O7  1  0.75040000  0.22940000  0.84200000  1.0 -0.5971457046
O  O8  1  0.74960000  0.72940000  0.15800000  1.0 -0.5971457046
O  O9  1  0.11590000  0.17320000  0.79820000  1.0 -0.6782092036
O  O10  1  0.38410000  0.67320000  0.20180000  1.0 -0.6782092036
O  O11  1  0.88410000  0.82680000  0.20180000  1.0 -0.6782092036
O  O12  1  0.61590000  0.32680000  0.79820000  1.0 -0.6782092036
O  O13  1  0.96860000  0.17630000  0.76580000  1.0 -0.6682718527
O  O14  1  0.53140000  0.67630000  0.23420000  1.0 -0.6682718527
O  O15  1  0.03140000  0.82370000  0.23420000  1.0 -0.6682718527
O  O16  1  0.46860000  0.32370000  0.76580000  1.0 -0.6682718527
O  O17  1  0.54980000  0.19600000  0.78960000  1.0 -0.6782092036
O  O18  1  0.95020000  0.69600000  0.21040000  1.0 -0.6782092036
O  O19  1  0.45020000  0.80400000  0.21040000  1.0 -0.6782092036
O  O20  1  0.04980000  0.30400000  0.78960000  1.0 -0.6782092036
O  O21  1  0.44200000  0.13390000  0.75780000  1.0 -0.551736353
O  O22  1  0.05800000  0.63390000  0.24220000  1.0 -0.551736353
O  O23  1  0.55800000  0.86610000  0.24220000  1.0 -0.551736353
O  O24  1  0.94200000  0.36610000  0.75780000  1.0 -0.551736353
O  O25  1  0.55080000  0.23340000  0.69890000  1.0 -0.739027096
O  O26  1  0.94920000  0.73340000  0.30110000  1.0 -0.739027096
O  O27  1  0.44920000  0.76660000  0.30110000  1.0 -0.739027096
O  O28  1  0.05080000  0.26660000  0.69890000  1.0 -0.739027096
O  O29  1  0.42320000  0.27840000  0.66110000  1.0 -0.5596675557
O  O30  1  0.07680000  0.77840000  0.33890000  1.0 -0.5596675557
O  O31  1  0.57680000  0.72160000  0.33890000  1.0 -0.5596675557
O  O32  1  0.92320000  0.22160000  0.66110000  1.0 -0.5596675557
O  O33  1  0.28680000  0.67610000  0.27610000  1.0 -0.7779918891
O  O34  1  0.21320000  0.17610000  0.72390000  1.0 -0.7779918891
O  O35  1  0.71320000  0.32390000  0.72390000  1.0 -0.7779918891
O  O36  1  0.78680000  0.82390000  0.27610000  1.0 -0.7779918891
O  O37  1  0.18590000  0.67340000  0.32180000  1.0 -0.5803592783
O  O38  1  0.31410000  0.17340000  0.67820000  1.0 -0.5803592783
O  O39  1  0.81410000  0.32660000  0.67820000  1.0 -0.5803592783
O  O40  1  0.68590000  0.82660000  0.32180000  1.0 -0.5803592783
O  O41  1  0.72640000  0.69970000  0.28480000  1.0 -0.6969337743
O  O42  1  0.77360000  0.19970000  0.71520000  1.0 -0.6969337743
O  O43  1  0.27360000  0.30030000  0.71520000  1.0 -0.6969337743
O  O44  1  0.22640000  0.80030000  0.28480000  1.0 -0.6969337743
O  O45  1  0.79980000  0.64260000  0.24420000  1.0 -0.6237925273
O  O46  1  0.70020000  0.14260000  0.75580000  1.0 -0.6237925273
O  O47  1  0.20020000  0.35740000  0.75580000  1.0 -0.6237925273
O  O48  1  0.29980000  0.85740000  0.24420000  1.0 -0.6237925273
