# DDEC6 charges by PACMAN v1.1 (https://github.com/mtap-research/PACMAN-charge/)
data_IYUHEQ_FSR_pacman
_symmetry_space_group_name_H-M   'P 1'
_cell_length_a   12.36510000
_cell_length_b   12.36510000
_cell_length_c   37.48490000
_cell_angle_alpha   90.00000000
_cell_angle_beta   90.00000000
_cell_angle_gamma   120.00000000
_symmetry_Int_Tables_number   1
_chemical_formula_structural   In2H16C29N6O11
_chemical_formula_sum   'In12 H96 C174 N36 O66'
_cell_volume   4963.43403319
_cell_formula_units_Z   6
loop_
 _symmetry_equiv_pos_site_id
 _symmetry_equiv_pos_as_xyz
  1  'x, y, z'
loop_
 _atom_site_type_symbol
 _atom_site_label
 _atom_site_symmetry_multiplicity
 _atom_site_fract_x
 _atom_site_fract_y
 _atom_site_fract_z
 _atom_site_occupancy
 _atom_site_charge
In  In1  1  0.55072000  0.16662000  0.38057000  1.0 1.3317490016
In  In2  1  0.83338000  0.38410000  0.04724000  1.0 1.3317490016
In  In3  1  0.61590000  0.44928000  0.71390000  1.0 1.3317490016
In  In4  1  0.44928000  0.83338000  0.88057000  1.0 1.3317490016
In  In5  1  0.16662000  0.61590000  0.54724000  1.0 1.3317490016
In  In6  1  0.38410000  0.55072000  0.21390000  1.0 1.3317490016
In  In7  1  0.16662000  0.55072000  0.28610000  1.0 1.3317490016
In  In8  1  0.38410000  0.83338000  0.61943000  1.0 1.3317490016
In  In9  1  0.44928000  0.61590000  0.95276000  1.0 1.3317490016
In  In10  1  0.83338000  0.44928000  0.78610000  1.0 1.3317490016
In  In11  1  0.61590000  0.16662000  0.11943000  1.0 1.3317490016
In  In12  1  0.55072000  0.38410000  0.45276000  1.0 1.3317490016
H  H1  1  0.28560000  0.79850000  0.32900000  1.0 0.1120398196
H  H2  1  0.20150000  0.48710000  0.99567000  1.0 0.1120398196
H  H3  1  0.51290000  0.71440000  0.66233000  1.0 0.1120398196
H  H4  1  0.71440000  0.20150000  0.82900000  1.0 0.1120398196
H  H5  1  0.79850000  0.51290000  0.49567000  1.0 0.1120398196
H  H6  1  0.48710000  0.28560000  0.16233000  1.0 0.1120398196
H  H7  1  0.79850000  0.28560000  0.33767000  1.0 0.1120398196
H  H8  1  0.48710000  0.20150000  0.67100000  1.0 0.1120398196
H  H9  1  0.71440000  0.51290000  0.00433000  1.0 0.1120398196
H  H10  1  0.20150000  0.71440000  0.83767000  1.0 0.1120398196
H  H11  1  0.51290000  0.79850000  0.17100000  1.0 0.1120398196
H  H12  1  0.28560000  0.48710000  0.50433000  1.0 0.1120398196
H  H13  1  0.39910000  0.37850000  0.27620000  1.0 0.1360345776
H  H14  1  0.62150000  0.02060000  0.94287000  1.0 0.1360345776
H  H15  1  0.97940000  0.60090000  0.60953000  1.0 0.1360345776
H  H16  1  0.60090000  0.62150000  0.77620000  1.0 0.1360345776
H  H17  1  0.37850000  0.97940000  0.44287000  1.0 0.1360345776
H  H18  1  0.02060000  0.39910000  0.10953000  1.0 0.1360345776
H  H19  1  0.37850000  0.39910000  0.39047000  1.0 0.1360345776
H  H20  1  0.02060000  0.62150000  0.72380000  1.0 0.1360345776
H  H21  1  0.60090000  0.97940000  0.05713000  1.0 0.1360345776
H  H22  1  0.62150000  0.60090000  0.89047000  1.0 0.1360345776
H  H23  1  0.97940000  0.37850000  0.22380000  1.0 0.1360345776
H  H24  1  0.39910000  0.02060000  0.55713000  1.0 0.1360345776
H  H25  1  0.03690000  0.85250000  0.38280000  1.0 0.1323776339
H  H26  1  0.14750000  0.18440000  0.04947000  1.0 0.1323776339
H  H27  1  0.81560000  0.96310000  0.71613000  1.0 0.1323776339
H  H28  1  0.96310000  0.14750000  0.88280000  1.0 0.1323776339
H  H29  1  0.85250000  0.81560000  0.54947000  1.0 0.1323776339
H  H30  1  0.18440000  0.03690000  0.21613000  1.0 0.1323776339
H  H31  1  0.85250000  0.03690000  0.28387000  1.0 0.1323776339
H  H32  1  0.18440000  0.14750000  0.61720000  1.0 0.1323776339
H  H33  1  0.96310000  0.81560000  0.95053000  1.0 0.1323776339
H  H34  1  0.14750000  0.96310000  0.78387000  1.0 0.1323776339
H  H35  1  0.81560000  0.85250000  0.11720000  1.0 0.1323776339
H  H36  1  0.03690000  0.18440000  0.45053000  1.0 0.1323776339
H  H37  1  0.93270000  0.54650000  0.32350000  1.0 0.1120398196
H  H38  1  0.45350000  0.38620000  0.99017000  1.0 0.1120398196
H  H39  1  0.61380000  0.06730000  0.65683000  1.0 0.1120398196
H  H40  1  0.06730000  0.45350000  0.82350000  1.0 0.1120398196
H  H41  1  0.54650000  0.61380000  0.49017000  1.0 0.1120398196
H  H42  1  0.38620000  0.93270000  0.15683000  1.0 0.1120398196
H  H43  1  0.54650000  0.93270000  0.34317000  1.0 0.1120398196
H  H44  1  0.38620000  0.45350000  0.67650000  1.0 0.1120398196
H  H45  1  0.06730000  0.61380000  0.00983000  1.0 0.1120398196
H  H46  1  0.45350000  0.06730000  0.84317000  1.0 0.1120398196
H  H47  1  0.61380000  0.54650000  0.17650000  1.0 0.1120398196
H  H48  1  0.93270000  0.38620000  0.50983000  1.0 0.1120398196
H  H49  1  0.66010000  0.71220000  0.24610000  1.0 0.1019842604
H  H50  1  0.28780000  0.94790000  0.91277000  1.0 0.1019842604
H  H51  1  0.05210000  0.33990000  0.57943000  1.0 0.1019842604
H  H52  1  0.33990000  0.28780000  0.74610000  1.0 0.1019842604
H  H53  1  0.71220000  0.05210000  0.41277000  1.0 0.1019842604
H  H54  1  0.94790000  0.66010000  0.07943000  1.0 0.1019842604
H  H55  1  0.71220000  0.66010000  0.42057000  1.0 0.1019842604
H  H56  1  0.94790000  0.28780000  0.75390000  1.0 0.1019842604
H  H57  1  0.33990000  0.05210000  0.08723000  1.0 0.1019842604
H  H58  1  0.28780000  0.33990000  0.92057000  1.0 0.1019842604
H  H59  1  0.05210000  0.71220000  0.25390000  1.0 0.1019842604
H  H60  1  0.66010000  0.94790000  0.58723000  1.0 0.1019842604
H  H61  1  0.73360000  0.53240000  0.32230000  1.0 0.1120398196
H  H62  1  0.46760000  0.20120000  0.98897000  1.0 0.1120398196
H  H63  1  0.79880000  0.26640000  0.65563000  1.0 0.1120398196
H  H64  1  0.26640000  0.46760000  0.82230000  1.0 0.1120398196
H  H65  1  0.53240000  0.79880000  0.48897000  1.0 0.1120398196
H  H66  1  0.20120000  0.73360000  0.15563000  1.0 0.1120398196
H  H67  1  0.53240000  0.73360000  0.34437000  1.0 0.1120398196
H  H68  1  0.20120000  0.46760000  0.67770000  1.0 0.1120398196
H  H69  1  0.26640000  0.79880000  0.01103000  1.0 0.1120398196
H  H70  1  0.46760000  0.26640000  0.84437000  1.0 0.1120398196
H  H71  1  0.79880000  0.53240000  0.17770000  1.0 0.1120398196
H  H72  1  0.73360000  0.20120000  0.51103000  1.0 0.1120398196
H  H73  1  0.79580000  0.70490000  0.28670000  1.0 0.1247209007
H  H74  1  0.29510000  0.09090000  0.95337000  1.0 0.1247209007
H  H75  1  0.90910000  0.20420000  0.62003000  1.0 0.1247209007
H  H76  1  0.20420000  0.29510000  0.78670000  1.0 0.1247209007
H  H77  1  0.70490000  0.90910000  0.45337000  1.0 0.1247209007
H  H78  1  0.09090000  0.79580000  0.12003000  1.0 0.1247209007
H  H79  1  0.70490000  0.79580000  0.37997000  1.0 0.1247209007
H  H80  1  0.09090000  0.29510000  0.71330000  1.0 0.1247209007
H  H81  1  0.20420000  0.90910000  0.04663000  1.0 0.1247209007
H  H82  1  0.29510000  0.20420000  0.87997000  1.0 0.1247209007
H  H83  1  0.90910000  0.70490000  0.21330000  1.0 0.1247209007
H  H84  1  0.79580000  0.09090000  0.54663000  1.0 0.1247209007
H  H85  1  0.87970000  0.65530000  0.36220000  1.0 0.1323776339
H  H86  1  0.34470000  0.22440000  0.02887000  1.0 0.1323776339
H  H87  1  0.77560000  0.12030000  0.69553000  1.0 0.1323776339
H  H88  1  0.12030000  0.34470000  0.86220000  1.0 0.1323776339
H  H89  1  0.65530000  0.77560000  0.52887000  1.0 0.1323776339
H  H90  1  0.22440000  0.87970000  0.19553000  1.0 0.1323776339
H  H91  1  0.65530000  0.87970000  0.30447000  1.0 0.1323776339
H  H92  1  0.22440000  0.34470000  0.63780000  1.0 0.1323776339
H  H93  1  0.12030000  0.77560000  0.97113000  1.0 0.1323776339
H  H94  1  0.34470000  0.12030000  0.80447000  1.0 0.1323776339
H  H95  1  0.77560000  0.65530000  0.13780000  1.0 0.1323776339
H  H96  1  0.87970000  0.22440000  0.47113000  1.0 0.1323776339
C  C1  1  0.20320000  0.77180000  0.33510000  1.0 0.0785914924
C  C2  1  0.22820000  0.43140000  0.00177000  1.0 0.0785914924
C  C3  1  0.56860000  0.79680000  0.66843000  1.0 0.0785914924
C  C4  1  0.79680000  0.22820000  0.83510000  1.0 0.0785914924
C  C5  1  0.77180000  0.56860000  0.50177000  1.0 0.0785914924
C  C6  1  0.43140000  0.20320000  0.16843000  1.0 0.0785914924
C  C7  1  0.77180000  0.20320000  0.33157000  1.0 0.0785914924
C  C8  1  0.43140000  0.22820000  0.66490000  1.0 0.0785914924
C  C9  1  0.79680000  0.56860000  0.99823000  1.0 0.0785914924
C  C10  1  0.22820000  0.79680000  0.83157000  1.0 0.0785914924
C  C11  1  0.56860000  0.77180000  0.16490000  1.0 0.0785914924
C  C12  1  0.20320000  0.43140000  0.49823000  1.0 0.0785914924
C  C13  1  0.48040000  0.44510000  0.27820000  1.0 0.0785914924
C  C14  1  0.55490000  0.03530000  0.94487000  1.0 0.0785914924
C  C15  1  0.96470000  0.51960000  0.61153000  1.0 0.0785914924
C  C16  1  0.51960000  0.55490000  0.77820000  1.0 0.0785914924
C  C17  1  0.44510000  0.96470000  0.44487000  1.0 0.0785914924
C  C18  1  0.03530000  0.48040000  0.11153000  1.0 0.0785914924
C  C19  1  0.44510000  0.48040000  0.38847000  1.0 0.0785914924
C  C20  1  0.03530000  0.55490000  0.72180000  1.0 0.0785914924
C  C21  1  0.51960000  0.96470000  0.05513000  1.0 0.0785914924
C  C22  1  0.55490000  0.51960000  0.88847000  1.0 0.0785914924
C  C23  1  0.96470000  0.44510000  0.22180000  1.0 0.0785914924
C  C24  1  0.48040000  0.03530000  0.55513000  1.0 0.0785914924
C  C25  1  0.55760000  0.43660000  0.30310000  1.0 -0.0513455349
C  C26  1  0.56340000  0.12100000  0.96977000  1.0 -0.0513455349
C  C27  1  0.87900000  0.44240000  0.63643000  1.0 -0.0513455349
C  C28  1  0.44240000  0.56340000  0.80310000  1.0 -0.0513455349
C  C29  1  0.43660000  0.87900000  0.46977000  1.0 -0.0513455349
C  C30  1  0.12100000  0.55760000  0.13643000  1.0 -0.0513455349
C  C31  1  0.43660000  0.55760000  0.36357000  1.0 -0.0513455349
C  C32  1  0.12100000  0.56340000  0.69690000  1.0 -0.0513455349
C  C33  1  0.44240000  0.87900000  0.03023000  1.0 -0.0513455349
C  C34  1  0.56340000  0.44240000  0.86357000  1.0 -0.0513455349
C  C35  1  0.87900000  0.43660000  0.19690000  1.0 -0.0513455349
C  C36  1  0.55760000  0.12100000  0.53023000  1.0 -0.0513455349
C  C37  1  0.05690000  0.80510000  0.36780000  1.0 -0.0513455349
C  C38  1  0.19490000  0.25180000  0.03447000  1.0 -0.0513455349
C  C39  1  0.74820000  0.94310000  0.70113000  1.0 -0.0513455349
C  C40  1  0.94310000  0.19490000  0.86780000  1.0 -0.0513455349
C  C41  1  0.80510000  0.74820000  0.53447000  1.0 -0.0513455349
C  C42  1  0.25180000  0.05690000  0.20113000  1.0 -0.0513455349
C  C43  1  0.80510000  0.05690000  0.29887000  1.0 -0.0513455349
C  C44  1  0.25180000  0.19490000  0.63220000  1.0 -0.0513455349
C  C45  1  0.94310000  0.74820000  0.96553000  1.0 -0.0513455349
C  C46  1  0.19490000  0.94310000  0.79887000  1.0 -0.0513455349
C  C47  1  0.74820000  0.80510000  0.13220000  1.0 -0.0513455349
C  C48  1  0.05690000  0.25180000  0.46553000  1.0 -0.0513455349
C  C49  1  0.50760000  0.32240000  0.32790000  1.0 0.5519555603
C  C50  1  0.67760000  0.18520000  0.99457000  1.0 0.5519555603
C  C51  1  0.81480000  0.49240000  0.66123000  1.0 0.5519555603
C  C52  1  0.49240000  0.67760000  0.82790000  1.0 0.5519555603
C  C53  1  0.32240000  0.81480000  0.49457000  1.0 0.5519555603
C  C54  1  0.18520000  0.50760000  0.16123000  1.0 0.5519555603
C  C55  1  0.32240000  0.50760000  0.33877000  1.0 0.5519555603
C  C56  1  0.18520000  0.67760000  0.67210000  1.0 0.5519555603
C  C57  1  0.49240000  0.81480000  0.00543000  1.0 0.5519555603
C  C58  1  0.67760000  0.49240000  0.83877000  1.0 0.5519555603
C  C59  1  0.81480000  0.32240000  0.17210000  1.0 0.5519555603
C  C60  1  0.50760000  0.18520000  0.50543000  1.0 0.5519555603
C  C61  1  0.99510000  0.62240000  0.33240000  1.0 0.0559767722
C  C62  1  0.37760000  0.37270000  0.99907000  1.0 0.0559767722
C  C63  1  0.62730000  0.00490000  0.66573000  1.0 0.0559767722
C  C64  1  0.00490000  0.37760000  0.83240000  1.0 0.0559767722
C  C65  1  0.62240000  0.62730000  0.49907000  1.0 0.0559767722
C  C66  1  0.37270000  0.99510000  0.16573000  1.0 0.0559767722
C  C67  1  0.62240000  0.99510000  0.33427000  1.0 0.0559767722
C  C68  1  0.37270000  0.37760000  0.66760000  1.0 0.0559767722
C  C69  1  0.00490000  0.62730000  0.00093000  1.0 0.0559767722
C  C70  1  0.37760000  0.00490000  0.83427000  1.0 0.0559767722
C  C71  1  0.62730000  0.62240000  0.16760000  1.0 0.0559767722
C  C72  1  0.99510000  0.37270000  0.50093000  1.0 0.0559767722
C  C73  1  0.79160000  0.39580000  0.41667000  1.0 0.6213457579
C  C74  1  0.60420000  0.39580000  0.08333000  1.0 0.6213457579
C  C75  1  0.60420000  0.20840000  0.75000000  1.0 0.6213457579
C  C76  1  0.20840000  0.60420000  0.91667000  1.0 0.6213457579
C  C77  1  0.39580000  0.60420000  0.58333000  1.0 0.6213457579
C  C78  1  0.39580000  0.79160000  0.25000000  1.0 0.6213457579
C  C79  1  0.63370000  0.64170000  0.26030000  1.0 0.0494842235
C  C80  1  0.35830000  0.99200000  0.92697000  1.0 0.0494842235
C  C81  1  0.00800000  0.36630000  0.59363000  1.0 0.0494842235
C  C82  1  0.36630000  0.35830000  0.76030000  1.0 0.0494842235
C  C83  1  0.64170000  0.00800000  0.42697000  1.0 0.0494842235
C  C84  1  0.99200000  0.63370000  0.09363000  1.0 0.0494842235
C  C85  1  0.64170000  0.63370000  0.40637000  1.0 0.0494842235
C  C86  1  0.99200000  0.35830000  0.73970000  1.0 0.0494842235
C  C87  1  0.36630000  0.00800000  0.07303000  1.0 0.0494842235
C  C88  1  0.35830000  0.36630000  0.90637000  1.0 0.0494842235
C  C89  1  0.00800000  0.64170000  0.23970000  1.0 0.0494842235
C  C90  1  0.63370000  0.99200000  0.57303000  1.0 0.0494842235
C  C91  1  0.67830000  0.53540000  0.30610000  1.0 -0.0678256693
C  C92  1  0.46460000  0.14290000  0.97277000  1.0 -0.0678256693
C  C93  1  0.85710000  0.32170000  0.63943000  1.0 -0.0678256693
C  C94  1  0.32170000  0.46460000  0.80610000  1.0 -0.0678256693
C  C95  1  0.53540000  0.85710000  0.47277000  1.0 -0.0678256693
C  C96  1  0.14290000  0.67830000  0.13943000  1.0 -0.0678256693
C  C97  1  0.53540000  0.67830000  0.36057000  1.0 -0.0678256693
C  C98  1  0.14290000  0.46460000  0.69390000  1.0 -0.0678256693
C  C99  1  0.32170000  0.85710000  0.02723000  1.0 -0.0678256693
C  C100  1  0.46460000  0.32170000  0.86057000  1.0 -0.0678256693
C  C101  1  0.85710000  0.53540000  0.19390000  1.0 -0.0678256693
C  C102  1  0.67830000  0.14290000  0.52723000  1.0 -0.0678256693
C  C103  1  0.71510000  0.63750000  0.28470000  1.0 -0.1525189838
C  C104  1  0.36250000  0.07760000  0.95137000  1.0 -0.1525189838
C  C105  1  0.92240000  0.28490000  0.61803000  1.0 -0.1525189838
C  C106  1  0.28490000  0.36250000  0.78470000  1.0 -0.1525189838
C  C107  1  0.63750000  0.92240000  0.45137000  1.0 -0.1525189838
C  C108  1  0.07760000  0.71510000  0.11803000  1.0 -0.1525189838
C  C109  1  0.63750000  0.71510000  0.38197000  1.0 -0.1525189838
C  C110  1  0.07760000  0.36250000  0.71530000  1.0 -0.1525189838
C  C111  1  0.28490000  0.92240000  0.04863000  1.0 -0.1525189838
C  C112  1  0.36250000  0.28490000  0.88197000  1.0 -0.1525189838
C  C113  1  0.92240000  0.63750000  0.21530000  1.0 -0.1525189838
C  C114  1  0.71510000  0.07760000  0.54863000  1.0 -0.1525189838
C  C115  1  0.28240000  0.96980000  0.37210000  1.0 0.5635087236
C  C116  1  0.03020000  0.31260000  0.03877000  1.0 0.5635087236
C  C117  1  0.68740000  0.71760000  0.70543000  1.0 0.5635087236
C  C118  1  0.71760000  0.03020000  0.87210000  1.0 0.5635087236
C  C119  1  0.96980000  0.68740000  0.53877000  1.0 0.5635087236
C  C120  1  0.31260000  0.28240000  0.20543000  1.0 0.5635087236
C  C121  1  0.96980000  0.28240000  0.29457000  1.0 0.5635087236
C  C122  1  0.31260000  0.03020000  0.62790000  1.0 0.5635087236
C  C123  1  0.71760000  0.68740000  0.96123000  1.0 0.5635087236
C  C124  1  0.03020000  0.71760000  0.79457000  1.0 0.5635087236
C  C125  1  0.68740000  0.96980000  0.12790000  1.0 0.5635087236
C  C126  1  0.28240000  0.31260000  0.46123000  1.0 0.5635087236
C  C127  1  0.96230000  0.68750000  0.35520000  1.0 -0.1525189838
C  C128  1  0.31250000  0.27480000  0.02187000  1.0 -0.1525189838
C  C129  1  0.72520000  0.03770000  0.68853000  1.0 -0.1525189838
C  C130  1  0.03770000  0.31250000  0.85520000  1.0 -0.1525189838
C  C131  1  0.68750000  0.72520000  0.52187000  1.0 -0.1525189838
C  C132  1  0.27480000  0.96230000  0.18853000  1.0 -0.1525189838
C  C133  1  0.68750000  0.96230000  0.31147000  1.0 -0.1525189838
C  C134  1  0.27480000  0.31250000  0.64480000  1.0 -0.1525189838
C  C135  1  0.03770000  0.72520000  0.97813000  1.0 -0.1525189838
C  C136  1  0.31250000  0.03770000  0.81147000  1.0 -0.1525189838
C  C137  1  0.72520000  0.68750000  0.14480000  1.0 -0.1525189838
C  C138  1  0.96230000  0.27480000  0.47813000  1.0 -0.1525189838
C  C139  1  0.99550000  0.41020000  0.40170000  1.0 0.1019842604
C  C140  1  0.58980000  0.58530000  0.06837000  1.0 0.1019842604
C  C141  1  0.41470000  0.00450000  0.73503000  1.0 0.1019842604
C  C142  1  0.00450000  0.58980000  0.90170000  1.0 0.1019842604
C  C143  1  0.41020000  0.41470000  0.56837000  1.0 0.1019842604
C  C144  1  0.58530000  0.99550000  0.23503000  1.0 0.1019842604
C  C145  1  0.41020000  0.99550000  0.26497000  1.0 0.1019842604
C  C146  1  0.58530000  0.58980000  0.59830000  1.0 0.1019842604
C  C147  1  0.00450000  0.41470000  0.93163000  1.0 0.1019842604
C  C148  1  0.58980000  0.00450000  0.76497000  1.0 0.1019842604
C  C149  1  0.41470000  0.41020000  0.09830000  1.0 0.1019842604
C  C150  1  0.99550000  0.58530000  0.43163000  1.0 0.1019842604
C  C151  1  0.18760000  0.59380000  0.41667000  1.0 0.1829720606
C  C152  1  0.40620000  0.59380000  0.08333000  1.0 0.1829720606
C  C153  1  0.40620000  0.81240000  0.75000000  1.0 0.1829720606
C  C154  1  0.81240000  0.40620000  0.91667000  1.0 0.1829720606
C  C155  1  0.59380000  0.40620000  0.58333000  1.0 0.1829720606
C  C156  1  0.59380000  0.18760000  0.25000000  1.0 0.1829720606
C  C157  1  0.93020000  0.46510000  0.41667000  1.0 -0.1791730529
C  C158  1  0.53490000  0.46510000  0.08333000  1.0 -0.1791730529
C  C159  1  0.53490000  0.06980000  0.75000000  1.0 -0.1791730529
C  C160  1  0.06980000  0.53490000  0.91667000  1.0 -0.1791730529
C  C161  1  0.46510000  0.53490000  0.58333000  1.0 -0.1791730529
C  C162  1  0.46510000  0.93020000  0.25000000  1.0 -0.1791730529
C  C163  1  0.17780000  0.84790000  0.35770000  1.0 -0.0513455349
C  C164  1  0.15210000  0.32990000  0.02437000  1.0 -0.0513455349
C  C165  1  0.67010000  0.82220000  0.69103000  1.0 -0.0513455349
C  C166  1  0.82220000  0.15210000  0.85770000  1.0 -0.0513455349
C  C167  1  0.84790000  0.67010000  0.52437000  1.0 -0.0513455349
C  C168  1  0.32990000  0.17780000  0.19103000  1.0 -0.0513455349
C  C169  1  0.84790000  0.17780000  0.30897000  1.0 -0.0513455349
C  C170  1  0.32990000  0.15210000  0.64230000  1.0 -0.0513455349
C  C171  1  0.82220000  0.67010000  0.97563000  1.0 -0.0513455349
C  C172  1  0.15210000  0.82220000  0.80897000  1.0 -0.0513455349
C  C173  1  0.67010000  0.84790000  0.14230000  1.0 -0.0513455349
C  C174  1  0.17780000  0.32990000  0.47563000  1.0 -0.0513455349
N  N1  1  0.51580000  0.54430000  0.25672000  1.0 -0.2429022894
N  N2  1  0.45570000  0.97150000  0.92339000  1.0 -0.2429022894
N  N3  1  0.02850000  0.48420000  0.59005000  1.0 -0.2429022894
N  N4  1  0.48420000  0.45570000  0.75672000  1.0 -0.2429022894
N  N5  1  0.54430000  0.02850000  0.42339000  1.0 -0.2429022894
N  N6  1  0.97150000  0.51580000  0.09005000  1.0 -0.2429022894
N  N7  1  0.54430000  0.51580000  0.40995000  1.0 -0.2429022894
N  N8  1  0.97150000  0.45570000  0.74328000  1.0 -0.2429022894
N  N9  1  0.48420000  0.02850000  0.07661000  1.0 -0.2429022894
N  N10  1  0.45570000  0.48420000  0.90995000  1.0 -0.2429022894
N  N11  1  0.02850000  0.54430000  0.24328000  1.0 -0.2429022894
N  N12  1  0.51580000  0.97150000  0.57661000  1.0 -0.2429022894
N  N13  1  0.12360000  0.47620000  0.40200000  1.0 -0.1391215914
N  N14  1  0.52380000  0.64740000  0.06867000  1.0 -0.1391215914
N  N15  1  0.35260000  0.87640000  0.73533000  1.0 -0.1391215914
N  N16  1  0.87640000  0.52380000  0.90200000  1.0 -0.1391215914
N  N17  1  0.47620000  0.35260000  0.56867000  1.0 -0.1391215914
N  N18  1  0.64740000  0.12360000  0.23533000  1.0 -0.1391215914
N  N19  1  0.47620000  0.12360000  0.26467000  1.0 -0.1391215914
N  N20  1  0.64740000  0.52380000  0.59800000  1.0 -0.1391215914
N  N21  1  0.87640000  0.35260000  0.93133000  1.0 -0.1391215914
N  N22  1  0.52380000  0.87640000  0.76467000  1.0 -0.1391215914
N  N23  1  0.35260000  0.47620000  0.09800000  1.0 -0.1391215914
N  N24  1  0.12360000  0.64740000  0.43133000  1.0 -0.1391215914
N  N25  1  0.11380000  0.66390000  0.32247000  1.0 -0.2479761472
N  N26  1  0.33610000  0.44990000  0.98914000  1.0 -0.2479761472
N  N27  1  0.55010000  0.88620000  0.65580000  1.0 -0.2479761472
N  N28  1  0.88620000  0.33610000  0.82247000  1.0 -0.2479761472
N  N29  1  0.66390000  0.55010000  0.48914000  1.0 -0.2479761472
N  N30  1  0.44990000  0.11380000  0.15580000  1.0 -0.2479761472
N  N31  1  0.66390000  0.11380000  0.34420000  1.0 -0.2479761472
N  N32  1  0.44990000  0.33610000  0.67753000  1.0 -0.2479761472
N  N33  1  0.88620000  0.55010000  0.01086000  1.0 -0.2479761472
N  N34  1  0.33610000  0.88620000  0.84420000  1.0 -0.2479761472
N  N35  1  0.55010000  0.66390000  0.17753000  1.0 -0.2479761472
N  N36  1  0.11380000  0.44990000  0.51086000  1.0 -0.2479761472
O  O1  1  0.59630000  0.31130000  0.34311000  1.0 -0.5839065229
O  O2  1  0.68870000  0.28500000  0.00978000  1.0 -0.5839065229
O  O3  1  0.71500000  0.40370000  0.67644000  1.0 -0.5839065229
O  O4  1  0.40370000  0.68870000  0.84311000  1.0 -0.5839065229
O  O5  1  0.31130000  0.71500000  0.50978000  1.0 -0.5839065229
O  O6  1  0.28500000  0.59630000  0.17644000  1.0 -0.5839065229
O  O7  1  0.31130000  0.59630000  0.32356000  1.0 -0.5839065229
O  O8  1  0.28500000  0.68870000  0.65689000  1.0 -0.5839065229
O  O9  1  0.40370000  0.71500000  0.99022000  1.0 -0.5839065229
O  O10  1  0.68870000  0.40370000  0.82356000  1.0 -0.5839065229
O  O11  1  0.71500000  0.31130000  0.15689000  1.0 -0.5839065229
O  O12  1  0.59630000  0.28500000  0.49022000  1.0 -0.5839065229
O  O13  1  0.39090000  0.00330000  0.35981000  1.0 -0.5850196486
O  O14  1  0.99670000  0.38760000  0.02648000  1.0 -0.5839065229
O  O15  1  0.61240000  0.60910000  0.69314000  1.0 -0.5839065229
O  O16  1  0.60910000  0.99670000  0.85981000  1.0 -0.5850196486
O  O17  1  0.00330000  0.61240000  0.52648000  1.0 -0.5839065229
O  O18  1  0.38760000  0.39090000  0.19314000  1.0 -0.5839065229
O  O19  1  0.00330000  0.39090000  0.30686000  1.0 -0.5839065229
O  O20  1  0.38760000  0.99670000  0.64019000  1.0 -0.5850196486
O  O21  1  0.60910000  0.61240000  0.97352000  1.0 -0.5850196486
O  O22  1  0.99670000  0.60910000  0.80686000  1.0 -0.5839065229
O  O23  1  0.61240000  0.00330000  0.14019000  1.0 -0.5839065229
O  O24  1  0.39090000  0.38760000  0.47352000  1.0 -0.5839065229
O  O25  1  0.47510000  0.23755000  0.41667000  1.0 -0.699835897
O  O26  1  0.76245000  0.23755000  0.08333000  1.0 -0.699835897
O  O27  1  0.76245000  0.52490000  0.75000000  1.0 -0.699835897
O  O28  1  0.52490000  0.76245000  0.91667000  1.0 -0.699835897
O  O29  1  0.23755000  0.76245000  0.58333000  1.0 -0.699835897
O  O30  1  0.23755000  0.47510000  0.25000000  1.0 -0.699835897
O  O31  1  0.39730000  0.25330000  0.33268000  1.0 -0.4423161825
O  O32  1  0.74670000  0.14400000  0.99935000  1.0 -0.4423161825
O  O33  1  0.85600000  0.60270000  0.66601000  1.0 -0.4423161825
O  O34  1  0.60270000  0.74670000  0.83268000  1.0 -0.4423161825
O  O35  1  0.25330000  0.85600000  0.49935000  1.0 -0.4423161825
O  O36  1  0.14400000  0.39730000  0.16601000  1.0 -0.4423161825
O  O37  1  0.25330000  0.39730000  0.33399000  1.0 -0.4423161825
O  O38  1  0.14400000  0.74670000  0.66732000  1.0 -0.4423161825
O  O39  1  0.60270000  0.85600000  0.00065000  1.0 -0.4423161825
O  O40  1  0.74670000  0.60270000  0.83399000  1.0 -0.4423161825
O  O41  1  0.85600000  0.25330000  0.16732000  1.0 -0.4423161825
O  O42  1  0.39730000  0.14400000  0.50065000  1.0 -0.4423161825
O  O43  1  0.25730000  0.02750000  0.39410000  1.0 -0.4197579926
O  O44  1  0.97250000  0.22980000  0.06077000  1.0 -0.4197579926
O  O45  1  0.77020000  0.74270000  0.72743000  1.0 -0.4197579926
O  O46  1  0.74270000  0.97250000  0.89410000  1.0 -0.4197579926
O  O47  1  0.02750000  0.77020000  0.56077000  1.0 -0.4197579926
O  O48  1  0.22980000  0.25730000  0.22743000  1.0 -0.4197579926
O  O49  1  0.02750000  0.25730000  0.27257000  1.0 -0.4197579926
O  O50  1  0.22980000  0.97250000  0.60590000  1.0 -0.4197579926
O  O51  1  0.74270000  0.77020000  0.93923000  1.0 -0.4197579926
O  O52  1  0.97250000  0.74270000  0.77257000  1.0 -0.4197579926
O  O53  1  0.77020000  0.02750000  0.10590000  1.0 -0.4197579926
O  O54  1  0.25730000  0.22980000  0.43923000  1.0 -0.4197579926
O  O55  1  0.73690000  0.28670000  0.40349000  1.0 -0.5509518937
O  O56  1  0.71330000  0.45020000  0.07016000  1.0 -0.5509518937
O  O57  1  0.54980000  0.26310000  0.73682000  1.0 -0.5509518937
O  O58  1  0.26310000  0.71330000  0.90349000  1.0 -0.5509518937
O  O59  1  0.28670000  0.54980000  0.57016000  1.0 -0.5509518937
O  O60  1  0.45020000  0.73690000  0.23682000  1.0 -0.5509518937
O  O61  1  0.28670000  0.73690000  0.26318000  1.0 -0.5509518937
O  O62  1  0.45020000  0.71330000  0.59651000  1.0 -0.5509518937
O  O63  1  0.26310000  0.54980000  0.92984000  1.0 -0.5509518937
O  O64  1  0.71330000  0.26310000  0.76318000  1.0 -0.5509518937
O  O65  1  0.54980000  0.28670000  0.09651000  1.0 -0.5509518937
O  O66  1  0.73690000  0.45020000  0.42984000  1.0 -0.5509518937
