# DDEC6 charges by PACMAN v1.1 (https://github.com/mtap-research/PACMAN-charge/)
data_IYUHUG_FSR_pacman
_symmetry_space_group_name_H-M   'P 1'
_cell_length_a   22.13860000
_cell_length_b   22.13860000
_cell_length_c   36.26510000
_cell_angle_alpha   90.00000000
_cell_angle_beta   90.00000000
_cell_angle_gamma   90.00000000
_symmetry_Int_Tables_number   1
_chemical_formula_structural   In2H16C29O12
_chemical_formula_sum   'In24 H192 C348 O144'
_cell_volume   17774.16413696
_cell_formula_units_Z   12
loop_
 _symmetry_equiv_pos_site_id
 _symmetry_equiv_pos_as_xyz
  1  'x, y, z'
loop_
 _atom_site_type_symbol
 _atom_site_label
 _atom_site_symmetry_multiplicity
 _atom_site_fract_x
 _atom_site_fract_y
 _atom_site_fract_z
 _atom_site_occupancy
 _atom_site_charge
In  In1  1  0.21220000  0.50032000  0.64871000  1.0 1.5091252506
In  In2  1  0.78780000  0.49968000  0.14871000  1.0 1.5091252506
In  In3  1  0.99968000  0.71220000  0.39871000  1.0 1.5091252506
In  In4  1  0.00032000  0.28780000  0.89871000  1.0 1.5091252506
In  In5  1  0.28780000  0.00032000  0.10129000  1.0 1.5091252506
In  In6  1  0.71220000  0.99968000  0.60129000  1.0 1.5091252506
In  In7  1  0.50032000  0.21220000  0.35129000  1.0 1.5091252506
In  In8  1  0.49968000  0.78780000  0.85129000  1.0 1.5091252506
In  In9  1  0.15218000  0.49698000  0.73888000  1.0 1.5228772193
In  In10  1  0.84782000  0.50302000  0.23888000  1.0 1.5228772193
In  In11  1  0.00302000  0.65218000  0.48888000  1.0 1.5228772193
In  In12  1  0.99698000  0.34782000  0.98888000  1.0 1.5228772193
In  In13  1  0.34782000  0.99698000  0.01112000  1.0 1.5228772193
In  In14  1  0.65218000  0.00302000  0.51112000  1.0 1.5228772193
In  In15  1  0.49698000  0.15218000  0.26112000  1.0 1.5228772193
In  In16  1  0.50302000  0.84782000  0.76112000  1.0 1.5228772193
In  In17  1  0.80848000  0.99104000  0.52323000  1.0 1.5359932214
In  In18  1  0.19152000  0.00896000  0.02323000  1.0 1.5359932214
In  In19  1  0.50896000  0.30848000  0.27323000  1.0 1.5359932214
In  In20  1  0.49104000  0.69152000  0.77323000  1.0 1.5359932214
In  In21  1  0.69152000  0.49104000  0.22677000  1.0 1.5359932214
In  In22  1  0.30848000  0.50896000  0.72677000  1.0 1.5359932214
In  In23  1  0.99104000  0.80848000  0.47677000  1.0 1.5359932214
In  In24  1  0.00896000  0.19152000  0.97677000  1.0 1.5359932214
H  H1  1  0.05900000  0.61930000  0.61240000  1.0 0.1193758041
H  H2  1  0.94100000  0.38070000  0.11240000  1.0 0.1193758041
H  H3  1  0.88070000  0.55900000  0.36240000  1.0 0.1193758041
H  H4  1  0.11930000  0.44100000  0.86240000  1.0 0.1193758041
H  H5  1  0.44100000  0.11930000  0.13760000  1.0 0.1193758041
H  H6  1  0.55900000  0.88070000  0.63760000  1.0 0.1193758041
H  H7  1  0.61930000  0.05900000  0.38760000  1.0 0.1193758041
H  H8  1  0.38070000  0.94100000  0.88760000  1.0 0.1193758041
H  H9  1  0.98990000  0.68950000  0.59820000  1.0 0.1295220225
H  H10  1  0.01010000  0.31050000  0.09820000  1.0 0.1295220225
H  H11  1  0.81050000  0.48990000  0.34820000  1.0 0.1295220225
H  H12  1  0.18950000  0.51010000  0.84820000  1.0 0.1295220225
H  H13  1  0.51010000  0.18950000  0.15180000  1.0 0.1295220225
H  H14  1  0.48990000  0.81050000  0.65180000  1.0 0.1295220225
H  H15  1  0.68950000  0.98990000  0.40180000  1.0 0.1295220225
H  H16  1  0.31050000  0.01010000  0.90180000  1.0 0.1295220225
H  H17  1  0.97600000  0.73520000  0.70420000  1.0 0.1295220225
H  H18  1  0.02400000  0.26480000  0.20420000  1.0 0.1295220225
H  H19  1  0.76480000  0.47600000  0.45420000  1.0 0.1295220225
H  H20  1  0.23520000  0.52400000  0.95420000  1.0 0.1295220225
H  H21  1  0.52400000  0.23520000  0.04580000  1.0 0.1295220225
H  H22  1  0.47600000  0.76480000  0.54580000  1.0 0.1295220225
H  H23  1  0.73520000  0.97600000  0.29580000  1.0 0.1295220225
H  H24  1  0.26480000  0.02400000  0.79580000  1.0 0.1295220225
H  H25  1  0.03990000  0.65800000  0.71950000  1.0 0.1383665985
H  H26  1  0.96010000  0.34200000  0.21950000  1.0 0.1383665985
H  H27  1  0.84200000  0.53990000  0.46950000  1.0 0.1383665985
H  H28  1  0.15800000  0.46010000  0.96950000  1.0 0.1383665985
H  H29  1  0.46010000  0.15800000  0.03050000  1.0 0.1383665985
H  H30  1  0.53990000  0.84200000  0.53050000  1.0 0.1383665985
H  H31  1  0.65800000  0.03990000  0.28050000  1.0 0.1383665985
H  H32  1  0.34200000  0.96010000  0.78050000  1.0 0.1383665985
H  H33  1  0.98640000  0.79820000  0.59350000  1.0 0.1295220225
H  H34  1  0.01360000  0.20180000  0.09350000  1.0 0.1295220225
H  H35  1  0.70180000  0.48640000  0.34350000  1.0 0.1295220225
H  H36  1  0.29820000  0.51360000  0.84350000  1.0 0.1295220225
H  H37  1  0.51360000  0.29820000  0.15650000  1.0 0.1295220225
H  H38  1  0.48640000  0.70180000  0.65650000  1.0 0.1295220225
H  H39  1  0.79820000  0.98640000  0.40650000  1.0 0.1295220225
H  H40  1  0.20180000  0.01360000  0.90650000  1.0 0.1295220225
H  H41  1  0.92470000  0.87450000  0.57470000  1.0 0.1295220225
H  H42  1  0.07530000  0.12550000  0.07470000  1.0 0.1295220225
H  H43  1  0.62550000  0.42470000  0.32470000  1.0 0.1295220225
H  H44  1  0.37450000  0.57530000  0.82470000  1.0 0.1295220225
H  H45  1  0.57530000  0.37450000  0.17530000  1.0 0.1295220225
H  H46  1  0.42470000  0.62550000  0.67530000  1.0 0.1295220225
H  H47  1  0.87450000  0.92470000  0.42530000  1.0 0.1295220225
H  H48  1  0.12550000  0.07530000  0.92530000  1.0 0.1295220225
H  H49  1  0.81710000  0.84700000  0.66070000  1.0 0.1295220225
H  H50  1  0.18290000  0.15300000  0.16070000  1.0 0.1295220225
H  H51  1  0.65300000  0.31710000  0.41070000  1.0 0.1295220225
H  H52  1  0.34700000  0.68290000  0.91070000  1.0 0.1295220225
H  H53  1  0.68290000  0.34700000  0.08930000  1.0 0.1295220225
H  H54  1  0.31710000  0.65300000  0.58930000  1.0 0.1295220225
H  H55  1  0.84700000  0.81710000  0.33930000  1.0 0.1295220225
H  H56  1  0.15300000  0.18290000  0.83930000  1.0 0.1295220225
H  H57  1  0.87400000  0.76880000  0.67920000  1.0 0.1295220225
H  H58  1  0.12600000  0.23120000  0.17920000  1.0 0.1295220225
H  H59  1  0.73120000  0.37400000  0.42920000  1.0 0.1295220225
H  H60  1  0.26880000  0.62600000  0.92920000  1.0 0.1295220225
H  H61  1  0.62600000  0.26880000  0.07080000  1.0 0.1295220225
H  H62  1  0.37400000  0.73120000  0.57080000  1.0 0.1295220225
H  H63  1  0.76880000  0.87400000  0.32080000  1.0 0.1295220225
H  H64  1  0.23120000  0.12600000  0.82080000  1.0 0.1295220225
H  H65  1  0.31110000  0.68870000  0.78110000  1.0 0.1193758041
H  H66  1  0.68890000  0.31130000  0.28110000  1.0 0.1193758041
H  H67  1  0.81130000  0.81110000  0.53110000  1.0 0.1193758041
H  H68  1  0.18870000  0.18890000  0.03110000  1.0 0.1193758041
H  H69  1  0.18890000  0.18870000  0.96890000  1.0 0.1193758041
H  H70  1  0.81110000  0.81130000  0.46890000  1.0 0.1193758041
H  H71  1  0.68870000  0.31110000  0.21890000  1.0 0.1193758041
H  H72  1  0.31130000  0.68890000  0.71890000  1.0 0.1193758041
H  H73  1  0.30970000  0.77360000  0.81980000  1.0 0.1295220225
H  H74  1  0.69030000  0.22640000  0.31980000  1.0 0.1295220225
H  H75  1  0.72640000  0.80970000  0.56980000  1.0 0.1295220225
H  H76  1  0.27360000  0.19030000  0.06980000  1.0 0.1295220225
H  H77  1  0.19030000  0.27360000  0.93020000  1.0 0.1295220225
H  H78  1  0.80970000  0.72640000  0.43020000  1.0 0.1295220225
H  H79  1  0.77360000  0.30970000  0.18020000  1.0 0.1295220225
H  H80  1  0.22640000  0.69030000  0.68020000  1.0 0.1295220225
H  H81  1  0.14770000  0.72280000  0.85930000  1.0 0.1193758041
H  H82  1  0.85230000  0.27720000  0.35930000  1.0 0.1193758041
H  H83  1  0.77720000  0.64770000  0.60930000  1.0 0.1193758041
H  H84  1  0.22280000  0.35230000  0.10930000  1.0 0.1193758041
H  H85  1  0.35230000  0.22280000  0.89070000  1.0 0.1193758041
H  H86  1  0.64770000  0.77720000  0.39070000  1.0 0.1193758041
H  H87  1  0.72280000  0.14770000  0.14070000  1.0 0.1193758041
H  H88  1  0.27720000  0.85230000  0.64070000  1.0 0.1193758041
H  H89  1  0.15030000  0.63620000  0.82200000  1.0 0.1295220225
H  H90  1  0.84970000  0.36380000  0.32200000  1.0 0.1295220225
H  H91  1  0.86380000  0.65030000  0.57200000  1.0 0.1295220225
H  H92  1  0.13620000  0.34970000  0.07200000  1.0 0.1295220225
H  H93  1  0.34970000  0.13620000  0.92800000  1.0 0.1295220225
H  H94  1  0.65030000  0.86380000  0.42800000  1.0 0.1295220225
H  H95  1  0.63620000  0.15030000  0.17800000  1.0 0.1295220225
H  H96  1  0.36380000  0.84970000  0.67800000  1.0 0.1295220225
H  H97  1  0.14810000  0.82530000  0.87660000  1.0 0.1295220225
H  H98  1  0.85190000  0.17470000  0.37660000  1.0 0.1295220225
H  H99  1  0.67470000  0.64810000  0.62660000  1.0 0.1295220225
H  H100  1  0.32530000  0.35190000  0.12660000  1.0 0.1295220225
H  H101  1  0.35190000  0.32530000  0.87340000  1.0 0.1295220225
H  H102  1  0.64810000  0.67470000  0.37340000  1.0 0.1295220225
H  H103  1  0.82530000  0.14810000  0.12340000  1.0 0.1295220225
H  H104  1  0.17470000  0.85190000  0.62340000  1.0 0.1295220225
H  H105  1  0.15490000  0.89330000  0.92460000  1.0 0.1295220225
H  H106  1  0.84510000  0.10670000  0.42460000  1.0 0.1295220225
H  H107  1  0.60670000  0.65490000  0.67460000  1.0 0.1295220225
H  H108  1  0.39330000  0.34510000  0.17460000  1.0 0.1295220225
H  H109  1  0.34510000  0.39330000  0.82540000  1.0 0.1295220225
H  H110  1  0.65490000  0.60670000  0.32540000  1.0 0.1295220225
H  H111  1  0.89330000  0.15490000  0.07540000  1.0 0.1295220225
H  H112  1  0.10670000  0.84510000  0.57540000  1.0 0.1295220225
H  H113  1  0.33333333  0.85390000  0.93320000  1.0 0.1193758041
H  H114  1  0.66666667  0.14610000  0.43320000  1.0 0.1193758041
H  H115  1  0.64610000  0.83333000  0.68320000  1.0 0.1193758041
H  H116  1  0.35390000  0.16667000  0.18320000  1.0 0.1193758041
H  H117  1  0.16667000  0.35390000  0.81680000  1.0 0.1193758041
H  H118  1  0.83333000  0.64610000  0.31680000  1.0 0.1193758041
H  H119  1  0.85390000  0.33333333  0.06680000  1.0 0.1193758041
H  H120  1  0.14610000  0.66666667  0.56680000  1.0 0.1193758041
H  H121  1  0.32530000  0.79310000  0.88090000  1.0 0.1295220225
H  H122  1  0.67470000  0.20690000  0.38090000  1.0 0.1295220225
H  H123  1  0.70690000  0.82530000  0.63090000  1.0 0.1295220225
H  H124  1  0.29310000  0.17470000  0.13090000  1.0 0.1295220225
H  H125  1  0.17470000  0.29310000  0.86910000  1.0 0.1295220225
H  H126  1  0.82530000  0.70690000  0.36910000  1.0 0.1295220225
H  H127  1  0.79310000  0.32530000  0.11910000  1.0 0.1295220225
H  H128  1  0.20690000  0.67470000  0.61910000  1.0 0.1295220225
H  H129  1  0.09280000  0.35800000  0.61060000  1.0 0.1383665985
H  H130  1  0.90720000  0.64200000  0.11060000  1.0 0.1383665985
H  H131  1  0.14200000  0.59280000  0.36060000  1.0 0.1383665985
H  H132  1  0.85800000  0.40720000  0.86060000  1.0 0.1383665985
H  H133  1  0.40720000  0.85800000  0.13940000  1.0 0.1383665985
H  H134  1  0.59280000  0.14200000  0.63940000  1.0 0.1383665985
H  H135  1  0.35800000  0.09280000  0.38940000  1.0 0.1383665985
H  H136  1  0.64200000  0.90720000  0.88940000  1.0 0.1383665985
H  H137  1  0.02430000  0.28200000  0.59410000  1.0 0.1193758041
H  H138  1  0.97570000  0.71800000  0.09410000  1.0 0.1193758041
H  H139  1  0.21800000  0.52430000  0.34410000  1.0 0.1193758041
H  H140  1  0.78200000  0.47570000  0.84410000  1.0 0.1193758041
H  H141  1  0.47570000  0.78200000  0.15590000  1.0 0.1193758041
H  H142  1  0.52430000  0.21800000  0.65590000  1.0 0.1193758041
H  H143  1  0.28200000  0.02430000  0.40590000  1.0 0.1193758041
H  H144  1  0.71800000  0.97570000  0.90590000  1.0 0.1193758041
H  H145  1  0.95900000  0.27510000  0.69320000  1.0 0.1193758041
H  H146  1  0.04100000  0.72490000  0.19320000  1.0 0.1193758041
H  H147  1  0.22490000  0.45900000  0.44320000  1.0 0.1193758041
H  H148  1  0.77510000  0.54100000  0.94320000  1.0 0.1193758041
H  H149  1  0.54100000  0.77510000  0.05680000  1.0 0.1193758041
H  H150  1  0.45900000  0.22490000  0.55680000  1.0 0.1193758041
H  H151  1  0.27510000  0.95900000  0.30680000  1.0 0.1193758041
H  H152  1  0.72490000  0.04100000  0.80680000  1.0 0.1193758041
H  H153  1  0.02780000  0.34900000  0.71180000  1.0 0.1295220225
H  H154  1  0.97220000  0.65100000  0.21180000  1.0 0.1295220225
H  H155  1  0.15100000  0.52780000  0.46180000  1.0 0.1295220225
H  H156  1  0.84900000  0.47220000  0.96180000  1.0 0.1295220225
H  H157  1  0.47220000  0.84900000  0.03820000  1.0 0.1295220225
H  H158  1  0.52780000  0.15100000  0.53820000  1.0 0.1295220225
H  H159  1  0.34900000  0.02780000  0.28820000  1.0 0.1295220225
H  H160  1  0.65100000  0.97220000  0.78820000  1.0 0.1295220225
H  H161  1  0.97560000  0.21980000  0.57590000  1.0 0.1193758041
H  H162  1  0.02440000  0.78020000  0.07590000  1.0 0.1193758041
H  H163  1  0.28020000  0.47560000  0.32590000  1.0 0.1193758041
H  H164  1  0.71980000  0.52440000  0.82590000  1.0 0.1193758041
H  H165  1  0.52440000  0.71980000  0.17410000  1.0 0.1193758041
H  H166  1  0.47560000  0.28020000  0.67410000  1.0 0.1193758041
H  H167  1  0.21980000  0.97560000  0.42410000  1.0 0.1193758041
H  H168  1  0.78020000  0.02440000  0.92410000  1.0 0.1193758041
H  H169  1  0.92100000  0.13800000  0.55860000  1.0 0.1383665985
H  H170  1  0.07900000  0.86200000  0.05860000  1.0 0.1383665985
H  H171  1  0.36200000  0.42100000  0.30860000  1.0 0.1383665985
H  H172  1  0.63800000  0.57900000  0.80860000  1.0 0.1383665985
H  H173  1  0.57900000  0.63800000  0.19140000  1.0 0.1383665985
H  H174  1  0.42100000  0.36200000  0.69140000  1.0 0.1383665985
H  H175  1  0.13800000  0.92100000  0.44140000  1.0 0.1383665985
H  H176  1  0.86200000  0.07900000  0.94140000  1.0 0.1383665985
H  H177  1  0.83610000  0.13470000  0.65300000  1.0 0.1295220225
H  H178  1  0.16390000  0.86530000  0.15300000  1.0 0.1295220225
H  H179  1  0.36530000  0.33610000  0.40300000  1.0 0.1295220225
H  H180  1  0.63470000  0.66390000  0.90300000  1.0 0.1295220225
H  H181  1  0.66390000  0.63470000  0.09700000  1.0 0.1295220225
H  H182  1  0.33610000  0.36530000  0.59700000  1.0 0.1295220225
H  H183  1  0.13470000  0.83610000  0.34700000  1.0 0.1295220225
H  H184  1  0.86530000  0.16390000  0.84700000  1.0 0.1295220225
H  H185  1  0.90380000  0.20760000  0.67510000  1.0 0.1193758041
H  H186  1  0.09620000  0.79240000  0.17510000  1.0 0.1193758041
H  H187  1  0.29240000  0.40380000  0.42510000  1.0 0.1193758041
H  H188  1  0.70760000  0.59620000  0.92510000  1.0 0.1193758041
H  H189  1  0.59620000  0.70760000  0.07490000  1.0 0.1193758041
H  H190  1  0.40380000  0.29240000  0.57490000  1.0 0.1193758041
H  H191  1  0.20760000  0.90380000  0.32490000  1.0 0.1193758041
H  H192  1  0.79240000  0.09620000  0.82490000  1.0 0.1193758041
C  C1  1  0.10310000  0.58270000  0.67820000  1.0 0.6018845469
C  C2  1  0.89690000  0.41730000  0.17820000  1.0 0.6018845469
C  C3  1  0.91730000  0.60310000  0.42820000  1.0 0.6018845469
C  C4  1  0.08270000  0.39690000  0.92820000  1.0 0.6018845469
C  C5  1  0.39690000  0.08270000  0.07180000  1.0 0.6018845469
C  C6  1  0.60310000  0.91730000  0.57180000  1.0 0.6018845469
C  C7  1  0.58270000  0.10310000  0.32180000  1.0 0.6018845469
C  C8  1  0.41730000  0.89690000  0.82180000  1.0 0.6018845469
C  C9  1  0.05770000  0.63080000  0.66850000  1.0 -0.0120434581
C  C10  1  0.94230000  0.36920000  0.16850000  1.0 -0.0120434581
C  C11  1  0.86920000  0.55770000  0.41850000  1.0 -0.0120434581
C  C12  1  0.13080000  0.44230000  0.91850000  1.0 -0.0120434581
C  C13  1  0.44230000  0.13080000  0.08150000  1.0 -0.0120434581
C  C14  1  0.55770000  0.86920000  0.58150000  1.0 -0.0120434581
C  C15  1  0.63080000  0.05770000  0.33150000  1.0 -0.0120434581
C  C16  1  0.36920000  0.94230000  0.83150000  1.0 -0.0120434581
C  C17  1  0.04140000  0.64210000  0.63100000  1.0 -0.078773172
C  C18  1  0.95860000  0.35790000  0.13100000  1.0 -0.078773172
C  C19  1  0.85790000  0.54140000  0.38100000  1.0 -0.078773172
C  C20  1  0.14210000  0.45860000  0.88100000  1.0 -0.078773172
C  C21  1  0.45860000  0.14210000  0.11900000  1.0 -0.078773172
C  C22  1  0.54140000  0.85790000  0.61900000  1.0 -0.078773172
C  C23  1  0.64210000  0.04140000  0.36900000  1.0 -0.078773172
C  C24  1  0.35790000  0.95860000  0.86900000  1.0 -0.078773172
C  C25  1  0.00190000  0.68440000  0.62250000  1.0 -0.1202106018
C  C26  1  0.99810000  0.31560000  0.12250000  1.0 -0.1202106018
C  C27  1  0.81560000  0.50190000  0.37250000  1.0 -0.1202106018
C  C28  1  0.18440000  0.49810000  0.87250000  1.0 -0.1202106018
C  C29  1  0.49810000  0.18440000  0.12750000  1.0 -0.1202106018
C  C30  1  0.50190000  0.81560000  0.62750000  1.0 -0.1202106018
C  C31  1  0.68440000  0.00190000  0.37750000  1.0 -0.1202106018
C  C32  1  0.31560000  0.99810000  0.87750000  1.0 -0.1202106018
C  C33  1  0.97830000  0.72140000  0.64980000  1.0 0.0731664255
C  C34  1  0.02170000  0.27860000  0.14980000  1.0 0.0731664255
C  C35  1  0.77860000  0.47830000  0.39980000  1.0 0.0731664255
C  C36  1  0.22140000  0.52170000  0.89980000  1.0 0.0731664255
C  C37  1  0.52170000  0.22140000  0.10020000  1.0 0.0731664255
C  C38  1  0.47830000  0.77860000  0.60020000  1.0 0.0731664255
C  C39  1  0.72140000  0.97830000  0.35020000  1.0 0.0731664255
C  C40  1  0.27860000  0.02170000  0.85020000  1.0 0.0731664255
C  C41  1  0.99260000  0.71110000  0.68580000  1.0 -0.1392810257
C  C42  1  0.00740000  0.28890000  0.18580000  1.0 -0.1392810257
C  C43  1  0.78890000  0.49260000  0.43580000  1.0 -0.1321912688
C  C44  1  0.21110000  0.50740000  0.93580000  1.0 -0.1392810257
C  C45  1  0.50740000  0.21110000  0.06420000  1.0 -0.1392810257
C  C46  1  0.49260000  0.78890000  0.56420000  1.0 -0.1392810257
C  C47  1  0.71110000  0.99260000  0.31420000  1.0 -0.1392810257
C  C48  1  0.28890000  0.00740000  0.81420000  1.0 -0.1392810257
C  C49  1  0.03140000  0.66540000  0.69480000  1.0 -0.0889693859
C  C50  1  0.96860000  0.33460000  0.19480000  1.0 -0.0889693859
C  C51  1  0.83460000  0.53140000  0.44480000  1.0 -0.0889693859
C  C52  1  0.16540000  0.46860000  0.94480000  1.0 -0.0889693859
C  C53  1  0.46860000  0.16540000  0.05520000  1.0 -0.0889693859
C  C54  1  0.53140000  0.83460000  0.55520000  1.0 -0.0889693859
C  C55  1  0.66540000  0.03140000  0.30520000  1.0 -0.0889693859
C  C56  1  0.33460000  0.96860000  0.80520000  1.0 -0.0889693859
C  C57  1  0.82220000  0.91380000  0.59880000  1.0 0.6018845469
C  C58  1  0.17780000  0.08620000  0.09880000  1.0 0.6018845469
C  C59  1  0.58620000  0.32220000  0.34880000  1.0 0.6018845469
C  C60  1  0.41380000  0.67780000  0.84880000  1.0 0.6018845469
C  C61  1  0.67780000  0.41380000  0.15120000  1.0 0.6018845469
C  C62  1  0.32220000  0.58620000  0.65120000  1.0 0.6018845469
C  C63  1  0.91380000  0.82220000  0.40120000  1.0 0.6018845469
C  C64  1  0.08620000  0.17780000  0.90120000  1.0 0.6018845469
C  C65  1  0.95160000  0.80710000  0.60670000  1.0 -0.1321912688
C  C66  1  0.04840000  0.19290000  0.10670000  1.0 -0.1321912688
C  C67  1  0.69290000  0.45160000  0.35670000  1.0 -0.1321912688
C  C68  1  0.30710000  0.54840000  0.85670000  1.0 -0.1321912688
C  C69  1  0.54840000  0.30710000  0.14330000  1.0 -0.1321912688
C  C70  1  0.45160000  0.69290000  0.64330000  1.0 -0.1321912688
C  C71  1  0.80710000  0.95160000  0.39330000  1.0 -0.1321912688
C  C72  1  0.19290000  0.04840000  0.89330000  1.0 -0.1321912688
C  C73  1  0.91470000  0.85230000  0.59560000  1.0 -0.078773172
C  C74  1  0.08530000  0.14770000  0.09560000  1.0 -0.078773172
C  C75  1  0.64770000  0.41470000  0.34560000  1.0 -0.078773172
C  C76  1  0.35230000  0.58530000  0.84560000  1.0 -0.078773172
C  C77  1  0.58530000  0.35230000  0.15440000  1.0 -0.078773172
C  C78  1  0.41470000  0.64770000  0.65440000  1.0 -0.078773172
C  C79  1  0.85230000  0.91470000  0.40440000  1.0 -0.078773172
C  C80  1  0.14770000  0.08530000  0.90440000  1.0 -0.078773172
C  C81  1  0.86310000  0.86580000  0.61450000  1.0 -0.030318691
C  C82  1  0.13690000  0.13420000  0.11450000  1.0 -0.030318691
C  C83  1  0.63420000  0.36310000  0.36450000  1.0 -0.030318691
C  C84  1  0.36580000  0.63690000  0.86450000  1.0 -0.030318691
C  C85  1  0.63690000  0.36580000  0.13550000  1.0 -0.030318691
C  C86  1  0.36310000  0.63420000  0.63550000  1.0 -0.030318691
C  C87  1  0.86580000  0.86310000  0.38550000  1.0 -0.030318691
C  C88  1  0.13420000  0.13690000  0.88550000  1.0 -0.030318691
C  C89  1  0.85030000  0.83540000  0.64670000  1.0 -0.078773172
C  C90  1  0.14970000  0.16460000  0.14670000  1.0 -0.078773172
C  C91  1  0.66460000  0.35030000  0.39670000  1.0 -0.078773172
C  C92  1  0.33540000  0.64970000  0.89670000  1.0 -0.078773172
C  C93  1  0.64970000  0.33540000  0.10330000  1.0 -0.078773172
C  C94  1  0.35030000  0.66460000  0.60330000  1.0 -0.078773172
C  C95  1  0.83540000  0.85030000  0.35330000  1.0 -0.078773172
C  C96  1  0.16460000  0.14970000  0.85330000  1.0 -0.078773172
C  C97  1  0.88460000  0.79000000  0.65800000  1.0 -0.1392810257
C  C98  1  0.11540000  0.21000000  0.15800000  1.0 -0.1392810257
C  C99  1  0.71000000  0.38460000  0.40800000  1.0 -0.1392810257
C  C100  1  0.29000000  0.61540000  0.90800000  1.0 -0.1392810257
C  C101  1  0.61540000  0.29000000  0.09200000  1.0 -0.1392810257
C  C102  1  0.38460000  0.71000000  0.59200000  1.0 -0.1392810257
C  C103  1  0.79000000  0.88460000  0.34200000  1.0 -0.1392810257
C  C104  1  0.21000000  0.11540000  0.84200000  1.0 -0.1392810257
C  C105  1  0.93710000  0.77350000  0.63820000  1.0 0.0897782167
C  C106  1  0.06290000  0.22650000  0.13820000  1.0 0.0897782167
C  C107  1  0.72650000  0.43710000  0.38820000  1.0 0.0897782167
C  C108  1  0.27350000  0.56290000  0.88820000  1.0 0.0897782167
C  C109  1  0.56290000  0.27350000  0.11180000  1.0 0.0897782167
C  C110  1  0.43710000  0.72650000  0.61180000  1.0 0.0897782167
C  C111  1  0.77350000  0.93710000  0.36180000  1.0 0.0897782167
C  C112  1  0.22650000  0.06290000  0.86180000  1.0 0.0897782167
C  C113  1  0.23310000  0.59910000  0.77480000  1.0 0.6018845469
C  C114  1  0.76690000  0.40090000  0.27480000  1.0 0.6018845469
C  C115  1  0.90090000  0.73310000  0.52480000  1.0 0.6018845469
C  C116  1  0.09910000  0.26690000  0.02480000  1.0 0.6018845469
C  C117  1  0.26690000  0.09910000  0.97520000  1.0 0.6018845469
C  C118  1  0.73310000  0.90090000  0.47520000  1.0 0.6018845469
C  C119  1  0.59910000  0.23310000  0.22520000  1.0 0.6018845469
C  C120  1  0.40090000  0.76690000  0.72520000  1.0 0.6018845469
C  C121  1  0.23150000  0.65490000  0.79800000  1.0 -0.030318691
C  C122  1  0.76850000  0.34510000  0.29800000  1.0 -0.030318691
C  C123  1  0.84510000  0.73150000  0.54800000  1.0 -0.030318691
C  C124  1  0.15490000  0.26850000  0.04800000  1.0 -0.030318691
C  C125  1  0.26850000  0.15490000  0.95200000  1.0 -0.030318691
C  C126  1  0.73150000  0.84510000  0.45200000  1.0 -0.030318691
C  C127  1  0.65490000  0.23150000  0.20200000  1.0 -0.030318691
C  C128  1  0.34510000  0.76850000  0.70200000  1.0 -0.030318691
C  C129  1  0.27890000  0.69500000  0.79710000  1.0 -0.0889693859
C  C130  1  0.72110000  0.30500000  0.29710000  1.0 -0.0889693859
C  C131  1  0.80500000  0.77890000  0.54710000  1.0 -0.0889693859
C  C132  1  0.19500000  0.22110000  0.04710000  1.0 -0.0889693859
C  C133  1  0.22110000  0.19500000  0.95290000  1.0 -0.0889693859
C  C134  1  0.77890000  0.80500000  0.45290000  1.0 -0.0889693859
C  C135  1  0.69500000  0.27890000  0.20290000  1.0 -0.0889693859
C  C136  1  0.30500000  0.72110000  0.70290000  1.0 -0.0889693859
C  C137  1  0.27820000  0.74570000  0.82070000  1.0 -0.1321912688
C  C138  1  0.72180000  0.25430000  0.32070000  1.0 -0.1321912688
C  C139  1  0.75430000  0.77820000  0.57070000  1.0 -0.1321912688
C  C140  1  0.24570000  0.22180000  0.07070000  1.0 -0.1321912688
C  C141  1  0.22180000  0.24570000  0.92930000  1.0 -0.1321912688
C  C142  1  0.77820000  0.75430000  0.42930000  1.0 -0.1321912688
C  C143  1  0.74570000  0.27820000  0.17930000  1.0 -0.1321912688
C  C144  1  0.25430000  0.72180000  0.67930000  1.0 -0.1321912688
C  C145  1  0.23120000  0.75430000  0.84510000  1.0 0.0795203654
C  C146  1  0.76880000  0.24570000  0.34510000  1.0 0.0795203654
C  C147  1  0.74570000  0.73120000  0.59510000  1.0 0.0795203654
C  C148  1  0.25430000  0.26880000  0.09510000  1.0 0.0795203654
C  C149  1  0.26880000  0.25430000  0.90490000  1.0 0.0795203654
C  C150  1  0.73120000  0.74570000  0.40490000  1.0 0.0795203654
C  C151  1  0.75430000  0.23120000  0.15490000  1.0 0.0795203654
C  C152  1  0.24570000  0.76880000  0.65490000  1.0 0.0795203654
C  C153  1  0.18110000  0.71490000  0.84460000  1.0 -0.1587824372
C  C154  1  0.81890000  0.28510000  0.34460000  1.0 -0.1587824372
C  C155  1  0.78510000  0.68110000  0.59460000  1.0 -0.1587824372
C  C156  1  0.21490000  0.31890000  0.09460000  1.0 -0.1587824372
C  C157  1  0.31890000  0.21490000  0.90540000  1.0 -0.1587824372
C  C158  1  0.68110000  0.78510000  0.40540000  1.0 -0.1587824372
C  C159  1  0.71490000  0.18110000  0.15540000  1.0 -0.1587824372
C  C160  1  0.28510000  0.81890000  0.65540000  1.0 -0.1587824372
C  C161  1  0.18210000  0.66370000  0.82160000  1.0 -0.0889693859
C  C162  1  0.81790000  0.33630000  0.32160000  1.0 -0.0889693859
C  C163  1  0.83630000  0.68210000  0.57160000  1.0 -0.0889693859
C  C164  1  0.16370000  0.31790000  0.07160000  1.0 -0.0889693859
C  C165  1  0.31790000  0.16370000  0.92840000  1.0 -0.0889693859
C  C166  1  0.68210000  0.83630000  0.42840000  1.0 -0.0889693859
C  C167  1  0.66370000  0.18210000  0.17840000  1.0 -0.0889693859
C  C168  1  0.33630000  0.81790000  0.67840000  1.0 -0.0889693859
C  C169  1  0.23550000  0.79990000  0.87520000  1.0 0.0795203654
C  C170  1  0.76450000  0.20010000  0.37520000  1.0 0.0795203654
C  C171  1  0.70010000  0.73550000  0.62520000  1.0 0.0795203654
C  C172  1  0.29990000  0.26450000  0.12520000  1.0 0.0795203654
C  C173  1  0.26450000  0.29990000  0.87480000  1.0 0.0795203654
C  C174  1  0.73550000  0.70010000  0.37480000  1.0 0.0795203654
C  C175  1  0.79990000  0.23550000  0.12480000  1.0 0.0795203654
C  C176  1  0.20010000  0.76450000  0.62480000  1.0 0.0795203654
C  C177  1  0.18530000  0.83180000  0.88780000  1.0 -0.1485691339
C  C178  1  0.81470000  0.16820000  0.38780000  1.0 -0.1485691339
C  C179  1  0.66820000  0.68530000  0.63780000  1.0 -0.1485691339
C  C180  1  0.33180000  0.31470000  0.13780000  1.0 -0.1485691339
C  C181  1  0.31470000  0.33180000  0.86220000  1.0 -0.1485691339
C  C182  1  0.68530000  0.66820000  0.36220000  1.0 -0.1485691339
C  C183  1  0.83180000  0.18530000  0.11220000  1.0 -0.1485691339
C  C184  1  0.16820000  0.81470000  0.61220000  1.0 -0.1485691339
C  C185  1  0.18900000  0.87260000  0.91650000  1.0 -0.0889693859
C  C186  1  0.81100000  0.12740000  0.41650000  1.0 -0.0889693859
C  C187  1  0.62740000  0.68900000  0.66650000  1.0 -0.0889693859
C  C188  1  0.37260000  0.31100000  0.16650000  1.0 -0.0889693859
C  C189  1  0.31100000  0.37260000  0.83350000  1.0 -0.0889693859
C  C190  1  0.68900000  0.62740000  0.33350000  1.0 -0.0889693859
C  C191  1  0.87260000  0.18900000  0.08350000  1.0 -0.0889693859
C  C192  1  0.12740000  0.81100000  0.58350000  1.0 -0.0889693859
C  C193  1  0.24450000  0.88200000  0.93270000  1.0 -0.030318691
C  C194  1  0.75550000  0.11800000  0.43270000  1.0 -0.030318691
C  C195  1  0.61800000  0.74450000  0.68270000  1.0 -0.030318691
C  C196  1  0.38200000  0.25550000  0.18270000  1.0 -0.030318691
C  C197  1  0.25550000  0.38200000  0.81730000  1.0 -0.030318691
C  C198  1  0.74450000  0.61800000  0.31730000  1.0 -0.030318691
C  C199  1  0.88200000  0.24450000  0.06730000  1.0 -0.030318691
C  C200  1  0.11800000  0.75550000  0.56730000  1.0 -0.030318691
C  C201  1  0.29660000  0.84960000  0.92100000  1.0 -0.0889693859
C  C202  1  0.70340000  0.15040000  0.42100000  1.0 -0.0889693859
C  C203  1  0.65040000  0.79660000  0.67100000  1.0 -0.0889693859
C  C204  1  0.34960000  0.20340000  0.17100000  1.0 -0.0889693859
C  C205  1  0.20340000  0.34960000  0.82900000  1.0 -0.0889693859
C  C206  1  0.79660000  0.65040000  0.32900000  1.0 -0.0889693859
C  C207  1  0.84960000  0.29660000  0.07900000  1.0 -0.0889693859
C  C208  1  0.15040000  0.70340000  0.57900000  1.0 -0.0889693859
C  C209  1  0.29100000  0.81120000  0.89070000  1.0 -0.1321912688
C  C210  1  0.70900000  0.18880000  0.39070000  1.0 -0.1321912688
C  C211  1  0.68880000  0.79100000  0.64070000  1.0 -0.1321912688
C  C212  1  0.31120000  0.20900000  0.14070000  1.0 -0.1321912688
C  C213  1  0.20900000  0.31120000  0.85930000  1.0 -0.1321912688
C  C214  1  0.79100000  0.68880000  0.35930000  1.0 -0.1321912688
C  C215  1  0.81120000  0.29100000  0.10930000  1.0 -0.1321912688
C  C216  1  0.18880000  0.70900000  0.60930000  1.0 -0.1321912688
C  C217  1  0.25290000  0.92450000  0.96490000  1.0 0.6110336065
C  C218  1  0.74710000  0.07550000  0.46490000  1.0 0.6110336065
C  C219  1  0.57550000  0.75290000  0.71490000  1.0 0.6110336065
C  C220  1  0.42450000  0.24710000  0.21490000  1.0 0.6110336065
C  C221  1  0.24710000  0.42450000  0.78510000  1.0 0.6110336065
C  C222  1  0.75290000  0.57550000  0.28510000  1.0 0.6110336065
C  C223  1  0.92450000  0.25290000  0.03510000  1.0 0.6110336065
C  C224  1  0.07550000  0.74710000  0.53510000  1.0 0.6110336065
C  C225  1  0.11030000  0.40810000  0.67540000  1.0 0.6192110806
C  C226  1  0.88970000  0.59190000  0.17540000  1.0 0.6192110806
C  C227  1  0.09190000  0.61030000  0.42540000  1.0 0.6192110806
C  C228  1  0.90810000  0.38970000  0.92540000  1.0 0.6192110806
C  C229  1  0.38970000  0.90810000  0.07460000  1.0 0.6192110806
C  C230  1  0.61030000  0.09190000  0.57460000  1.0 0.6192110806
C  C231  1  0.40810000  0.11030000  0.32460000  1.0 0.6192110806
C  C232  1  0.59190000  0.88970000  0.82460000  1.0 0.6192110806
C  C233  1  0.06760000  0.35910000  0.66420000  1.0 -0.030318691
C  C234  1  0.93240000  0.64090000  0.16420000  1.0 -0.030318691
C  C235  1  0.14090000  0.56760000  0.41420000  1.0 -0.030318691
C  C236  1  0.85910000  0.43240000  0.91420000  1.0 -0.030318691
C  C237  1  0.43240000  0.85910000  0.08580000  1.0 -0.030318691
C  C238  1  0.56760000  0.14090000  0.58580000  1.0 -0.030318691
C  C239  1  0.35910000  0.06760000  0.33580000  1.0 -0.030318691
C  C240  1  0.64090000  0.93240000  0.83580000  1.0 -0.030318691
C  C241  1  0.06700000  0.34110000  0.62790000  1.0 -0.0738093227
C  C242  1  0.93300000  0.65890000  0.12790000  1.0 -0.0738093227
C  C243  1  0.15890000  0.56700000  0.37790000  1.0 -0.0738093227
C  C244  1  0.84110000  0.43300000  0.87790000  1.0 -0.0738093227
C  C245  1  0.43300000  0.84110000  0.12210000  1.0 -0.0738093227
C  C246  1  0.56700000  0.15890000  0.62210000  1.0 -0.0738093227
C  C247  1  0.34110000  0.06700000  0.37210000  1.0 -0.0738093227
C  C248  1  0.65890000  0.93300000  0.87210000  1.0 -0.0738093227
C  C249  1  0.02470000  0.29530000  0.61840000  1.0 -0.1653338875
C  C250  1  0.97530000  0.70470000  0.11840000  1.0 -0.1653338875
C  C251  1  0.20470000  0.52470000  0.36840000  1.0 -0.1653338875
C  C252  1  0.79530000  0.47530000  0.86840000  1.0 -0.1653338875
C  C253  1  0.47530000  0.79530000  0.13160000  1.0 -0.1653338875
C  C254  1  0.52470000  0.20470000  0.63160000  1.0 -0.1653338875
C  C255  1  0.29530000  0.02470000  0.38160000  1.0 -0.1653338875
C  C256  1  0.70470000  0.97530000  0.88160000  1.0 -0.1587824372
C  C257  1  0.98570000  0.27020000  0.64150000  1.0 0.0795203654
C  C258  1  0.01430000  0.72980000  0.14150000  1.0 0.0795203654
C  C259  1  0.22980000  0.48570000  0.39150000  1.0 0.0795203654
C  C260  1  0.77020000  0.51430000  0.89150000  1.0 0.0795203654
C  C261  1  0.51430000  0.77020000  0.10850000  1.0 0.0795203654
C  C262  1  0.48570000  0.22980000  0.60850000  1.0 0.0795203654
C  C263  1  0.27020000  0.98570000  0.35850000  1.0 0.0795203654
C  C264  1  0.72980000  0.01430000  0.85850000  1.0 0.0795203654
C  C265  1  0.98630000  0.29060000  0.67620000  1.0 -0.1587824372
C  C266  1  0.01370000  0.70940000  0.17620000  1.0 -0.1587824372
C  C267  1  0.20940000  0.48630000  0.42620000  1.0 -0.1587824372
C  C268  1  0.79060000  0.51370000  0.92620000  1.0 -0.1587824372
C  C269  1  0.51370000  0.79060000  0.07380000  1.0 -0.1587824372
C  C270  1  0.48630000  0.20940000  0.57380000  1.0 -0.1587824372
C  C271  1  0.29060000  0.98630000  0.32380000  1.0 -0.1587824372
C  C272  1  0.70940000  0.01370000  0.82380000  1.0 -0.1587824372
C  C273  1  0.02820000  0.33570000  0.68740000  1.0 -0.078773172
C  C274  1  0.97180000  0.66430000  0.18740000  1.0 -0.078773172
C  C275  1  0.16430000  0.52820000  0.43740000  1.0 -0.078773172
C  C276  1  0.83570000  0.47180000  0.93740000  1.0 -0.078773172
C  C277  1  0.47180000  0.83570000  0.06260000  1.0 -0.078773172
C  C278  1  0.52820000  0.16430000  0.56260000  1.0 -0.078773172
C  C279  1  0.33570000  0.02820000  0.31260000  1.0 -0.078773172
C  C280  1  0.66430000  0.97180000  0.81260000  1.0 -0.078773172
C  C281  1  0.94500000  0.22360000  0.62790000  1.0 0.0795203654
C  C282  1  0.05500000  0.77640000  0.12790000  1.0 0.0795203654
C  C283  1  0.27640000  0.44500000  0.37790000  1.0 0.0795203654
C  C284  1  0.72360000  0.55500000  0.87790000  1.0 0.0795203654
C  C285  1  0.55500000  0.72360000  0.12210000  1.0 0.0795203654
C  C286  1  0.44500000  0.27640000  0.62210000  1.0 0.0795203654
C  C287  1  0.22360000  0.94500000  0.37210000  1.0 0.0795203654
C  C288  1  0.77640000  0.05500000  0.87210000  1.0 0.0795203654
C  C289  1  0.94880000  0.20230000  0.59250000  1.0 -0.1587824372
C  C290  1  0.05120000  0.79770000  0.09250000  1.0 -0.1587824372
C  C291  1  0.29770000  0.44880000  0.34250000  1.0 -0.1587824372
C  C292  1  0.70230000  0.55120000  0.84250000  1.0 -0.1587824372
C  C293  1  0.55120000  0.70230000  0.15750000  1.0 -0.1587824372
C  C294  1  0.44880000  0.29770000  0.65750000  1.0 -0.1587824372
C  C295  1  0.20230000  0.94880000  0.40750000  1.0 -0.1587824372
C  C296  1  0.79770000  0.05120000  0.90750000  1.0 -0.1587824372
C  C297  1  0.91310000  0.15510000  0.58150000  1.0 -0.0889693859
C  C298  1  0.08690000  0.84490000  0.08150000  1.0 -0.0889693859
C  C299  1  0.34490000  0.41310000  0.33150000  1.0 -0.0889693859
C  C300  1  0.65510000  0.58690000  0.83150000  1.0 -0.0889693859
C  C301  1  0.58690000  0.65510000  0.16850000  1.0 -0.0889693859
C  C302  1  0.41310000  0.34490000  0.66850000  1.0 -0.0889693859
C  C303  1  0.15510000  0.91310000  0.41850000  1.0 -0.0889693859
C  C304  1  0.84490000  0.08690000  0.91850000  1.0 -0.0889693859
C  C305  1  0.86680000  0.13130000  0.60160000  1.0 -0.0563527283
C  C306  1  0.13320000  0.86870000  0.10160000  1.0 -0.0563527283
C  C307  1  0.36870000  0.36680000  0.35160000  1.0 -0.0563527283
C  C308  1  0.63130000  0.63320000  0.85160000  1.0 -0.0563527283
C  C309  1  0.63320000  0.63130000  0.14840000  1.0 -0.0563527283
C  C310  1  0.36680000  0.36870000  0.64840000  1.0 -0.0563527283
C  C311  1  0.13130000  0.86680000  0.39840000  1.0 -0.0563527283
C  C312  1  0.86870000  0.13320000  0.89840000  1.0 -0.0563527283
C  C313  1  0.86460000  0.15110000  0.63700000  1.0 -0.078773172
C  C314  1  0.13540000  0.84890000  0.13700000  1.0 -0.078773172
C  C315  1  0.34890000  0.36460000  0.38700000  1.0 -0.078773172
C  C316  1  0.65110000  0.63540000  0.88700000  1.0 -0.078773172
C  C317  1  0.63540000  0.65110000  0.11300000  1.0 -0.078773172
C  C318  1  0.36460000  0.34890000  0.61300000  1.0 -0.078773172
C  C319  1  0.15110000  0.86460000  0.36300000  1.0 -0.078773172
C  C320  1  0.84890000  0.13540000  0.86300000  1.0 -0.078773172
C  C321  1  0.90510000  0.19660000  0.65030000  1.0 -0.1587824372
C  C322  1  0.09490000  0.80340000  0.15030000  1.0 -0.1587824372
C  C323  1  0.30340000  0.40510000  0.40030000  1.0 -0.1587824372
C  C324  1  0.69660000  0.59490000  0.90030000  1.0 -0.1587824372
C  C325  1  0.59490000  0.69660000  0.09970000  1.0 -0.1587824372
C  C326  1  0.40510000  0.30340000  0.59970000  1.0 -0.1587824372
C  C327  1  0.19660000  0.90510000  0.34970000  1.0 -0.1587824372
C  C328  1  0.80340000  0.09490000  0.84970000  1.0 -0.1587824372
C  C329  1  0.82760000  0.08330000  0.58720000  1.0 0.6110336065
C  C330  1  0.17240000  0.91670000  0.08720000  1.0 0.6110336065
C  C331  1  0.41670000  0.32760000  0.33720000  1.0 0.6110336065
C  C332  1  0.58330000  0.67240000  0.83720000  1.0 0.6110336065
C  C333  1  0.67240000  0.58330000  0.16280000  1.0 0.6110336065
C  C334  1  0.32760000  0.41670000  0.66280000  1.0 0.6110336065
C  C335  1  0.08330000  0.82760000  0.41280000  1.0 0.6110336065
C  C336  1  0.91670000  0.17240000  0.91280000  1.0 0.6110336065
C  C337  1  0.91730000  0.91730000  0.50000000  1.0 0.3850329846
C  C338  1  0.08270000  0.08270000  0.00000000  1.0 0.3850329846
C  C339  1  0.58270000  0.41730000  0.25000000  1.0 0.3850329846
C  C340  1  0.41730000  0.58270000  0.75000000  1.0 0.3840360671
C  C341  1  0.06200000  0.42870000  0.78710000  1.0 0.5596860975
C  C342  1  0.93800000  0.57130000  0.28710000  1.0 0.5596860975
C  C343  1  0.07130000  0.56200000  0.53710000  1.0 0.5596860975
C  C344  1  0.92870000  0.43800000  0.03710000  1.0 0.5596860975
C  C345  1  0.43800000  0.92870000  0.96290000  1.0 0.5596860975
C  C346  1  0.56200000  0.07130000  0.46290000  1.0 0.5596860975
C  C347  1  0.42870000  0.06200000  0.21290000  1.0 0.5596860975
C  C348  1  0.57130000  0.93800000  0.71290000  1.0 0.5596860975
O  O1  1  0.30460000  0.92750000  0.97839000  1.0 -0.5687374344
O  O2  1  0.69540000  0.07250000  0.47839000  1.0 -0.5687374344
O  O3  1  0.57250000  0.80460000  0.72839000  1.0 -0.5687374344
O  O4  1  0.42750000  0.19540000  0.22839000  1.0 -0.5687374344
O  O5  1  0.19540000  0.42750000  0.77161000  1.0 -0.5687374344
O  O6  1  0.80460000  0.57250000  0.27161000  1.0 -0.5687374344
O  O7  1  0.92750000  0.30460000  0.02161000  1.0 -0.5687374344
O  O8  1  0.07250000  0.69540000  0.52161000  1.0 -0.5687374344
O  O9  1  0.20630000  0.95310000  0.97537000  1.0 -0.5588012904
O  O10  1  0.79370000  0.04690000  0.47537000  1.0 -0.5588012904
O  O11  1  0.54690000  0.70630000  0.72537000  1.0 -0.5588012904
O  O12  1  0.45310000  0.29370000  0.22537000  1.0 -0.5588012904
O  O13  1  0.29370000  0.45310000  0.77463000  1.0 -0.5588012904
O  O14  1  0.70630000  0.54690000  0.27463000  1.0 -0.5588012904
O  O15  1  0.95310000  0.20630000  0.02463000  1.0 -0.5588012904
O  O16  1  0.04690000  0.79370000  0.52463000  1.0 -0.5588012904
O  O17  1  0.18840000  0.56380000  0.77634000  1.0 -0.5687374344
O  O18  1  0.81160000  0.43620000  0.27634000  1.0 -0.5687374344
O  O19  1  0.93620000  0.68840000  0.52634000  1.0 -0.5687374344
O  O20  1  0.06380000  0.31160000  0.02634000  1.0 -0.5687374344
O  O21  1  0.31160000  0.06380000  0.97366000  1.0 -0.5687374344
O  O22  1  0.68840000  0.93620000  0.47366000  1.0 -0.5687374344
O  O23  1  0.56380000  0.18840000  0.22366000  1.0 -0.5687374344
O  O24  1  0.43620000  0.81160000  0.72366000  1.0 -0.5687374344
O  O25  1  0.28040000  0.59060000  0.75626000  1.0 -0.5687374344
O  O26  1  0.71960000  0.40940000  0.25626000  1.0 -0.5687374344
O  O27  1  0.90940000  0.78040000  0.50626000  1.0 -0.5687374344
O  O28  1  0.09060000  0.21960000  0.00626000  1.0 -0.5687374344
O  O29  1  0.21960000  0.09060000  0.99374000  1.0 -0.5687374344
O  O30  1  0.78040000  0.90940000  0.49374000  1.0 -0.5687374344
O  O31  1  0.59060000  0.28040000  0.24374000  1.0 -0.5687374344
O  O32  1  0.40940000  0.71960000  0.74374000  1.0 -0.5687374344
O  O33  1  0.13450000  0.56200000  0.65297000  1.0 -0.5273149431
O  O34  1  0.86550000  0.43800000  0.15297000  1.0 -0.5273149431
O  O35  1  0.93800000  0.63450000  0.40297000  1.0 -0.5273149431
O  O36  1  0.06200000  0.36550000  0.90297000  1.0 -0.5273149431
O  O37  1  0.36550000  0.06200000  0.09703000  1.0 -0.5273149431
O  O38  1  0.63450000  0.93800000  0.59703000  1.0 -0.5273149431
O  O39  1  0.56200000  0.13450000  0.34703000  1.0 -0.5273149431
O  O40  1  0.43800000  0.86550000  0.84703000  1.0 -0.5273149431
O  O41  1  0.10320000  0.56590000  0.71109000  1.0 -0.5396113813
O  O42  1  0.89680000  0.43410000  0.21109000  1.0 -0.5396113813
O  O43  1  0.93410000  0.60320000  0.46109000  1.0 -0.5396113813
O  O44  1  0.06590000  0.39680000  0.96109000  1.0 -0.5396113813
O  O45  1  0.39680000  0.06590000  0.03891000  1.0 -0.5396113813
O  O46  1  0.60320000  0.93410000  0.53891000  1.0 -0.5396113813
O  O47  1  0.56590000  0.10320000  0.28891000  1.0 -0.5396113813
O  O48  1  0.43410000  0.89680000  0.78891000  1.0 -0.5396113813
O  O49  1  0.77240000  0.92550000  0.61522000  1.0 -0.5396113813
O  O50  1  0.22760000  0.07450000  0.11522000  1.0 -0.5396113813
O  O51  1  0.57450000  0.27240000  0.36522000  1.0 -0.5396113813
O  O52  1  0.42550000  0.72760000  0.86522000  1.0 -0.5396113813
O  O53  1  0.72760000  0.42550000  0.13478000  1.0 -0.5396113813
O  O54  1  0.27240000  0.57450000  0.63478000  1.0 -0.5396113813
O  O55  1  0.92550000  0.77240000  0.38478000  1.0 -0.5396113813
O  O56  1  0.07450000  0.22760000  0.88478000  1.0 -0.5396113813
O  O57  1  0.83880000  0.93870000  0.56986000  1.0 -0.5588012904
O  O58  1  0.16120000  0.06130000  0.06986000  1.0 -0.5588012904
O  O59  1  0.56130000  0.33880000  0.31986000  1.0 -0.5588012904
O  O60  1  0.43870000  0.66120000  0.81986000  1.0 -0.5588012904
O  O61  1  0.66120000  0.43870000  0.18014000  1.0 -0.5588012904
O  O62  1  0.33880000  0.56130000  0.68014000  1.0 -0.5588012904
O  O63  1  0.93870000  0.83880000  0.43014000  1.0 -0.5588012904
O  O64  1  0.06130000  0.16120000  0.93014000  1.0 -0.5588012904
O  O65  1  0.14790000  0.42540000  0.65199000  1.0 -0.5126283185
O  O66  1  0.85210000  0.57460000  0.15199000  1.0 -0.5126283185
O  O67  1  0.07460000  0.64790000  0.40199000  1.0 -0.5126283185
O  O68  1  0.92540000  0.35210000  0.90199000  1.0 -0.5126283185
O  O69  1  0.35210000  0.92540000  0.09801000  1.0 -0.5126283185
O  O70  1  0.64790000  0.07460000  0.59801000  1.0 -0.5126283185
O  O71  1  0.42540000  0.14790000  0.34801000  1.0 -0.5126283185
O  O72  1  0.57460000  0.85210000  0.84801000  1.0 -0.5126283185
O  O73  1  0.10660000  0.42600000  0.70733000  1.0 -0.5396113813
O  O74  1  0.89340000  0.57400000  0.20733000  1.0 -0.5396113813
O  O75  1  0.07400000  0.60660000  0.45733000  1.0 -0.5396113813
O  O76  1  0.92600000  0.39340000  0.95733000  1.0 -0.5396113813
O  O77  1  0.39340000  0.92600000  0.04267000  1.0 -0.5396113813
O  O78  1  0.60660000  0.07400000  0.54267000  1.0 -0.5396113813
O  O79  1  0.42600000  0.10660000  0.29267000  1.0 -0.5396113813
O  O80  1  0.57400000  0.89340000  0.79267000  1.0 -0.5396113813
O  O81  1  0.78710000  0.06180000  0.60925000  1.0 -0.5494415234
O  O82  1  0.21290000  0.93820000  0.10925000  1.0 -0.5494415234
O  O83  1  0.43820000  0.28710000  0.35925000  1.0 -0.5494415234
O  O84  1  0.56180000  0.71290000  0.85925000  1.0 -0.5494415234
O  O85  1  0.71290000  0.56180000  0.14075000  1.0 -0.5494415234
O  O86  1  0.28710000  0.43820000  0.64075000  1.0 -0.5494415234
O  O87  1  0.06180000  0.78710000  0.39075000  1.0 -0.5494415234
O  O88  1  0.93820000  0.21290000  0.89075000  1.0 -0.5494415234
O  O89  1  0.83800000  0.06830000  0.55365000  1.0 -0.5494415234
O  O90  1  0.16200000  0.93170000  0.05365000  1.0 -0.5494415234
O  O91  1  0.43170000  0.33800000  0.30365000  1.0 -0.5494415234
O  O92  1  0.56830000  0.66200000  0.80365000  1.0 -0.5494415234
O  O93  1  0.66200000  0.56830000  0.19635000  1.0 -0.5494415234
O  O94  1  0.33800000  0.43170000  0.69635000  1.0 -0.5494415234
O  O95  1  0.06830000  0.83800000  0.44635000  1.0 -0.5494415234
O  O96  1  0.93170000  0.16200000  0.94635000  1.0 -0.5494415234
O  O97  1  0.89940000  0.97490000  0.50375000  1.0 -0.5494415234
O  O98  1  0.10060000  0.02510000  0.00375000  1.0 -0.5494415234
O  O99  1  0.52510000  0.39940000  0.25375000  1.0 -0.5494415234
O  O100  1  0.47490000  0.60060000  0.75375000  1.0 -0.5494415234
O  O101  1  0.60060000  0.47490000  0.24625000  1.0 -0.5494415234
O  O102  1  0.39940000  0.52510000  0.74625000  1.0 -0.5494415234
O  O103  1  0.97490000  0.89940000  0.49625000  1.0 -0.5494415234
O  O104  1  0.02510000  0.10060000  0.99625000  1.0 -0.5494415234
O  O105  1  0.07810000  0.48810000  0.77704000  1.0 -0.6228650481
O  O106  1  0.92190000  0.51190000  0.27704000  1.0 -0.6228650481
O  O107  1  0.01190000  0.57810000  0.52704000  1.0 -0.6228650481
O  O108  1  0.98810000  0.42190000  0.02704000  1.0 -0.6228650481
O  O109  1  0.42190000  0.98810000  0.97296000  1.0 -0.6228650481
O  O110  1  0.57810000  0.01190000  0.47296000  1.0 -0.6228650481
O  O111  1  0.48810000  0.07810000  0.22296000  1.0 -0.6228650481
O  O112  1  0.51190000  0.92190000  0.72296000  1.0 -0.6228650481
O  O113  1  0.02210000  0.43060000  0.81590000  1.0 -0.1392810257
O  O114  1  0.97790000  0.56940000  0.31590000  1.0 -0.1392810257
O  O115  1  0.06940000  0.52210000  0.56590000  1.0 -0.1392810257
O  O116  1  0.93060000  0.47790000  0.06590000  1.0 -0.1392810257
O  O117  1  0.47790000  0.93060000  0.93410000  1.0 -0.1392810257
O  O118  1  0.52210000  0.06940000  0.43410000  1.0 -0.1392810257
O  O119  1  0.43060000  0.02210000  0.18410000  1.0 -0.1392810257
O  O120  1  0.56940000  0.97790000  0.68410000  1.0 -0.1392810257
O  O121  1  0.22412000  0.50170000  0.70416000  1.0 -1.0581593484
O  O122  1  0.77588000  0.49830000  0.20416000  1.0 -1.0581593484
O  O123  1  0.99830000  0.72412000  0.45416000  1.0 -1.0581593484
O  O124  1  0.00170000  0.27588000  0.95416000  1.0 -1.0581593484
O  O125  1  0.27588000  0.00170000  0.04584000  1.0 -1.0581593484
O  O126  1  0.72412000  0.99830000  0.54584000  1.0 -1.0581593484
O  O127  1  0.50170000  0.22412000  0.29584000  1.0 -1.0581593484
O  O128  1  0.49830000  0.77588000  0.79584000  1.0 -1.0581593484
O  O129  1  0.19360000  0.49920000  0.59088000  1.0 -0.5162611376
O  O130  1  0.80640000  0.50080000  0.09088000  1.0 -0.5126283185
O  O131  1  0.00080000  0.69360000  0.34088000  1.0 -0.5126283185
O  O132  1  0.99920000  0.30640000  0.84088000  1.0 -0.5126283185
O  O133  1  0.30640000  0.99920000  0.15912000  1.0 -0.5126283185
O  O134  1  0.69360000  0.00080000  0.65912000  1.0 -0.5162611376
O  O135  1  0.49920000  0.19360000  0.40912000  1.0 -0.5126283185
O  O136  1  0.50080000  0.80640000  0.90912000  1.0 -0.5162611376
O  O137  1  0.03880000  0.37260000  0.79700000  1.0 -0.1028747901
O  O138  1  0.96120000  0.62740000  0.29700000  1.0 -0.1028747901
O  O139  1  0.12740000  0.53880000  0.54700000  1.0 -0.1028747901
O  O140  1  0.87260000  0.46120000  0.04700000  1.0 -0.1028747901
O  O141  1  0.46120000  0.87260000  0.95300000  1.0 -0.1028747901
O  O142  1  0.53880000  0.12740000  0.45300000  1.0 -0.1028747901
O  O143  1  0.37260000  0.03880000  0.20300000  1.0 -0.1028747901
O  O144  1  0.62740000  0.96120000  0.70300000  1.0 -0.1028747901
