# DDEC6 charges by PACMAN v1.1 (https://github.com/mtap-research/PACMAN-charge/)
data_IYUHIU_FSR_pacman
_symmetry_space_group_name_H-M   'P 1'
_cell_length_a   14.52840000
_cell_length_b   29.73880000
_cell_length_c   29.75600000
_cell_angle_alpha   90.00000000
_cell_angle_beta   90.00000000
_cell_angle_gamma   90.00000000
_symmetry_Int_Tables_number   1
_chemical_formula_structural   In6H20(C7O5)9
_chemical_formula_sum   'In24 H80 C252 O180'
_cell_volume   12856.29350521
_cell_formula_units_Z   4
loop_
 _symmetry_equiv_pos_site_id
 _symmetry_equiv_pos_as_xyz
  1  'x, y, z'
loop_
 _atom_site_type_symbol
 _atom_site_label
 _atom_site_symmetry_multiplicity
 _atom_site_fract_x
 _atom_site_fract_y
 _atom_site_fract_z
 _atom_site_occupancy
 _atom_site_charge
In  In1  1  0.11917000  0.68798000  0.86744000  1.0 1.4208557989
In  In2  1  0.88083000  0.18798000  0.63256000  1.0 1.4208557989
In  In3  1  0.61917000  0.31202000  0.13256000  1.0 1.4208557989
In  In4  1  0.38083000  0.81202000  0.36744000  1.0 1.4208557989
In  In5  1  0.88083000  0.31202000  0.13256000  1.0 1.4208557989
In  In6  1  0.11917000  0.81202000  0.36744000  1.0 1.4208557989
In  In7  1  0.38083000  0.68798000  0.86744000  1.0 1.4208557989
In  In8  1  0.61917000  0.18798000  0.63256000  1.0 1.4208557989
In  In9  1  0.11802000  0.92220000  0.09379000  1.0 1.4079813808
In  In10  1  0.88198000  0.42220000  0.40621000  1.0 1.4079813808
In  In11  1  0.61802000  0.07780000  0.90621000  1.0 1.4079813808
In  In12  1  0.38198000  0.57780000  0.59379000  1.0 1.4079813808
In  In13  1  0.88198000  0.07780000  0.90621000  1.0 1.4048158463
In  In14  1  0.11802000  0.57780000  0.59379000  1.0 1.4079813808
In  In15  1  0.38198000  0.92220000  0.09379000  1.0 1.4079813808
In  In16  1  0.61802000  0.42220000  0.40621000  1.0 1.4079813808
In  In17  1  0.88202000  0.84711000  0.67571000  1.0 1.3942730065
In  In18  1  0.11798000  0.34711000  0.82429000  1.0 1.3942730065
In  In19  1  0.38202000  0.15289000  0.32429000  1.0 1.3942730065
In  In20  1  0.61798000  0.65289000  0.17571000  1.0 1.3942730065
In  In21  1  0.11798000  0.15289000  0.32429000  1.0 1.3942730065
In  In22  1  0.88202000  0.65289000  0.17571000  1.0 1.3942730065
In  In23  1  0.61798000  0.84711000  0.67571000  1.0 1.3942730065
In  In24  1  0.38202000  0.34711000  0.82429000  1.0 1.3942730065
H  H1  1  0.11060000  0.79030000  0.76320000  1.0 0.1504487055
H  H2  1  0.88940000  0.29030000  0.73680000  1.0 0.1504487055
H  H3  1  0.61060000  0.20970000  0.23680000  1.0 0.1504487055
H  H4  1  0.38940000  0.70970000  0.26320000  1.0 0.1504487055
H  H5  1  0.88940000  0.20970000  0.23680000  1.0 0.1504487055
H  H6  1  0.11060000  0.70970000  0.26320000  1.0 0.1504487055
H  H7  1  0.38940000  0.79030000  0.76320000  1.0 0.1504487055
H  H8  1  0.61060000  0.29030000  0.73680000  1.0 0.1504487055
H  H9  1  0.88820000  0.74680000  0.78090000  1.0 0.1504487055
H  H10  1  0.11180000  0.24680000  0.71910000  1.0 0.1504487055
H  H11  1  0.38820000  0.25320000  0.21910000  1.0 0.1504487055
H  H12  1  0.61180000  0.75320000  0.28090000  1.0 0.1504487055
H  H13  1  0.11180000  0.25320000  0.21910000  1.0 0.1504487055
H  H14  1  0.88820000  0.75320000  0.28090000  1.0 0.1504487055
H  H15  1  0.61180000  0.74680000  0.78090000  1.0 0.1504487055
H  H16  1  0.38820000  0.24680000  0.71910000  1.0 0.1504487055
H  H17  1  0.12330000  0.59770000  0.74840000  1.0 0.1556902985
H  H18  1  0.87670000  0.09770000  0.75160000  1.0 0.1556902985
H  H19  1  0.62330000  0.40230000  0.25160000  1.0 0.1556902985
H  H20  1  0.37670000  0.90230000  0.24840000  1.0 0.1556902985
H  H21  1  0.87670000  0.40230000  0.25160000  1.0 0.1556902985
H  H22  1  0.12330000  0.90230000  0.24840000  1.0 0.1556902985
H  H23  1  0.37670000  0.59770000  0.74840000  1.0 0.1556902985
H  H24  1  0.62330000  0.09770000  0.75160000  1.0 0.1556902985
H  H25  1  0.13350000  0.46900000  0.71880000  1.0 0.1504487055
H  H26  1  0.86650000  0.96900000  0.78120000  1.0 0.1504487055
H  H27  1  0.63350000  0.53100000  0.28120000  1.0 0.1504487055
H  H28  1  0.36650000  0.03100000  0.21880000  1.0 0.1504487055
H  H29  1  0.86650000  0.53100000  0.28120000  1.0 0.1504487055
H  H30  1  0.13350000  0.03100000  0.21880000  1.0 0.1504487055
H  H31  1  0.36650000  0.46900000  0.71880000  1.0 0.1504487055
H  H32  1  0.63350000  0.96900000  0.78120000  1.0 0.1504487055
H  H33  1  0.07820000  0.80180000  0.97870000  1.0 0.1504487055
H  H34  1  0.92180000  0.30180000  0.52130000  1.0 0.1428954362
H  H35  1  0.57820000  0.19820000  0.02130000  1.0 0.1428954362
H  H36  1  0.42180000  0.69820000  0.47870000  1.0 0.1504487055
H  H37  1  0.92180000  0.19820000  0.02130000  1.0 0.1428954362
H  H38  1  0.07820000  0.69820000  0.47870000  1.0 0.1504487055
H  H39  1  0.42180000  0.80180000  0.97870000  1.0 0.1504487055
H  H40  1  0.57820000  0.30180000  0.52130000  1.0 0.1428954362
H  H41  1  0.12010000  0.50760000  0.84690000  1.0 0.1504487055
H  H42  1  0.87990000  0.00760000  0.65310000  1.0 0.1504487055
H  H43  1  0.62010000  0.49240000  0.15310000  1.0 0.1504487055
H  H44  1  0.37990000  0.99240000  0.34690000  1.0 0.1504487055
H  H45  1  0.87990000  0.49240000  0.15310000  1.0 0.1504487055
H  H46  1  0.12010000  0.99240000  0.34690000  1.0 0.1504487055
H  H47  1  0.37990000  0.50760000  0.84690000  1.0 0.1504487055
H  H48  1  0.62010000  0.00760000  0.65310000  1.0 0.1504487055
H  H49  1  0.25000000  0.86730000  0.67620000  1.0 0.1504487055
H  H50  1  0.75000000  0.36730000  0.82380000  1.0 0.1428954362
H  H51  1  0.75000000  0.13270000  0.32380000  1.0 0.1428954362
H  H52  1  0.25000000  0.63270000  0.17620000  1.0 0.1428954362
H  H53  1  0.88750000  0.99300000  0.02140000  1.0 0.1504487055
H  H54  1  0.11250000  0.49300000  0.47860000  1.0 0.1504487055
H  H55  1  0.38750000  0.00700000  0.97860000  1.0 0.1504487055
H  H56  1  0.61250000  0.50700000  0.52140000  1.0 0.1504487055
H  H57  1  0.11250000  0.00700000  0.97860000  1.0 0.1504487055
H  H58  1  0.88750000  0.50700000  0.52140000  1.0 0.1504487055
H  H59  1  0.61250000  0.99300000  0.02140000  1.0 0.1504487055
H  H60  1  0.38750000  0.49300000  0.47860000  1.0 0.1504487055
H  H61  1  0.75000000  0.93940000  0.12540000  1.0 0.1428954362
H  H62  1  0.25000000  0.43940000  0.37460000  1.0 0.1428954362
H  H63  1  0.25000000  0.06060000  0.87460000  1.0 0.1428954362
H  H64  1  0.75000000  0.56060000  0.62540000  1.0 0.1428954362
H  H65  1  0.98580000  0.77970000  0.10380000  1.0 0.1504487055
H  H66  1  0.01420000  0.27970000  0.39620000  1.0 0.1504487055
H  H67  1  0.48580000  0.22030000  0.89620000  1.0 0.1504487055
H  H68  1  0.51420000  0.72030000  0.60380000  1.0 0.1504487055
H  H69  1  0.01420000  0.22030000  0.89620000  1.0 0.1504487055
H  H70  1  0.98580000  0.72030000  0.60380000  1.0 0.1504487055
H  H71  1  0.51420000  0.77970000  0.10380000  1.0 0.1504487055
H  H72  1  0.48580000  0.27970000  0.39620000  1.0 0.1504487055
H  H73  1  0.98830000  0.67910000  0.01420000  1.0 0.1504487055
H  H74  1  0.01170000  0.17910000  0.48580000  1.0 0.1504487055
H  H75  1  0.48830000  0.32090000  0.98580000  1.0 0.1504487055
H  H76  1  0.51170000  0.82090000  0.51420000  1.0 0.1504487055
H  H77  1  0.01170000  0.32090000  0.98580000  1.0 0.1504487055
H  H78  1  0.98830000  0.82090000  0.51420000  1.0 0.1504487055
H  H79  1  0.51170000  0.67910000  0.01420000  1.0 0.1504487055
H  H80  1  0.48830000  0.17910000  0.48580000  1.0 0.1504487055
C  C1  1  0.06110000  0.84480000  0.05690000  1.0 0.529485781
C  C2  1  0.93890000  0.34480000  0.44310000  1.0 0.529485781
C  C3  1  0.56110000  0.15520000  0.94310000  1.0 0.529485781
C  C4  1  0.43890000  0.65520000  0.55690000  1.0 0.529485781
C  C5  1  0.93890000  0.15520000  0.94310000  1.0 0.529485781
C  C6  1  0.06110000  0.65520000  0.55690000  1.0 0.529485781
C  C7  1  0.43890000  0.84480000  0.05690000  1.0 0.529485781
C  C8  1  0.56110000  0.34480000  0.44310000  1.0 0.529485781
C  C9  1  0.12570000  0.53540000  0.72610000  1.0 -0.0089511378
C  C10  1  0.87430000  0.03540000  0.77390000  1.0 -0.0089511378
C  C11  1  0.62570000  0.46460000  0.27390000  1.0 -0.0089511378
C  C12  1  0.37430000  0.96460000  0.22610000  1.0 -0.0089511378
C  C13  1  0.87430000  0.46460000  0.27390000  1.0 -0.0089511378
C  C14  1  0.12570000  0.96460000  0.22610000  1.0 -0.0089511378
C  C15  1  0.37430000  0.53540000  0.72610000  1.0 -0.0089511378
C  C16  1  0.62570000  0.03540000  0.77390000  1.0 -0.0089511378
C  C17  1  0.75000000  0.68120000  0.83780000  1.0 0.1259904291
C  C18  1  0.25000000  0.18120000  0.66220000  1.0 0.1259904291
C  C19  1  0.25000000  0.31880000  0.16220000  1.0 0.1259904291
C  C20  1  0.75000000  0.81880000  0.33780000  1.0 0.1259904291
C  C21  1  0.16630000  0.80040000  0.75160000  1.0 -0.0785774898
C  C22  1  0.83370000  0.30040000  0.74840000  1.0 -0.0785774898
C  C23  1  0.66630000  0.19960000  0.24840000  1.0 -0.0785774898
C  C24  1  0.33370000  0.69960000  0.25160000  1.0 -0.0785774898
C  C25  1  0.83370000  0.19960000  0.24840000  1.0 -0.0785774898
C  C26  1  0.16630000  0.69960000  0.25160000  1.0 -0.0785774898
C  C27  1  0.33370000  0.80040000  0.75160000  1.0 -0.0785774898
C  C28  1  0.66630000  0.30040000  0.74840000  1.0 -0.0785774898
C  C29  1  0.75000000  0.99770000  0.01550000  1.0 -0.0367645625
C  C30  1  0.25000000  0.49770000  0.48450000  1.0 -0.0367645625
C  C31  1  0.25000000  0.00230000  0.98450000  1.0 -0.0367645625
C  C32  1  0.75000000  0.50230000  0.51550000  1.0 -0.0367645625
C  C33  1  0.92180000  0.95000000  0.09890000  1.0 0.5415640186
C  C34  1  0.07820000  0.45000000  0.40110000  1.0 0.5453817632
C  C35  1  0.42180000  0.05000000  0.90110000  1.0 0.5453817632
C  C36  1  0.57820000  0.55000000  0.59890000  1.0 0.5453817632
C  C37  1  0.07820000  0.05000000  0.90110000  1.0 0.5453817632
C  C38  1  0.92180000  0.55000000  0.59890000  1.0 0.5453817632
C  C39  1  0.57820000  0.95000000  0.09890000  1.0 0.5453817632
C  C40  1  0.42180000  0.45000000  0.40110000  1.0 0.5453817632
C  C41  1  0.83290000  0.73520000  0.79150000  1.0 -0.0590855916
C  C42  1  0.16710000  0.23520000  0.70850000  1.0 -0.0590855916
C  C43  1  0.33290000  0.26480000  0.20850000  1.0 -0.0590855916
C  C44  1  0.66710000  0.76480000  0.29150000  1.0 -0.0590855916
C  C45  1  0.16710000  0.26480000  0.20850000  1.0 -0.0590855916
C  C46  1  0.83290000  0.76480000  0.29150000  1.0 -0.0590855916
C  C47  1  0.66710000  0.73520000  0.79150000  1.0 -0.0590855916
C  C48  1  0.33290000  0.23520000  0.70850000  1.0 -0.0590855916
C  C49  1  0.12370000  0.56790000  0.75790000  1.0 -0.0916081262
C  C50  1  0.87630000  0.06790000  0.74210000  1.0 -0.0916081262
C  C51  1  0.62370000  0.43210000  0.24210000  1.0 -0.0916081262
C  C52  1  0.37630000  0.93210000  0.25790000  1.0 -0.0916081262
C  C53  1  0.87630000  0.43210000  0.24210000  1.0 -0.0916081262
C  C54  1  0.12370000  0.93210000  0.25790000  1.0 -0.0916081262
C  C55  1  0.37630000  0.56790000  0.75790000  1.0 -0.0916081262
C  C56  1  0.62370000  0.06790000  0.74210000  1.0 -0.0916081262
C  C57  1  0.12820000  0.49160000  0.74020000  1.0 -0.0916081262
C  C58  1  0.87180000  0.99160000  0.75980000  1.0 -0.0916081262
C  C59  1  0.62820000  0.50840000  0.25980000  1.0 -0.0916081262
C  C60  1  0.37180000  0.00840000  0.24020000  1.0 -0.0916081262
C  C61  1  0.87180000  0.50840000  0.25980000  1.0 -0.0916081262
C  C62  1  0.12820000  0.00840000  0.24020000  1.0 -0.0916081262
C  C63  1  0.37180000  0.49160000  0.74020000  1.0 -0.0916081262
C  C64  1  0.62820000  0.99160000  0.75980000  1.0 -0.0916081262
C  C65  1  0.12220000  0.55950000  0.80420000  1.0 0.0127887535
C  C66  1  0.87780000  0.05950000  0.69580000  1.0 0.0127887535
C  C67  1  0.62220000  0.44050000  0.19580000  1.0 0.0127887535
C  C68  1  0.37780000  0.94050000  0.30420000  1.0 0.0127887535
C  C69  1  0.87780000  0.44050000  0.19580000  1.0 0.0127887535
C  C70  1  0.12220000  0.94050000  0.30420000  1.0 0.0127887535
C  C71  1  0.37780000  0.55950000  0.80420000  1.0 0.0127887535
C  C72  1  0.62220000  0.05950000  0.69580000  1.0 0.0127887535
C  C73  1  0.75000000  0.75300000  0.77580000  1.0 -0.0367645625
C  C74  1  0.25000000  0.25300000  0.72420000  1.0 -0.031941921
C  C75  1  0.25000000  0.24700000  0.22420000  1.0 -0.031941921
C  C76  1  0.75000000  0.74700000  0.27580000  1.0 -0.031941921
C  C77  1  0.12320000  0.43170000  0.79960000  1.0 0.529485781
C  C78  1  0.87680000  0.93170000  0.70040000  1.0 0.5239331956
C  C79  1  0.62320000  0.56830000  0.20040000  1.0 0.5239331956
C  C80  1  0.37680000  0.06830000  0.29960000  1.0 0.5239331956
C  C81  1  0.87680000  0.56830000  0.20040000  1.0 0.5239331956
C  C82  1  0.12320000  0.06830000  0.29960000  1.0 0.5239331956
C  C83  1  0.37680000  0.43170000  0.79960000  1.0 0.529485781
C  C84  1  0.62320000  0.93170000  0.70040000  1.0 0.5239331956
C  C85  1  0.83400000  0.70020000  0.82310000  1.0 -0.0590855916
C  C86  1  0.16600000  0.20020000  0.67690000  1.0 -0.0590855916
C  C87  1  0.33400000  0.29980000  0.17690000  1.0 -0.0590855916
C  C88  1  0.66600000  0.79980000  0.32310000  1.0 -0.0590855916
C  C89  1  0.16600000  0.29980000  0.17690000  1.0 -0.0590855916
C  C90  1  0.83400000  0.79980000  0.32310000  1.0 -0.0590855916
C  C91  1  0.66600000  0.70020000  0.82310000  1.0 -0.0590855916
C  C92  1  0.33400000  0.20020000  0.67690000  1.0 -0.0590855916
C  C93  1  0.05410000  0.78250000  0.00030000  1.0 -0.0687302306
C  C94  1  0.94590000  0.28250000  0.49970000  1.0 -0.0687302306
C  C95  1  0.55410000  0.21750000  0.99970000  1.0 -0.0687302306
C  C96  1  0.44590000  0.71750000  0.50030000  1.0 -0.0687302306
C  C97  1  0.94590000  0.21750000  0.99970000  1.0 -0.0687302306
C  C98  1  0.05410000  0.71750000  0.50030000  1.0 -0.0687302306
C  C99  1  0.44590000  0.78250000  0.00030000  1.0 -0.0687302306
C  C100  1  0.55410000  0.28250000  0.49970000  1.0 -0.0687302306
C  C101  1  0.25000000  0.74980000  0.80580000  1.0 0.6204775508
C  C102  1  0.75000000  0.24980000  0.69420000  1.0 0.6204775508
C  C103  1  0.75000000  0.25020000  0.19420000  1.0 0.6204775508
C  C104  1  0.25000000  0.75020000  0.30580000  1.0 0.6204775508
C  C105  1  0.07930000  0.84610000  0.69570000  1.0 0.5415640186
C  C106  1  0.92070000  0.34610000  0.80430000  1.0 0.5415640186
C  C107  1  0.57930000  0.15390000  0.30430000  1.0 0.5415640186
C  C108  1  0.42070000  0.65390000  0.19570000  1.0 0.5415640186
C  C109  1  0.92070000  0.15390000  0.30430000  1.0 0.5415640186
C  C110  1  0.07930000  0.65390000  0.19570000  1.0 0.5415640186
C  C111  1  0.42070000  0.84610000  0.69570000  1.0 0.5415640186
C  C112  1  0.57930000  0.34610000  0.80430000  1.0 0.5415640186
C  C113  1  0.92260000  0.68240000  0.84080000  1.0 0.5778169047
C  C114  1  0.07740000  0.18240000  0.65920000  1.0 0.5778169047
C  C115  1  0.42260000  0.31760000  0.15920000  1.0 0.5778169047
C  C116  1  0.57740000  0.81760000  0.34080000  1.0 0.5778169047
C  C117  1  0.07740000  0.31760000  0.15920000  1.0 0.5778169047
C  C118  1  0.92260000  0.81760000  0.34080000  1.0 0.5778169047
C  C119  1  0.57740000  0.68240000  0.84080000  1.0 0.5778169047
C  C120  1  0.42260000  0.18240000  0.65920000  1.0 0.5778169047
C  C121  1  0.12330000  0.47990000  0.78460000  1.0 0.0127887535
C  C122  1  0.87670000  0.97990000  0.71540000  1.0 0.0127887535
C  C123  1  0.62330000  0.52010000  0.21540000  1.0 0.0127887535
C  C124  1  0.37670000  0.02010000  0.28460000  1.0 0.0127887535
C  C125  1  0.87670000  0.52010000  0.21540000  1.0 0.0127887535
C  C126  1  0.12330000  0.02010000  0.28460000  1.0 0.0127887535
C  C127  1  0.37670000  0.47990000  0.78460000  1.0 0.0127887535
C  C128  1  0.62330000  0.97990000  0.71540000  1.0 0.0127887535
C  C129  1  0.12170000  0.51490000  0.81650000  1.0 -0.0916081262
C  C130  1  0.87830000  0.01490000  0.68350000  1.0 -0.0916081262
C  C131  1  0.62170000  0.48510000  0.18350000  1.0 -0.0916081262
C  C132  1  0.37830000  0.98510000  0.31650000  1.0 -0.0916081262
C  C133  1  0.87830000  0.48510000  0.18350000  1.0 -0.0916081262
C  C134  1  0.12170000  0.98510000  0.31650000  1.0 -0.0916081262
C  C135  1  0.37830000  0.51490000  0.81650000  1.0 -0.0916081262
C  C136  1  0.62170000  0.01490000  0.68350000  1.0 -0.0916081262
C  C137  1  0.25000000  0.78480000  0.77030000  1.0 -0.031941921
C  C138  1  0.75000000  0.28480000  0.72970000  1.0 -0.031941921
C  C139  1  0.75000000  0.21520000  0.22970000  1.0 -0.031941921
C  C140  1  0.25000000  0.71520000  0.27030000  1.0 -0.031941921
C  C141  1  0.75000000  0.78820000  0.74010000  1.0 0.6204775508
C  C142  1  0.25000000  0.28820000  0.75990000  1.0 0.6204775508
C  C143  1  0.25000000  0.21180000  0.25990000  1.0 0.6204775508
C  C144  1  0.75000000  0.71180000  0.24010000  1.0 0.6204775508
C  C145  1  0.12220000  0.59740000  0.83770000  1.0 0.5453817632
C  C146  1  0.87780000  0.09740000  0.66230000  1.0 0.5453817632
C  C147  1  0.62220000  0.40260000  0.16230000  1.0 0.5415640186
C  C148  1  0.37780000  0.90260000  0.33770000  1.0 0.5453817632
C  C149  1  0.87780000  0.40260000  0.16230000  1.0 0.5453817632
C  C150  1  0.12220000  0.90260000  0.33770000  1.0 0.5453817632
C  C151  1  0.37780000  0.59740000  0.83770000  1.0 0.5453817632
C  C152  1  0.62220000  0.09740000  0.66230000  1.0 0.5453817632
C  C153  1  0.12510000  0.54920000  0.67800000  1.0 0.5453817632
C  C154  1  0.87490000  0.04920000  0.82200000  1.0 0.5415640186
C  C155  1  0.62510000  0.45080000  0.32200000  1.0 0.5415640186
C  C156  1  0.37490000  0.95080000  0.17800000  1.0 0.5415640186
C  C157  1  0.87490000  0.45080000  0.32200000  1.0 0.5415640186
C  C158  1  0.12510000  0.95080000  0.17800000  1.0 0.5415640186
C  C159  1  0.37490000  0.54920000  0.67800000  1.0 0.5415640186
C  C160  1  0.62510000  0.04920000  0.82200000  1.0 0.5453817632
C  C161  1  0.75000000  0.02160000  0.97200000  1.0 0.6204775508
C  C162  1  0.25000000  0.52160000  0.52800000  1.0 0.6204775508
C  C163  1  0.25000000  0.97840000  0.02800000  1.0 0.6204775508
C  C164  1  0.75000000  0.47840000  0.47200000  1.0 0.6204775508
C  C165  1  0.03660000  0.73760000  0.98970000  1.0 -0.0045759031
C  C166  1  0.96340000  0.23760000  0.51030000  1.0 -0.0045759031
C  C167  1  0.53660000  0.26240000  0.01030000  1.0 -0.0045759031
C  C168  1  0.46340000  0.76240000  0.48970000  1.0 -0.0045759031
C  C169  1  0.96340000  0.26240000  0.01030000  1.0 -0.0045759031
C  C170  1  0.03660000  0.76240000  0.48970000  1.0 -0.0045759031
C  C171  1  0.46340000  0.73760000  0.98970000  1.0 -0.0045759031
C  C172  1  0.53660000  0.23760000  0.51030000  1.0 -0.0045759031
C  C173  1  0.83320000  0.96410000  0.07730000  1.0 0.0029210804
C  C174  1  0.16680000  0.46410000  0.42270000  1.0 0.0029210804
C  C175  1  0.33320000  0.03590000  0.92270000  1.0 0.0029210804
C  C176  1  0.66680000  0.53590000  0.57730000  1.0 0.0029210804
C  C177  1  0.16680000  0.03590000  0.92270000  1.0 0.0029210804
C  C178  1  0.83320000  0.53590000  0.57730000  1.0 0.0029210804
C  C179  1  0.66680000  0.96410000  0.07730000  1.0 0.0029210804
C  C180  1  0.33320000  0.46410000  0.42270000  1.0 0.0029210804
C  C181  1  0.06320000  0.71990000  0.94470000  1.0 0.529485781
C  C182  1  0.93680000  0.21990000  0.55530000  1.0 0.529485781
C  C183  1  0.56320000  0.28010000  0.05530000  1.0 0.529485781
C  C184  1  0.43680000  0.78010000  0.44470000  1.0 0.529485781
C  C185  1  0.93680000  0.28010000  0.05530000  1.0 0.529485781
C  C186  1  0.06320000  0.78010000  0.44470000  1.0 0.529485781
C  C187  1  0.43680000  0.71990000  0.94470000  1.0 0.529485781
C  C188  1  0.56320000  0.21990000  0.55530000  1.0 0.529485781
C  C189  1  0.03530000  0.79850000  0.04360000  1.0 -0.0089511378
C  C190  1  0.96470000  0.29850000  0.45640000  1.0 -0.0089511378
C  C191  1  0.53530000  0.20150000  0.95640000  1.0 -0.0089511378
C  C192  1  0.46470000  0.70150000  0.54360000  1.0 -0.0089511378
C  C193  1  0.96470000  0.20150000  0.95640000  1.0 -0.0089511378
C  C194  1  0.03530000  0.70150000  0.54360000  1.0 -0.0089511378
C  C195  1  0.46470000  0.79850000  0.04360000  1.0 -0.0089511378
C  C196  1  0.53530000  0.29850000  0.45640000  1.0 -0.0089511378
C  C197  1  0.25000000  0.84620000  0.69930000  1.0 -0.0687302306
C  C198  1  0.75000000  0.34620000  0.80070000  1.0 -0.0687302306
C  C199  1  0.75000000  0.15380000  0.30070000  1.0 -0.0687302306
C  C200  1  0.25000000  0.65380000  0.19930000  1.0 -0.0687302306
C  C201  1  0.93930000  0.69510000  0.10060000  1.0 0.529485781
C  C202  1  0.06070000  0.19510000  0.39940000  1.0 0.529485781
C  C203  1  0.43930000  0.30490000  0.89940000  1.0 0.529485781
C  C204  1  0.56070000  0.80490000  0.60060000  1.0 0.529485781
C  C205  1  0.06070000  0.30490000  0.89940000  1.0 0.529485781
C  C206  1  0.93930000  0.80490000  0.60060000  1.0 0.529485781
C  C207  1  0.56070000  0.69510000  0.10060000  1.0 0.529485781
C  C208  1  0.43930000  0.19510000  0.39940000  1.0 0.529485781
C  C209  1  0.83230000  0.98610000  0.03560000  1.0 -0.0687302306
C  C210  1  0.16770000  0.48610000  0.46440000  1.0 -0.0687302306
C  C211  1  0.33230000  0.01390000  0.96440000  1.0 -0.0687302306
C  C212  1  0.66770000  0.51390000  0.53560000  1.0 -0.0687302306
C  C213  1  0.16770000  0.01390000  0.96440000  1.0 -0.0687302306
C  C214  1  0.83230000  0.51390000  0.53560000  1.0 -0.0687302306
C  C215  1  0.66770000  0.98610000  0.03560000  1.0 -0.0687302306
C  C216  1  0.33230000  0.48610000  0.46440000  1.0 -0.0687302306
C  C217  1  0.97850000  0.72480000  0.06420000  1.0 0.0029210804
C  C218  1  0.02150000  0.22480000  0.43580000  1.0 0.0029210804
C  C219  1  0.47850000  0.27520000  0.93580000  1.0 0.0029210804
C  C220  1  0.52150000  0.77520000  0.56420000  1.0 0.0029210804
C  C221  1  0.02150000  0.27520000  0.93580000  1.0 0.0029210804
C  C222  1  0.97850000  0.77520000  0.56420000  1.0 0.0029210804
C  C223  1  0.52150000  0.72480000  0.06420000  1.0 0.0029210804
C  C224  1  0.47850000  0.22480000  0.43580000  1.0 0.0029210804
C  C225  1  0.75000000  0.95370000  0.09760000  1.0 -0.0785774898
C  C226  1  0.25000000  0.45370000  0.40240000  1.0 -0.0785774898
C  C227  1  0.25000000  0.04630000  0.90240000  1.0 -0.0785774898
C  C228  1  0.75000000  0.54630000  0.59760000  1.0 -0.0785774898
C  C229  1  0.16650000  0.83050000  0.71650000  1.0 -0.0089511378
C  C230  1  0.83350000  0.33050000  0.78350000  1.0 -0.0089511378
C  C231  1  0.66650000  0.16950000  0.28350000  1.0 -0.0089511378
C  C232  1  0.33350000  0.66950000  0.21650000  1.0 -0.0089511378
C  C233  1  0.83350000  0.16950000  0.28350000  1.0 -0.0089511378
C  C234  1  0.16650000  0.66950000  0.21650000  1.0 -0.0089511378
C  C235  1  0.33350000  0.83050000  0.71650000  1.0 -0.0089511378
C  C236  1  0.66650000  0.33050000  0.78350000  1.0 -0.0089511378
C  C237  1  0.99800000  0.76930000  0.07490000  1.0 -0.0785774898
C  C238  1  0.00200000  0.26930000  0.42510000  1.0 -0.0785774898
C  C239  1  0.49800000  0.23070000  0.92510000  1.0 -0.0785774898
C  C240  1  0.50200000  0.73070000  0.57490000  1.0 -0.0785774898
C  C241  1  0.00200000  0.23070000  0.92510000  1.0 -0.0785774898
C  C242  1  0.99800000  0.73070000  0.57490000  1.0 -0.0785774898
C  C243  1  0.50200000  0.76930000  0.07490000  1.0 -0.0785774898
C  C244  1  0.49800000  0.26930000  0.42510000  1.0 -0.0785774898
C  C245  1  0.99940000  0.70900000  0.02150000  1.0 -0.0687302306
C  C246  1  0.00060000  0.20900000  0.47850000  1.0 -0.0687302306
C  C247  1  0.49940000  0.29100000  0.97850000  1.0 -0.0687302306
C  C248  1  0.50060000  0.79100000  0.52150000  1.0 -0.0687302306
C  C249  1  0.00060000  0.29100000  0.97850000  1.0 -0.0687302306
C  C250  1  0.99940000  0.79100000  0.52150000  1.0 -0.0687302306
C  C251  1  0.50060000  0.70900000  0.02150000  1.0 -0.0687302306
C  C252  1  0.49940000  0.20900000  0.47850000  1.0 -0.0687302306
O  O1  1  0.00590000  0.83320000  0.71280000  1.0 -0.470368799
O  O2  1  0.99410000  0.33320000  0.78720000  1.0 -0.470368799
O  O3  1  0.50590000  0.16680000  0.28720000  1.0 -0.470368799
O  O4  1  0.49410000  0.66680000  0.21280000  1.0 -0.470368799
O  O5  1  0.99410000  0.16680000  0.28720000  1.0 -0.470368799
O  O6  1  0.00590000  0.66680000  0.21280000  1.0 -0.470368799
O  O7  1  0.49410000  0.83320000  0.71280000  1.0 -0.470368799
O  O8  1  0.50590000  0.33320000  0.78720000  1.0 -0.470368799
O  O9  1  0.92300000  0.93600000  0.13760000  1.0 -0.4096732445
O  O10  1  0.07700000  0.43600000  0.36240000  1.0 -0.4096732445
O  O11  1  0.42300000  0.06400000  0.86240000  1.0 -0.4096732445
O  O12  1  0.57700000  0.56400000  0.63760000  1.0 -0.4096732445
O  O13  1  0.07700000  0.06400000  0.86240000  1.0 -0.4096732445
O  O14  1  0.92300000  0.56400000  0.63760000  1.0 -0.4096732445
O  O15  1  0.57700000  0.93600000  0.13760000  1.0 -0.4096732445
O  O16  1  0.42300000  0.43600000  0.36240000  1.0 -0.4096732445
O  O17  1  0.93120000  0.65450000  0.09410000  1.0 -0.3926275064
O  O18  1  0.06880000  0.15450000  0.40590000  1.0 -0.3926275064
O  O19  1  0.43120000  0.34550000  0.90590000  1.0 -0.3926275064
O  O20  1  0.56880000  0.84550000  0.59410000  1.0 -0.3926275064
O  O21  1  0.06880000  0.34550000  0.90590000  1.0 -0.3926275064
O  O22  1  0.93120000  0.84550000  0.59410000  1.0 -0.3926275064
O  O23  1  0.56880000  0.65450000  0.09410000  1.0 -0.3926275064
O  O24  1  0.43120000  0.15450000  0.40590000  1.0 -0.3926275064
O  O25  1  0.99320000  0.95290000  0.07400000  1.0 -0.5006249789
O  O26  1  0.00680000  0.45290000  0.42600000  1.0 -0.5006249789
O  O27  1  0.49320000  0.04710000  0.92600000  1.0 -0.5006249789
O  O28  1  0.50680000  0.54710000  0.57400000  1.0 -0.5006249789
O  O29  1  0.00680000  0.04710000  0.92600000  1.0 -0.5006249789
O  O30  1  0.99320000  0.54710000  0.57400000  1.0 -0.5006249789
O  O31  1  0.50680000  0.95290000  0.07400000  1.0 -0.5006249789
O  O32  1  0.49320000  0.45290000  0.42600000  1.0 -0.5006249789
O  O33  1  0.91790000  0.71290000  0.13750000  1.0 -0.470368799
O  O34  1  0.08210000  0.21290000  0.36250000  1.0 -0.470368799
O  O35  1  0.41790000  0.28710000  0.86250000  1.0 -0.470368799
O  O36  1  0.58210000  0.78710000  0.63750000  1.0 -0.470368799
O  O37  1  0.08210000  0.28710000  0.86250000  1.0 -0.470368799
O  O38  1  0.91790000  0.78710000  0.63750000  1.0 -0.470368799
O  O39  1  0.58210000  0.71290000  0.13750000  1.0 -0.470368799
O  O40  1  0.41790000  0.21290000  0.36250000  1.0 -0.470368799
O  O41  1  0.04870000  0.85590000  0.09780000  1.0 -0.4473094369
O  O42  1  0.95130000  0.35590000  0.40220000  1.0 -0.4473094369
O  O43  1  0.54870000  0.14410000  0.90220000  1.0 -0.4473094369
O  O44  1  0.45130000  0.64410000  0.59780000  1.0 -0.4473094369
O  O45  1  0.95130000  0.14410000  0.90220000  1.0 -0.4473094369
O  O46  1  0.04870000  0.64410000  0.59780000  1.0 -0.4473094369
O  O47  1  0.45130000  0.85590000  0.09780000  1.0 -0.4473094369
O  O48  1  0.54870000  0.35590000  0.40220000  1.0 -0.4473094369
O  O49  1  0.99050000  0.70850000  0.83890000  1.0 -0.5006249789
O  O50  1  0.00950000  0.20850000  0.66110000  1.0 -0.5056535069
O  O51  1  0.49050000  0.29150000  0.16110000  1.0 -0.5056535069
O  O52  1  0.50950000  0.79150000  0.33890000  1.0 -0.5006249789
O  O53  1  0.00950000  0.29150000  0.16110000  1.0 -0.5056535069
O  O54  1  0.99050000  0.79150000  0.33890000  1.0 -0.5006249789
O  O55  1  0.50950000  0.70850000  0.83890000  1.0 -0.5006249789
O  O56  1  0.49050000  0.20850000  0.66110000  1.0 -0.5056535069
O  O57  1  0.05270000  0.67888000  0.93520000  1.0 -0.4572660987
O  O58  1  0.94730000  0.17888000  0.56480000  1.0 -0.4572660987
O  O59  1  0.55270000  0.32112000  0.06480000  1.0 -0.4572660987
O  O60  1  0.44730000  0.82112000  0.43520000  1.0 -0.4572660987
O  O61  1  0.94730000  0.32112000  0.06480000  1.0 -0.4572660987
O  O62  1  0.05270000  0.82112000  0.43520000  1.0 -0.4572660987
O  O63  1  0.44730000  0.67888000  0.93520000  1.0 -0.4572660987
O  O64  1  0.55270000  0.17888000  0.56480000  1.0 -0.4572660987
O  O65  1  0.25000000  0.89330000  0.09580000  1.0 -0.710298519
O  O66  1  0.75000000  0.39330000  0.40420000  1.0 -0.710298519
O  O67  1  0.75000000  0.10670000  0.90420000  1.0 -0.710298519
O  O68  1  0.25000000  0.60670000  0.59580000  1.0 -0.710298519
O  O69  1  0.10460000  0.42200000  0.83970000  1.0 -0.4473094369
O  O70  1  0.89540000  0.92200000  0.66030000  1.0 -0.4473094369
O  O71  1  0.60460000  0.57800000  0.16030000  1.0 -0.4473094369
O  O72  1  0.39540000  0.07800000  0.33970000  1.0 -0.4473094369
O  O73  1  0.89540000  0.57800000  0.16030000  1.0 -0.4473094369
O  O74  1  0.10460000  0.07800000  0.33970000  1.0 -0.4473094369
O  O75  1  0.39540000  0.42200000  0.83970000  1.0 -0.4473094369
O  O76  1  0.60460000  0.92200000  0.66030000  1.0 -0.4412481708
O  O77  1  0.25000000  0.67680000  0.89610000  1.0 -0.710298519
O  O78  1  0.75000000  0.17680000  0.60390000  1.0 -0.7163859669
O  O79  1  0.75000000  0.32320000  0.10390000  1.0 -0.710298519
O  O80  1  0.25000000  0.82320000  0.39610000  1.0 -0.710298519
O  O81  1  0.09510000  0.87220000  0.03000000  1.0 -0.4412481708
O  O82  1  0.90490000  0.37220000  0.47000000  1.0 -0.4412481708
O  O83  1  0.59510000  0.12780000  0.97000000  1.0 -0.4412481708
O  O84  1  0.40490000  0.62780000  0.53000000  1.0 -0.4412481708
O  O85  1  0.90490000  0.12780000  0.97000000  1.0 -0.4412481708
O  O86  1  0.09510000  0.62780000  0.53000000  1.0 -0.4412481708
O  O87  1  0.40490000  0.87220000  0.03000000  1.0 -0.4412481708
O  O88  1  0.59510000  0.37220000  0.47000000  1.0 -0.4412481708
O  O89  1  0.14030000  0.40150000  0.77170000  1.0 -0.4791353911
O  O90  1  0.85970000  0.90150000  0.72830000  1.0 -0.4791353911
O  O91  1  0.64030000  0.59850000  0.22830000  1.0 -0.4791353911
O  O92  1  0.35970000  0.09850000  0.27170000  1.0 -0.4791353911
O  O93  1  0.85970000  0.59850000  0.22830000  1.0 -0.4791353911
O  O94  1  0.14030000  0.09850000  0.27170000  1.0 -0.4791353911
O  O95  1  0.35970000  0.40150000  0.77170000  1.0 -0.4791353911
O  O96  1  0.64030000  0.90150000  0.72830000  1.0 -0.4791353911
O  O97  1  0.75000000  0.85050000  0.64640000  1.0 -0.6936265294
O  O98  1  0.25000000  0.35050000  0.85360000  1.0 -0.6977380876
O  O99  1  0.25000000  0.14950000  0.35360000  1.0 -0.6977380876
O  O100  1  0.75000000  0.64950000  0.14640000  1.0 -0.6936265294
O  O101  1  0.82650000  0.80200000  0.72670000  1.0 -0.4791353911
O  O102  1  0.17350000  0.30200000  0.77330000  1.0 -0.4791353911
O  O103  1  0.32650000  0.19800000  0.27330000  1.0 -0.4791353911
O  O104  1  0.67350000  0.69800000  0.22670000  1.0 -0.4791353911
O  O105  1  0.17350000  0.19800000  0.27330000  1.0 -0.4791353911
O  O106  1  0.82650000  0.69800000  0.22670000  1.0 -0.4791353911
O  O107  1  0.67350000  0.80200000  0.72670000  1.0 -0.4791353911
O  O108  1  0.32650000  0.30200000  0.77330000  1.0 -0.4791353911
O  O109  1  0.09980000  0.74690000  0.91648000  1.0 -0.470368799
O  O110  1  0.90020000  0.24690000  0.58352000  1.0 -0.470368799
O  O111  1  0.59980000  0.25310000  0.08352000  1.0 -0.470368799
O  O112  1  0.40020000  0.75310000  0.41648000  1.0 -0.470368799
O  O113  1  0.90020000  0.25310000  0.08352000  1.0 -0.470368799
O  O114  1  0.09980000  0.75310000  0.41648000  1.0 -0.470368799
O  O115  1  0.40020000  0.74690000  0.91648000  1.0 -0.470368799
O  O116  1  0.59980000  0.24690000  0.58352000  1.0 -0.470368799
O  O117  1  0.17250000  0.73650000  0.81980000  1.0 -0.5006249789
O  O118  1  0.82750000  0.23650000  0.68020000  1.0 -0.5006249789
O  O119  1  0.67250000  0.26350000  0.18020000  1.0 -0.5006249789
O  O120  1  0.32750000  0.76350000  0.31980000  1.0 -0.5006249789
O  O121  1  0.82750000  0.26350000  0.18020000  1.0 -0.5006249789
O  O122  1  0.17250000  0.76350000  0.31980000  1.0 -0.5006249789
O  O123  1  0.32750000  0.73650000  0.81980000  1.0 -0.5006249789
O  O124  1  0.67250000  0.23650000  0.68020000  1.0 -0.5006249789
O  O125  1  0.82790000  0.03110000  0.95520000  1.0 -0.4886139117
O  O126  1  0.17210000  0.53110000  0.54480000  1.0 -0.4886139117
O  O127  1  0.32790000  0.96890000  0.04480000  1.0 -0.4886139117
O  O128  1  0.67210000  0.46890000  0.45520000  1.0 -0.4886139117
O  O129  1  0.17210000  0.96890000  0.04480000  1.0 -0.4886139117
O  O130  1  0.82790000  0.46890000  0.45520000  1.0 -0.4886139117
O  O131  1  0.67210000  0.03110000  0.95520000  1.0 -0.4886139117
O  O132  1  0.32790000  0.53110000  0.54480000  1.0 -0.4886139117
O  O133  1  0.13680000  0.52040000  0.64668000  1.0 -0.4886139117
O  O134  1  0.86320000  0.02040000  0.85332000  1.0 -0.4886139117
O  O135  1  0.63680000  0.47960000  0.35332000  1.0 -0.4886139117
O  O136  1  0.36320000  0.97960000  0.14668000  1.0 -0.4886139117
O  O137  1  0.86320000  0.47960000  0.35332000  1.0 -0.4886139117
O  O138  1  0.13680000  0.97960000  0.14668000  1.0 -0.4886139117
O  O139  1  0.36320000  0.52040000  0.64668000  1.0 -0.4886139117
O  O140  1  0.63680000  0.02040000  0.85332000  1.0 -0.4886139117
O  O141  1  0.08050000  0.86760000  0.66050000  1.0 -0.4096732445
O  O142  1  0.91950000  0.36760000  0.83950000  1.0 -0.4096732445
O  O143  1  0.58050000  0.13240000  0.33950000  1.0 -0.4096732445
O  O144  1  0.41950000  0.63240000  0.16050000  1.0 -0.4096732445
O  O145  1  0.91950000  0.13240000  0.33950000  1.0 -0.4096732445
O  O146  1  0.08050000  0.63240000  0.16050000  1.0 -0.4096732445
O  O147  1  0.41950000  0.86760000  0.66050000  1.0 -0.4096732445
O  O148  1  0.58050000  0.36760000  0.83950000  1.0 -0.4096732445
O  O149  1  0.11350000  0.59050000  0.66810000  1.0 -0.4473094369
O  O150  1  0.88650000  0.09050000  0.83190000  1.0 -0.4473094369
O  O151  1  0.61350000  0.40950000  0.33190000  1.0 -0.4473094369
O  O152  1  0.38650000  0.90950000  0.16810000  1.0 -0.4473094369
O  O153  1  0.88650000  0.40950000  0.33190000  1.0 -0.4473094369
O  O154  1  0.11350000  0.90950000  0.16810000  1.0 -0.4473094369
O  O155  1  0.38650000  0.59050000  0.66810000  1.0 -0.4473094369
O  O156  1  0.61350000  0.09050000  0.83190000  1.0 -0.4473094369
O  O157  1  0.13010000  0.63640000  0.81970000  1.0 -0.5184993361
O  O158  1  0.86990000  0.13640000  0.68030000  1.0 -0.5184993361
O  O159  1  0.63010000  0.36360000  0.18030000  1.0 -0.5184993361
O  O160  1  0.36990000  0.86360000  0.31970000  1.0 -0.5184993361
O  O161  1  0.86990000  0.36360000  0.18030000  1.0 -0.5184993361
O  O162  1  0.13010000  0.86360000  0.31970000  1.0 -0.5184993361
O  O163  1  0.36990000  0.63640000  0.81970000  1.0 -0.5184993361
O  O164  1  0.63010000  0.13640000  0.68030000  1.0 -0.5184993361
O  O165  1  0.11560000  0.59030000  0.87770000  1.0 -0.3790230852
O  O166  1  0.88440000  0.09030000  0.62230000  1.0 -0.3790230852
O  O167  1  0.61560000  0.40970000  0.12230000  1.0 -0.3790230852
O  O168  1  0.38440000  0.90970000  0.37770000  1.0 -0.3790230852
O  O169  1  0.88440000  0.40970000  0.12230000  1.0 -0.3790230852
O  O170  1  0.11560000  0.90970000  0.37770000  1.0 -0.3790230852
O  O171  1  0.38440000  0.59030000  0.87770000  1.0 -0.3790230852
O  O172  1  0.61560000  0.09030000  0.62230000  1.0 -0.3790230852
O  O173  1  0.92530000  0.64390000  0.85740000  1.0 -0.4412481708
O  O174  1  0.07470000  0.14390000  0.64260000  1.0 -0.4412481708
O  O175  1  0.42530000  0.35610000  0.14260000  1.0 -0.4412481708
O  O176  1  0.57470000  0.85610000  0.35740000  1.0 -0.4412481708
O  O177  1  0.07470000  0.35610000  0.14260000  1.0 -0.4412481708
O  O178  1  0.92530000  0.85610000  0.35740000  1.0 -0.4412481708
O  O179  1  0.57470000  0.64390000  0.85740000  1.0 -0.4412481708
O  O180  1  0.42530000  0.14390000  0.64260000  1.0 -0.4412481708
