# DDEC6 charges by PACMAN v1.1 (https://github.com/mtap-research/PACMAN-charge/)
data_IYUQEZ_ASR_pacman
_symmetry_space_group_name_H-M   'P 1'
_cell_length_a   31.25100000
_cell_length_b   31.25100000
_cell_length_c   31.25100000
_cell_angle_alpha   90.00000000
_cell_angle_beta   90.00000000
_cell_angle_gamma   90.00000000
_symmetry_Int_Tables_number   1
_chemical_formula_structural   Na13C141(N10O)6
_chemical_formula_sum   'Na52 C564 N240 O24'
_cell_volume   30520.50790625
_cell_formula_units_Z   4
loop_
 _symmetry_equiv_pos_site_id
 _symmetry_equiv_pos_as_xyz
  1  'x, y, z'
loop_
 _atom_site_type_symbol
 _atom_site_label
 _atom_site_symmetry_multiplicity
 _atom_site_fract_x
 _atom_site_fract_y
 _atom_site_fract_z
 _atom_site_occupancy
 _atom_site_charge
Na  Na1  1  0.18562000  0.81438000  0.18562000  1.0 0.8515946242
Na  Na2  1  0.81438000  0.18562000  0.18562000  1.0 0.8378315924
Na  Na3  1  0.81438000  0.81438000  0.81438000  1.0 0.8378315924
Na  Na4  1  0.18562000  0.18562000  0.81438000  1.0 0.8515946242
Na  Na5  1  0.31438000  0.68562000  0.31438000  1.0 0.8515946242
Na  Na6  1  0.68562000  0.31438000  0.31438000  1.0 0.8515946242
Na  Na7  1  0.31438000  0.31438000  0.68562000  1.0 0.8556436075
Na  Na8  1  0.68562000  0.68562000  0.68562000  1.0 0.8515946242
Na  Na9  1  0.81438000  0.18562000  0.81438000  1.0 0.8378315924
Na  Na10  1  0.18562000  0.81438000  0.81438000  1.0 0.8515946242
Na  Na11  1  0.18562000  0.18562000  0.18562000  1.0 0.8556436075
Na  Na12  1  0.81438000  0.81438000  0.18562000  1.0 0.8378315924
Na  Na13  1  0.68562000  0.31438000  0.68562000  1.0 0.8515946242
Na  Na14  1  0.31438000  0.68562000  0.68562000  1.0 0.8515946242
Na  Na15  1  0.68562000  0.68562000  0.31438000  1.0 0.8515946242
Na  Na16  1  0.31438000  0.31438000  0.31438000  1.0 0.8556436075
Na  Na17  1  0.30462000  0.87966000  0.00000000  1.0 0.8378315924
Na  Na18  1  0.69538000  0.12034000  0.00000000  1.0 0.8378315924
Na  Na19  1  0.69538000  0.87966000  0.00000000  1.0 0.8378315924
Na  Na20  1  0.30462000  0.12034000  0.00000000  1.0 0.8378315924
Na  Na21  1  0.00000000  0.30462000  0.87966000  1.0 0.8378315924
Na  Na22  1  0.00000000  0.69538000  0.12034000  1.0 0.8378315924
Na  Na23  1  0.00000000  0.69538000  0.87966000  1.0 0.8378315924
Na  Na24  1  0.00000000  0.30462000  0.12034000  1.0 0.8378315924
Na  Na25  1  0.87966000  0.00000000  0.30462000  1.0 0.8378315924
Na  Na26  1  0.12034000  0.00000000  0.69538000  1.0 0.8378315924
Na  Na27  1  0.87966000  0.00000000  0.69538000  1.0 0.8378315924
Na  Na28  1  0.12034000  0.00000000  0.30462000  1.0 0.8378315924
Na  Na29  1  0.37966000  0.80462000  0.50000000  1.0 0.8378315924
Na  Na30  1  0.62034000  0.19538000  0.50000000  1.0 0.8378315924
Na  Na31  1  0.37966000  0.19538000  0.50000000  1.0 0.8378315924
Na  Na32  1  0.62034000  0.80462000  0.50000000  1.0 0.8378315924
Na  Na33  1  0.80462000  0.50000000  0.62034000  1.0 0.8378315924
Na  Na34  1  0.19538000  0.50000000  0.37966000  1.0 0.8378315924
Na  Na35  1  0.19538000  0.50000000  0.62034000  1.0 0.8378315924
Na  Na36  1  0.80462000  0.50000000  0.37966000  1.0 0.8378315924
Na  Na37  1  0.50000000  0.37966000  0.19538000  1.0 0.8378315924
Na  Na38  1  0.50000000  0.62034000  0.80462000  1.0 0.8378315924
Na  Na39  1  0.50000000  0.37966000  0.80462000  1.0 0.8378315924
Na  Na40  1  0.50000000  0.62034000  0.19538000  1.0 0.8378315924
Na  Na41  1  0.50000000  0.76920000  0.00000000  1.0 0.5471275223
Na  Na42  1  0.50000000  0.23080000  0.00000000  1.0 0.5471275223
Na  Na43  1  0.00000000  0.50000000  0.76920000  1.0 0.5471275223
Na  Na44  1  0.00000000  0.50000000  0.23080000  1.0 0.5471275223
Na  Na45  1  0.76920000  0.00000000  0.50000000  1.0 0.5471275223
Na  Na46  1  0.23080000  0.00000000  0.50000000  1.0 0.5471275223
Na  Na47  1  0.26920000  0.00000000  0.50000000  1.0 0.5471275223
Na  Na48  1  0.73080000  0.00000000  0.50000000  1.0 0.5471275223
Na  Na49  1  0.00000000  0.50000000  0.73080000  1.0 0.5471275223
Na  Na50  1  0.00000000  0.50000000  0.26920000  1.0 0.5471275223
Na  Na51  1  0.50000000  0.26920000  0.00000000  1.0 0.5471275223
Na  Na52  1  0.50000000  0.73080000  0.00000000  1.0 0.5471275223
C  C1  1  0.07932000  0.84434000  0.20890000  1.0 0.277403388
C  C2  1  0.92068000  0.15566000  0.20890000  1.0 0.277403388
C  C3  1  0.92068000  0.84434000  0.79110000  1.0 0.277403388
C  C4  1  0.07932000  0.15566000  0.79110000  1.0 0.277403388
C  C5  1  0.20890000  0.07932000  0.84434000  1.0 0.277403388
C  C6  1  0.20890000  0.92068000  0.15566000  1.0 0.277403388
C  C7  1  0.79110000  0.92068000  0.84434000  1.0 0.277403388
C  C8  1  0.79110000  0.07932000  0.15566000  1.0 0.277403388
C  C9  1  0.84434000  0.20890000  0.07932000  1.0 0.277403388
C  C10  1  0.15566000  0.20890000  0.92068000  1.0 0.277403388
C  C11  1  0.84434000  0.79110000  0.92068000  1.0 0.277403388
C  C12  1  0.15566000  0.79110000  0.07932000  1.0 0.277403388
C  C13  1  0.34434000  0.57932000  0.29110000  1.0 0.277403388
C  C14  1  0.65566000  0.42068000  0.29110000  1.0 0.277403388
C  C15  1  0.34434000  0.42068000  0.70890000  1.0 0.277403388
C  C16  1  0.65566000  0.57932000  0.70890000  1.0 0.277403388
C  C17  1  0.57932000  0.70890000  0.65566000  1.0 0.277403388
C  C18  1  0.42068000  0.70890000  0.34434000  1.0 0.277403388
C  C19  1  0.42068000  0.29110000  0.65566000  1.0 0.277403388
C  C20  1  0.57932000  0.29110000  0.34434000  1.0 0.277403388
C  C21  1  0.70890000  0.34434000  0.42068000  1.0 0.277403388
C  C22  1  0.70890000  0.65566000  0.57932000  1.0 0.277403388
C  C23  1  0.29110000  0.34434000  0.57932000  1.0 0.277403388
C  C24  1  0.29110000  0.65566000  0.42068000  1.0 0.277403388
C  C25  1  0.92068000  0.15566000  0.79110000  1.0 0.277403388
C  C26  1  0.07932000  0.84434000  0.79110000  1.0 0.277403388
C  C27  1  0.07932000  0.15566000  0.20890000  1.0 0.277403388
C  C28  1  0.92068000  0.84434000  0.20890000  1.0 0.277403388
C  C29  1  0.79110000  0.92068000  0.15566000  1.0 0.277403388
C  C30  1  0.79110000  0.07932000  0.84434000  1.0 0.277403388
C  C31  1  0.20890000  0.07932000  0.15566000  1.0 0.277403388
C  C32  1  0.20890000  0.92068000  0.84434000  1.0 0.277403388
C  C33  1  0.15566000  0.79110000  0.92068000  1.0 0.277403388
C  C34  1  0.84434000  0.79110000  0.07932000  1.0 0.277403388
C  C35  1  0.15566000  0.20890000  0.07932000  1.0 0.277403388
C  C36  1  0.84434000  0.20890000  0.92068000  1.0 0.277403388
C  C37  1  0.65566000  0.42068000  0.70890000  1.0 0.277403388
C  C38  1  0.34434000  0.57932000  0.70890000  1.0 0.277403388
C  C39  1  0.65566000  0.57932000  0.29110000  1.0 0.277403388
C  C40  1  0.34434000  0.42068000  0.29110000  1.0 0.277403388
C  C41  1  0.42068000  0.29110000  0.34434000  1.0 0.277403388
C  C42  1  0.57932000  0.29110000  0.65566000  1.0 0.277403388
C  C43  1  0.57932000  0.70890000  0.34434000  1.0 0.277403388
C  C44  1  0.42068000  0.70890000  0.65566000  1.0 0.277403388
C  C45  1  0.29110000  0.65566000  0.57932000  1.0 0.277403388
C  C46  1  0.29110000  0.34434000  0.42068000  1.0 0.277403388
C  C47  1  0.70890000  0.65566000  0.42068000  1.0 0.277403388
C  C48  1  0.70890000  0.34434000  0.57932000  1.0 0.277403388
C  C49  1  0.04906000  0.92143000  0.26181000  1.0 0.277403388
C  C50  1  0.95094000  0.07857000  0.26181000  1.0 0.277403388
C  C51  1  0.95094000  0.92143000  0.73819000  1.0 0.277403388
C  C52  1  0.04906000  0.07857000  0.73819000  1.0 0.277403388
C  C53  1  0.26181000  0.04906000  0.92143000  1.0 0.277403388
C  C54  1  0.26181000  0.95094000  0.07857000  1.0 0.277403388
C  C55  1  0.73819000  0.95094000  0.92143000  1.0 0.277403388
C  C56  1  0.73819000  0.04906000  0.07857000  1.0 0.277403388
C  C57  1  0.92143000  0.26181000  0.04906000  1.0 0.277403388
C  C58  1  0.07857000  0.26181000  0.95094000  1.0 0.277403388
C  C59  1  0.92143000  0.73819000  0.95094000  1.0 0.277403388
C  C60  1  0.07857000  0.73819000  0.04906000  1.0 0.277403388
C  C61  1  0.42143000  0.54906000  0.23819000  1.0 0.277403388
C  C62  1  0.57857000  0.45094000  0.23819000  1.0 0.277403388
C  C63  1  0.42143000  0.45094000  0.76181000  1.0 0.277403388
C  C64  1  0.57857000  0.54906000  0.76181000  1.0 0.277403388
C  C65  1  0.54906000  0.76181000  0.57857000  1.0 0.277403388
C  C66  1  0.45094000  0.76181000  0.42143000  1.0 0.277403388
C  C67  1  0.45094000  0.23819000  0.57857000  1.0 0.277403388
C  C68  1  0.54906000  0.23819000  0.42143000  1.0 0.277403388
C  C69  1  0.76181000  0.42143000  0.45094000  1.0 0.277403388
C  C70  1  0.76181000  0.57857000  0.54906000  1.0 0.277403388
C  C71  1  0.23819000  0.42143000  0.54906000  1.0 0.277403388
C  C72  1  0.23819000  0.57857000  0.45094000  1.0 0.277403388
C  C73  1  0.95094000  0.07857000  0.73819000  1.0 0.277403388
C  C74  1  0.04906000  0.92143000  0.73819000  1.0 0.277403388
C  C75  1  0.04906000  0.07857000  0.26181000  1.0 0.277403388
C  C76  1  0.95094000  0.92143000  0.26181000  1.0 0.277403388
C  C77  1  0.73819000  0.95094000  0.07857000  1.0 0.277403388
C  C78  1  0.73819000  0.04906000  0.92143000  1.0 0.277403388
C  C79  1  0.26181000  0.04906000  0.07857000  1.0 0.277403388
C  C80  1  0.26181000  0.95094000  0.92143000  1.0 0.277403388
C  C81  1  0.07857000  0.73819000  0.95094000  1.0 0.277403388
C  C82  1  0.92143000  0.73819000  0.04906000  1.0 0.277403388
C  C83  1  0.07857000  0.26181000  0.04906000  1.0 0.277403388
C  C84  1  0.92143000  0.26181000  0.95094000  1.0 0.277403388
C  C85  1  0.57857000  0.45094000  0.76181000  1.0 0.277403388
C  C86  1  0.42143000  0.54906000  0.76181000  1.0 0.277403388
C  C87  1  0.57857000  0.54906000  0.23819000  1.0 0.277403388
C  C88  1  0.42143000  0.45094000  0.23819000  1.0 0.277403388
C  C89  1  0.45094000  0.23819000  0.42143000  1.0 0.277403388
C  C90  1  0.54906000  0.23819000  0.57857000  1.0 0.277403388
C  C91  1  0.54906000  0.76181000  0.42143000  1.0 0.277403388
C  C92  1  0.45094000  0.76181000  0.57857000  1.0 0.277403388
C  C93  1  0.23819000  0.57857000  0.54906000  1.0 0.277403388
C  C94  1  0.23819000  0.42143000  0.45094000  1.0 0.277403388
C  C95  1  0.76181000  0.57857000  0.45094000  1.0 0.277403388
C  C96  1  0.76181000  0.42143000  0.54906000  1.0 0.277403388
C  C97  1  0.00000000  0.79600000  0.17730000  1.0 0.2705048048
C  C98  1  0.00000000  0.20400000  0.17730000  1.0 0.2705048048
C  C99  1  0.00000000  0.79600000  0.82270000  1.0 0.2705048048
C  C100  1  0.00000000  0.20400000  0.82270000  1.0 0.2705048048
C  C101  1  0.17730000  0.00000000  0.79600000  1.0 0.2705048048
C  C102  1  0.17730000  0.00000000  0.20400000  1.0 0.2705048048
C  C103  1  0.82270000  0.00000000  0.79600000  1.0 0.2705048048
C  C104  1  0.82270000  0.00000000  0.20400000  1.0 0.2705048048
C  C105  1  0.79600000  0.17730000  0.00000000  1.0 0.2705048048
C  C106  1  0.20400000  0.17730000  0.00000000  1.0 0.2705048048
C  C107  1  0.79600000  0.82270000  0.00000000  1.0 0.2705048048
C  C108  1  0.20400000  0.82270000  0.00000000  1.0 0.2705048048
C  C109  1  0.29600000  0.50000000  0.32270000  1.0 0.2705048048
C  C110  1  0.70400000  0.50000000  0.32270000  1.0 0.2705048048
C  C111  1  0.29600000  0.50000000  0.67730000  1.0 0.2705048048
C  C112  1  0.70400000  0.50000000  0.67730000  1.0 0.2705048048
C  C113  1  0.50000000  0.67730000  0.70400000  1.0 0.2705048048
C  C114  1  0.50000000  0.67730000  0.29600000  1.0 0.2705048048
C  C115  1  0.50000000  0.32270000  0.70400000  1.0 0.2705048048
C  C116  1  0.50000000  0.32270000  0.29600000  1.0 0.2705048048
C  C117  1  0.67730000  0.29600000  0.50000000  1.0 0.2705048048
C  C118  1  0.67730000  0.70400000  0.50000000  1.0 0.2705048048
C  C119  1  0.32270000  0.29600000  0.50000000  1.0 0.2705048048
C  C120  1  0.32270000  0.70400000  0.50000000  1.0 0.2705048048
C  C121  1  0.29089000  0.78371000  0.15960000  1.0 0.277403388
C  C122  1  0.70911000  0.21629000  0.15960000  1.0 0.277403388
C  C123  1  0.70911000  0.78371000  0.84040000  1.0 0.277403388
C  C124  1  0.29089000  0.21629000  0.84040000  1.0 0.277403388
C  C125  1  0.15960000  0.29089000  0.78371000  1.0 0.277403388
C  C126  1  0.15960000  0.70911000  0.21629000  1.0 0.277403388
C  C127  1  0.84040000  0.70911000  0.78371000  1.0 0.277403388
C  C128  1  0.84040000  0.29089000  0.21629000  1.0 0.277403388
C  C129  1  0.78371000  0.15960000  0.29089000  1.0 0.277403388
C  C130  1  0.21629000  0.15960000  0.70911000  1.0 0.277403388
C  C131  1  0.78371000  0.84040000  0.70911000  1.0 0.277403388
C  C132  1  0.21629000  0.84040000  0.29089000  1.0 0.277403388
C  C133  1  0.28371000  0.79089000  0.34040000  1.0 0.277403388
C  C134  1  0.71629000  0.20911000  0.34040000  1.0 0.277403388
C  C135  1  0.28371000  0.20911000  0.65960000  1.0 0.277403388
C  C136  1  0.71629000  0.79089000  0.65960000  1.0 0.277403388
C  C137  1  0.79089000  0.65960000  0.71629000  1.0 0.277403388
C  C138  1  0.20911000  0.65960000  0.28371000  1.0 0.277403388
C  C139  1  0.20911000  0.34040000  0.71629000  1.0 0.277403388
C  C140  1  0.79089000  0.34040000  0.28371000  1.0 0.277403388
C  C141  1  0.65960000  0.28371000  0.20911000  1.0 0.277403388
C  C142  1  0.65960000  0.71629000  0.79089000  1.0 0.277403388
C  C143  1  0.34040000  0.28371000  0.79089000  1.0 0.277403388
C  C144  1  0.34040000  0.71629000  0.20911000  1.0 0.277403388
C  C145  1  0.70911000  0.21629000  0.84040000  1.0 0.277403388
C  C146  1  0.29089000  0.78371000  0.84040000  1.0 0.277403388
C  C147  1  0.29089000  0.21629000  0.15960000  1.0 0.277403388
C  C148  1  0.70911000  0.78371000  0.15960000  1.0 0.277403388
C  C149  1  0.84040000  0.70911000  0.21629000  1.0 0.277403388
C  C150  1  0.84040000  0.29089000  0.78371000  1.0 0.277403388
C  C151  1  0.15960000  0.29089000  0.21629000  1.0 0.277403388
C  C152  1  0.15960000  0.70911000  0.78371000  1.0 0.277403388
C  C153  1  0.21629000  0.84040000  0.70911000  1.0 0.277403388
C  C154  1  0.78371000  0.84040000  0.29089000  1.0 0.277403388
C  C155  1  0.21629000  0.15960000  0.29089000  1.0 0.277403388
C  C156  1  0.78371000  0.15960000  0.70911000  1.0 0.277403388
C  C157  1  0.71629000  0.20911000  0.65960000  1.0 0.277403388
C  C158  1  0.28371000  0.79089000  0.65960000  1.0 0.277403388
C  C159  1  0.71629000  0.79089000  0.34040000  1.0 0.277403388
C  C160  1  0.28371000  0.20911000  0.34040000  1.0 0.277403388
C  C161  1  0.20911000  0.34040000  0.28371000  1.0 0.277403388
C  C162  1  0.79089000  0.34040000  0.71629000  1.0 0.277403388
C  C163  1  0.79089000  0.65960000  0.28371000  1.0 0.277403388
C  C164  1  0.20911000  0.65960000  0.71629000  1.0 0.277403388
C  C165  1  0.34040000  0.71629000  0.79089000  1.0 0.277403388
C  C166  1  0.34040000  0.28371000  0.20911000  1.0 0.277403388
C  C167  1  0.65960000  0.71629000  0.20911000  1.0 0.277403388
C  C168  1  0.65960000  0.28371000  0.79089000  1.0 0.277403388
C  C169  1  0.34180000  0.80640000  0.07866000  1.0 0.277403388
C  C170  1  0.65820000  0.19360000  0.07866000  1.0 0.277403388
C  C171  1  0.65820000  0.80640000  0.92134000  1.0 0.277403388
C  C172  1  0.34180000  0.19360000  0.92134000  1.0 0.277403388
C  C173  1  0.07866000  0.34180000  0.80640000  1.0 0.277403388
C  C174  1  0.07866000  0.65820000  0.19360000  1.0 0.277403388
C  C175  1  0.92134000  0.65820000  0.80640000  1.0 0.277403388
C  C176  1  0.92134000  0.34180000  0.19360000  1.0 0.277403388
C  C177  1  0.80640000  0.07866000  0.34180000  1.0 0.277403388
C  C178  1  0.19360000  0.07866000  0.65820000  1.0 0.277403388
C  C179  1  0.80640000  0.92134000  0.65820000  1.0 0.277403388
C  C180  1  0.19360000  0.92134000  0.34180000  1.0 0.277403388
C  C181  1  0.30640000  0.84180000  0.42134000  1.0 0.277403388
C  C182  1  0.69360000  0.15820000  0.42134000  1.0 0.277403388
C  C183  1  0.30640000  0.15820000  0.57866000  1.0 0.277403388
C  C184  1  0.69360000  0.84180000  0.57866000  1.0 0.277403388
C  C185  1  0.84180000  0.57866000  0.69360000  1.0 0.277403388
C  C186  1  0.15820000  0.57866000  0.30640000  1.0 0.277403388
C  C187  1  0.15820000  0.42134000  0.69360000  1.0 0.277403388
C  C188  1  0.84180000  0.42134000  0.30640000  1.0 0.277403388
C  C189  1  0.57866000  0.30640000  0.15820000  1.0 0.277403388
C  C190  1  0.57866000  0.69360000  0.84180000  1.0 0.277403388
C  C191  1  0.42134000  0.30640000  0.84180000  1.0 0.277403388
C  C192  1  0.42134000  0.69360000  0.15820000  1.0 0.277403388
C  C193  1  0.65820000  0.19360000  0.92134000  1.0 0.277403388
C  C194  1  0.34180000  0.80640000  0.92134000  1.0 0.277403388
C  C195  1  0.34180000  0.19360000  0.07866000  1.0 0.277403388
C  C196  1  0.65820000  0.80640000  0.07866000  1.0 0.277403388
C  C197  1  0.92134000  0.65820000  0.19360000  1.0 0.277403388
C  C198  1  0.92134000  0.34180000  0.80640000  1.0 0.277403388
C  C199  1  0.07866000  0.34180000  0.19360000  1.0 0.277403388
C  C200  1  0.07866000  0.65820000  0.80640000  1.0 0.277403388
C  C201  1  0.19360000  0.92134000  0.65820000  1.0 0.277403388
C  C202  1  0.80640000  0.92134000  0.34180000  1.0 0.277403388
C  C203  1  0.19360000  0.07866000  0.34180000  1.0 0.277403388
C  C204  1  0.80640000  0.07866000  0.65820000  1.0 0.277403388
C  C205  1  0.69360000  0.15820000  0.57866000  1.0 0.277403388
C  C206  1  0.30640000  0.84180000  0.57866000  1.0 0.277403388
C  C207  1  0.69360000  0.84180000  0.42134000  1.0 0.277403388
C  C208  1  0.30640000  0.15820000  0.42134000  1.0 0.277403388
C  C209  1  0.15820000  0.42134000  0.30640000  1.0 0.277403388
C  C210  1  0.84180000  0.42134000  0.69360000  1.0 0.277403388
C  C211  1  0.84180000  0.57866000  0.30640000  1.0 0.277403388
C  C212  1  0.15820000  0.57866000  0.69360000  1.0 0.277403388
C  C213  1  0.42134000  0.69360000  0.84180000  1.0 0.277403388
C  C214  1  0.42134000  0.30640000  0.15820000  1.0 0.277403388
C  C215  1  0.57866000  0.69360000  0.15820000  1.0 0.277403388
C  C216  1  0.57866000  0.30640000  0.84180000  1.0 0.277403388
C  C217  1  0.42240000  0.75000000  0.07760000  1.0 0.3243167771
C  C218  1  0.57760000  0.25000000  0.07760000  1.0 0.3243167771
C  C219  1  0.57760000  0.75000000  0.92240000  1.0 0.3243167771
C  C220  1  0.42240000  0.25000000  0.92240000  1.0 0.3243167771
C  C221  1  0.07760000  0.42240000  0.75000000  1.0 0.3243167771
C  C222  1  0.07760000  0.57760000  0.25000000  1.0 0.3243167771
C  C223  1  0.92240000  0.57760000  0.75000000  1.0 0.3243167771
C  C224  1  0.92240000  0.42240000  0.25000000  1.0 0.3243167771
C  C225  1  0.75000000  0.07760000  0.42240000  1.0 0.3243167771
C  C226  1  0.25000000  0.07760000  0.57760000  1.0 0.3243167771
C  C227  1  0.75000000  0.92240000  0.57760000  1.0 0.3243167771
C  C228  1  0.25000000  0.92240000  0.42240000  1.0 0.3243167771
C  C229  1  0.57760000  0.25000000  0.92240000  1.0 0.3243167771
C  C230  1  0.42240000  0.75000000  0.92240000  1.0 0.3243167771
C  C231  1  0.42240000  0.25000000  0.07760000  1.0 0.3243167771
C  C232  1  0.57760000  0.75000000  0.07760000  1.0 0.3243167771
C  C233  1  0.92240000  0.57760000  0.25000000  1.0 0.3243167771
C  C234  1  0.92240000  0.42240000  0.75000000  1.0 0.3243167771
C  C235  1  0.07760000  0.42240000  0.25000000  1.0 0.3243167771
C  C236  1  0.07760000  0.57760000  0.75000000  1.0 0.3243167771
C  C237  1  0.25000000  0.92240000  0.57760000  1.0 0.3243167771
C  C238  1  0.75000000  0.92240000  0.42240000  1.0 0.3243167771
C  C239  1  0.25000000  0.07760000  0.42240000  1.0 0.3243167771
C  C240  1  0.75000000  0.07760000  0.57760000  1.0 0.3243167771
C  C241  1  0.03632000  0.85580000  0.21746000  1.0 -0.0433594573
C  C242  1  0.96368000  0.14420000  0.21746000  1.0 -0.0488683957
C  C243  1  0.96368000  0.85580000  0.78254000  1.0 -0.0488683957
C  C244  1  0.03632000  0.14420000  0.78254000  1.0 -0.0488683957
C  C245  1  0.21746000  0.03632000  0.85580000  1.0 -0.0433594573
C  C246  1  0.21746000  0.96368000  0.14420000  1.0 -0.0488683957
C  C247  1  0.78254000  0.96368000  0.85580000  1.0 -0.0488683957
C  C248  1  0.78254000  0.03632000  0.14420000  1.0 -0.0488683957
C  C249  1  0.85580000  0.21746000  0.03632000  1.0 -0.0433594573
C  C250  1  0.14420000  0.21746000  0.96368000  1.0 -0.0488683957
C  C251  1  0.85580000  0.78254000  0.96368000  1.0 -0.0488683957
C  C252  1  0.14420000  0.78254000  0.03632000  1.0 -0.0488683957
C  C253  1  0.35580000  0.53632000  0.28254000  1.0 -0.0488683957
C  C254  1  0.64420000  0.46368000  0.28254000  1.0 -0.0488683957
C  C255  1  0.35580000  0.46368000  0.71746000  1.0 -0.0488683957
C  C256  1  0.64420000  0.53632000  0.71746000  1.0 -0.0488683957
C  C257  1  0.53632000  0.71746000  0.64420000  1.0 -0.0488683957
C  C258  1  0.46368000  0.71746000  0.35580000  1.0 -0.0488683957
C  C259  1  0.46368000  0.28254000  0.64420000  1.0 -0.0488683957
C  C260  1  0.53632000  0.28254000  0.35580000  1.0 -0.0488683957
C  C261  1  0.71746000  0.35580000  0.46368000  1.0 -0.0488683957
C  C262  1  0.71746000  0.64420000  0.53632000  1.0 -0.0488683957
C  C263  1  0.28254000  0.35580000  0.53632000  1.0 -0.0488683957
C  C264  1  0.28254000  0.64420000  0.46368000  1.0 -0.0488683957
C  C265  1  0.96368000  0.14420000  0.78254000  1.0 -0.0488683957
C  C266  1  0.03632000  0.85580000  0.78254000  1.0 -0.0488683957
C  C267  1  0.03632000  0.14420000  0.21746000  1.0 -0.0488683957
C  C268  1  0.96368000  0.85580000  0.21746000  1.0 -0.0488683957
C  C269  1  0.78254000  0.96368000  0.14420000  1.0 -0.0488683957
C  C270  1  0.78254000  0.03632000  0.85580000  1.0 -0.0488683957
C  C271  1  0.21746000  0.03632000  0.14420000  1.0 -0.0488683957
C  C272  1  0.21746000  0.96368000  0.85580000  1.0 -0.0488683957
C  C273  1  0.14420000  0.78254000  0.96368000  1.0 -0.0488683957
C  C274  1  0.85580000  0.78254000  0.03632000  1.0 -0.0488683957
C  C275  1  0.14420000  0.21746000  0.03632000  1.0 -0.0488683957
C  C276  1  0.85580000  0.21746000  0.96368000  1.0 -0.0488683957
C  C277  1  0.64420000  0.46368000  0.71746000  1.0 -0.0488683957
C  C278  1  0.35580000  0.53632000  0.71746000  1.0 -0.0488683957
C  C279  1  0.64420000  0.53632000  0.28254000  1.0 -0.0488683957
C  C280  1  0.35580000  0.46368000  0.28254000  1.0 -0.0488683957
C  C281  1  0.46368000  0.28254000  0.35580000  1.0 -0.0488683957
C  C282  1  0.53632000  0.28254000  0.64420000  1.0 -0.0488683957
C  C283  1  0.53632000  0.71746000  0.35580000  1.0 -0.0488683957
C  C284  1  0.46368000  0.71746000  0.64420000  1.0 -0.0488683957
C  C285  1  0.28254000  0.64420000  0.53632000  1.0 -0.0488683957
C  C286  1  0.28254000  0.35580000  0.46368000  1.0 -0.0488683957
C  C287  1  0.71746000  0.64420000  0.46368000  1.0 -0.0488683957
C  C288  1  0.71746000  0.35580000  0.53632000  1.0 -0.0488683957
C  C289  1  0.02235000  0.89099000  0.24126000  1.0 -0.0488683957
C  C290  1  0.97765000  0.10901000  0.24126000  1.0 -0.0488683957
C  C291  1  0.97765000  0.89099000  0.75874000  1.0 -0.0488683957
C  C292  1  0.02235000  0.10901000  0.75874000  1.0 -0.0488683957
C  C293  1  0.24126000  0.02235000  0.89099000  1.0 -0.0488683957
C  C294  1  0.24126000  0.97765000  0.10901000  1.0 -0.0488683957
C  C295  1  0.75874000  0.97765000  0.89099000  1.0 -0.0488683957
C  C296  1  0.75874000  0.02235000  0.10901000  1.0 -0.0488683957
C  C297  1  0.89099000  0.24126000  0.02235000  1.0 -0.0488683957
C  C298  1  0.10901000  0.24126000  0.97765000  1.0 -0.0488683957
C  C299  1  0.89099000  0.75874000  0.97765000  1.0 -0.0488683957
C  C300  1  0.10901000  0.75874000  0.02235000  1.0 -0.0488683957
C  C301  1  0.39099000  0.52235000  0.25874000  1.0 -0.0488683957
C  C302  1  0.60901000  0.47765000  0.25874000  1.0 -0.0488683957
C  C303  1  0.39099000  0.47765000  0.74126000  1.0 -0.0488683957
C  C304  1  0.60901000  0.52235000  0.74126000  1.0 -0.0488683957
C  C305  1  0.52235000  0.74126000  0.60901000  1.0 -0.0488683957
C  C306  1  0.47765000  0.74126000  0.39099000  1.0 -0.0488683957
C  C307  1  0.47765000  0.25874000  0.60901000  1.0 -0.0488683957
C  C308  1  0.52235000  0.25874000  0.39099000  1.0 -0.0488683957
C  C309  1  0.74126000  0.39099000  0.47765000  1.0 -0.0488683957
C  C310  1  0.74126000  0.60901000  0.52235000  1.0 -0.0488683957
C  C311  1  0.25874000  0.39099000  0.52235000  1.0 -0.0488683957
C  C312  1  0.25874000  0.60901000  0.47765000  1.0 -0.0488683957
C  C313  1  0.97765000  0.10901000  0.75874000  1.0 -0.0488683957
C  C314  1  0.02235000  0.89099000  0.75874000  1.0 -0.0488683957
C  C315  1  0.02235000  0.10901000  0.24126000  1.0 -0.0488683957
C  C316  1  0.97765000  0.89099000  0.24126000  1.0 -0.0488683957
C  C317  1  0.75874000  0.97765000  0.10901000  1.0 -0.0488683957
C  C318  1  0.75874000  0.02235000  0.89099000  1.0 -0.0488683957
C  C319  1  0.24126000  0.02235000  0.10901000  1.0 -0.0488683957
C  C320  1  0.24126000  0.97765000  0.89099000  1.0 -0.0488683957
C  C321  1  0.10901000  0.75874000  0.97765000  1.0 -0.0488683957
C  C322  1  0.89099000  0.75874000  0.02235000  1.0 -0.0488683957
C  C323  1  0.10901000  0.24126000  0.02235000  1.0 -0.0488683957
C  C324  1  0.89099000  0.24126000  0.97765000  1.0 -0.0488683957
C  C325  1  0.60901000  0.47765000  0.74126000  1.0 -0.0488683957
C  C326  1  0.39099000  0.52235000  0.74126000  1.0 -0.0488683957
C  C327  1  0.60901000  0.52235000  0.25874000  1.0 -0.0488683957
C  C328  1  0.39099000  0.47765000  0.25874000  1.0 -0.0488683957
C  C329  1  0.47765000  0.25874000  0.39099000  1.0 -0.0488683957
C  C330  1  0.52235000  0.25874000  0.60901000  1.0 -0.0488683957
C  C331  1  0.52235000  0.74126000  0.39099000  1.0 -0.0488683957
C  C332  1  0.47765000  0.74126000  0.60901000  1.0 -0.0488683957
C  C333  1  0.25874000  0.60901000  0.52235000  1.0 -0.0488683957
C  C334  1  0.25874000  0.39099000  0.47765000  1.0 -0.0488683957
C  C335  1  0.74126000  0.60901000  0.47765000  1.0 -0.0488683957
C  C336  1  0.74126000  0.39099000  0.52235000  1.0 -0.0488683957
C  C337  1  0.00000000  0.83400000  0.20240000  1.0 -0.0433594573
C  C338  1  0.00000000  0.16600000  0.20240000  1.0 -0.0488683957
C  C339  1  0.00000000  0.83400000  0.79760000  1.0 -0.0433594573
C  C340  1  0.00000000  0.16600000  0.79760000  1.0 -0.0433594573
C  C341  1  0.20240000  0.00000000  0.83400000  1.0 -0.0433594573
C  C342  1  0.20240000  0.00000000  0.16600000  1.0 -0.0488683957
C  C343  1  0.79760000  0.00000000  0.83400000  1.0 -0.0433594573
C  C344  1  0.79760000  0.00000000  0.16600000  1.0 -0.0433594573
C  C345  1  0.83400000  0.20240000  0.00000000  1.0 -0.0433594573
C  C346  1  0.16600000  0.20240000  0.00000000  1.0 -0.0433594573
C  C347  1  0.83400000  0.79760000  0.00000000  1.0 -0.0433594573
C  C348  1  0.16600000  0.79760000  0.00000000  1.0 -0.0433594573
C  C349  1  0.33400000  0.50000000  0.29760000  1.0 -0.0433594573
C  C350  1  0.66600000  0.50000000  0.29760000  1.0 -0.0433594573
C  C351  1  0.33400000  0.50000000  0.70240000  1.0 -0.0433594573
C  C352  1  0.66600000  0.50000000  0.70240000  1.0 -0.0433594573
C  C353  1  0.50000000  0.70240000  0.66600000  1.0 -0.0433594573
C  C354  1  0.50000000  0.70240000  0.33400000  1.0 -0.0433594573
C  C355  1  0.50000000  0.29760000  0.66600000  1.0 -0.0433594573
C  C356  1  0.50000000  0.29760000  0.33400000  1.0 -0.0433594573
C  C357  1  0.70240000  0.33400000  0.50000000  1.0 -0.0433594573
C  C358  1  0.70240000  0.66600000  0.50000000  1.0 -0.0433594573
C  C359  1  0.29760000  0.33400000  0.50000000  1.0 -0.0433594573
C  C360  1  0.29760000  0.66600000  0.50000000  1.0 -0.0433594573
C  C361  1  0.33075000  0.76581000  0.14717000  1.0 -0.0488683957
C  C362  1  0.66925000  0.23419000  0.14717000  1.0 -0.0488683957
C  C363  1  0.66925000  0.76581000  0.85283000  1.0 -0.0488683957
C  C364  1  0.33075000  0.23419000  0.85283000  1.0 -0.0488683957
C  C365  1  0.14717000  0.33075000  0.76581000  1.0 -0.0488683957
C  C366  1  0.14717000  0.66925000  0.23419000  1.0 -0.0488683957
C  C367  1  0.85283000  0.66925000  0.76581000  1.0 -0.0488683957
C  C368  1  0.85283000  0.33075000  0.23419000  1.0 -0.0488683957
C  C369  1  0.76581000  0.14717000  0.33075000  1.0 -0.0488683957
C  C370  1  0.23419000  0.14717000  0.66925000  1.0 -0.0488683957
C  C371  1  0.76581000  0.85283000  0.66925000  1.0 -0.0488683957
C  C372  1  0.23419000  0.85283000  0.33075000  1.0 -0.0488683957
C  C373  1  0.26581000  0.83075000  0.35283000  1.0 -0.0488683957
C  C374  1  0.73419000  0.16925000  0.35283000  1.0 -0.0488683957
C  C375  1  0.26581000  0.16925000  0.64717000  1.0 -0.0488683957
C  C376  1  0.73419000  0.83075000  0.64717000  1.0 -0.0488683957
C  C377  1  0.83075000  0.64717000  0.73419000  1.0 -0.0488683957
C  C378  1  0.16925000  0.64717000  0.26581000  1.0 -0.0488683957
C  C379  1  0.16925000  0.35283000  0.73419000  1.0 -0.0488683957
C  C380  1  0.83075000  0.35283000  0.26581000  1.0 -0.0488683957
C  C381  1  0.64717000  0.26581000  0.16925000  1.0 -0.0488683957
C  C382  1  0.64717000  0.73419000  0.83075000  1.0 -0.0488683957
C  C383  1  0.35283000  0.26581000  0.83075000  1.0 -0.0488683957
C  C384  1  0.35283000  0.73419000  0.16925000  1.0 -0.0488683957
C  C385  1  0.66925000  0.23419000  0.85283000  1.0 -0.0488683957
C  C386  1  0.33075000  0.76581000  0.85283000  1.0 -0.0488683957
C  C387  1  0.33075000  0.23419000  0.14717000  1.0 -0.0488683957
C  C388  1  0.66925000  0.76581000  0.14717000  1.0 -0.0488683957
C  C389  1  0.85283000  0.66925000  0.23419000  1.0 -0.0488683957
C  C390  1  0.85283000  0.33075000  0.76581000  1.0 -0.0488683957
C  C391  1  0.14717000  0.33075000  0.23419000  1.0 -0.0488683957
C  C392  1  0.14717000  0.66925000  0.76581000  1.0 -0.0488683957
C  C393  1  0.23419000  0.85283000  0.66925000  1.0 -0.0488683957
C  C394  1  0.76581000  0.85283000  0.33075000  1.0 -0.0488683957
C  C395  1  0.23419000  0.14717000  0.33075000  1.0 -0.0488683957
C  C396  1  0.76581000  0.14717000  0.66925000  1.0 -0.0488683957
C  C397  1  0.73419000  0.16925000  0.64717000  1.0 -0.0488683957
C  C398  1  0.26581000  0.83075000  0.64717000  1.0 -0.0488683957
C  C399  1  0.73419000  0.83075000  0.35283000  1.0 -0.0488683957
C  C400  1  0.26581000  0.16925000  0.35283000  1.0 -0.0488683957
C  C401  1  0.16925000  0.35283000  0.26581000  1.0 -0.0488683957
C  C402  1  0.83075000  0.35283000  0.73419000  1.0 -0.0488683957
C  C403  1  0.83075000  0.64717000  0.26581000  1.0 -0.0488683957
C  C404  1  0.16925000  0.64717000  0.73419000  1.0 -0.0488683957
C  C405  1  0.35283000  0.73419000  0.83075000  1.0 -0.0488683957
C  C406  1  0.35283000  0.26581000  0.16925000  1.0 -0.0488683957
C  C407  1  0.64717000  0.73419000  0.16925000  1.0 -0.0488683957
C  C408  1  0.64717000  0.26581000  0.83075000  1.0 -0.0488683957
C  C409  1  0.35335000  0.77552000  0.11016000  1.0 -0.0433594573
C  C410  1  0.64665000  0.22448000  0.11016000  1.0 -0.0433594573
C  C411  1  0.64665000  0.77552000  0.88984000  1.0 -0.0433594573
C  C412  1  0.35335000  0.22448000  0.88984000  1.0 -0.0433594573
C  C413  1  0.11016000  0.35335000  0.77552000  1.0 -0.0433594573
C  C414  1  0.11016000  0.64665000  0.22448000  1.0 -0.0433594573
C  C415  1  0.88984000  0.64665000  0.77552000  1.0 -0.0433594573
C  C416  1  0.88984000  0.35335000  0.22448000  1.0 -0.0433594573
C  C417  1  0.77552000  0.11016000  0.35335000  1.0 -0.0433594573
C  C418  1  0.22448000  0.11016000  0.64665000  1.0 -0.0433594573
C  C419  1  0.77552000  0.88984000  0.64665000  1.0 -0.0433594573
C  C420  1  0.22448000  0.88984000  0.35335000  1.0 -0.0433594573
C  C421  1  0.27552000  0.85335000  0.38984000  1.0 -0.0488683957
C  C422  1  0.72448000  0.14665000  0.38984000  1.0 -0.0433594573
C  C423  1  0.27552000  0.14665000  0.61016000  1.0 -0.0433594573
C  C424  1  0.72448000  0.85335000  0.61016000  1.0 -0.0433594573
C  C425  1  0.85335000  0.61016000  0.72448000  1.0 -0.0433594573
C  C426  1  0.14665000  0.61016000  0.27552000  1.0 -0.0433594573
C  C427  1  0.14665000  0.38984000  0.72448000  1.0 -0.0433594573
C  C428  1  0.85335000  0.38984000  0.27552000  1.0 -0.0488683957
C  C429  1  0.61016000  0.27552000  0.14665000  1.0 -0.0433594573
C  C430  1  0.61016000  0.72448000  0.85335000  1.0 -0.0433594573
C  C431  1  0.38984000  0.27552000  0.85335000  1.0 -0.0488683957
C  C432  1  0.38984000  0.72448000  0.14665000  1.0 -0.0433594573
C  C433  1  0.64665000  0.22448000  0.88984000  1.0 -0.0433594573
C  C434  1  0.35335000  0.77552000  0.88984000  1.0 -0.0433594573
C  C435  1  0.35335000  0.22448000  0.11016000  1.0 -0.0433594573
C  C436  1  0.64665000  0.77552000  0.11016000  1.0 -0.0433594573
C  C437  1  0.88984000  0.64665000  0.22448000  1.0 -0.0433594573
C  C438  1  0.88984000  0.35335000  0.77552000  1.0 -0.0433594573
C  C439  1  0.11016000  0.35335000  0.22448000  1.0 -0.0433594573
C  C440  1  0.11016000  0.64665000  0.77552000  1.0 -0.0433594573
C  C441  1  0.22448000  0.88984000  0.64665000  1.0 -0.0433594573
C  C442  1  0.77552000  0.88984000  0.35335000  1.0 -0.0433594573
C  C443  1  0.22448000  0.11016000  0.35335000  1.0 -0.0433594573
C  C444  1  0.77552000  0.11016000  0.64665000  1.0 -0.0433594573
C  C445  1  0.72448000  0.14665000  0.61016000  1.0 -0.0433594573
C  C446  1  0.27552000  0.85335000  0.61016000  1.0 -0.0488683957
C  C447  1  0.72448000  0.85335000  0.38984000  1.0 -0.0433594573
C  C448  1  0.27552000  0.14665000  0.38984000  1.0 -0.0433594573
C  C449  1  0.14665000  0.38984000  0.27552000  1.0 -0.0433594573
C  C450  1  0.85335000  0.38984000  0.72448000  1.0 -0.0433594573
C  C451  1  0.85335000  0.61016000  0.27552000  1.0 -0.0488683957
C  C452  1  0.14665000  0.61016000  0.72448000  1.0 -0.0433594573
C  C453  1  0.38984000  0.72448000  0.85335000  1.0 -0.0433594573
C  C454  1  0.38984000  0.27552000  0.14665000  1.0 -0.0433594573
C  C455  1  0.61016000  0.72448000  0.14665000  1.0 -0.0433594573
C  C456  1  0.61016000  0.27552000  0.85335000  1.0 -0.0488683957
C  C457  1  0.39009000  0.75000000  0.10991000  1.0 -0.0600296373
C  C458  1  0.60991000  0.25000000  0.10991000  1.0 -0.0600296373
C  C459  1  0.60991000  0.75000000  0.89009000  1.0 -0.0600296373
C  C460  1  0.39009000  0.25000000  0.89009000  1.0 -0.0600296373
C  C461  1  0.10991000  0.39009000  0.75000000  1.0 -0.0600296373
C  C462  1  0.10991000  0.60991000  0.25000000  1.0 -0.0600296373
C  C463  1  0.89009000  0.60991000  0.75000000  1.0 -0.0600296373
C  C464  1  0.89009000  0.39009000  0.25000000  1.0 -0.0600296373
C  C465  1  0.75000000  0.10991000  0.39009000  1.0 -0.0600296373
C  C466  1  0.25000000  0.10991000  0.60991000  1.0 -0.0600296373
C  C467  1  0.75000000  0.89009000  0.60991000  1.0 -0.0600296373
C  C468  1  0.25000000  0.89009000  0.39009000  1.0 -0.0600296373
C  C469  1  0.60991000  0.25000000  0.89009000  1.0 -0.0600296373
C  C470  1  0.39009000  0.75000000  0.89009000  1.0 -0.0600296373
C  C471  1  0.39009000  0.25000000  0.10991000  1.0 -0.0600296373
C  C472  1  0.60991000  0.75000000  0.10991000  1.0 -0.0600296373
C  C473  1  0.89009000  0.60991000  0.25000000  1.0 -0.0600296373
C  C474  1  0.89009000  0.39009000  0.75000000  1.0 -0.0600296373
C  C475  1  0.10991000  0.39009000  0.25000000  1.0 -0.0600296373
C  C476  1  0.10991000  0.60991000  0.75000000  1.0 -0.0600296373
C  C477  1  0.25000000  0.89009000  0.60991000  1.0 -0.0600296373
C  C478  1  0.75000000  0.89009000  0.39009000  1.0 -0.0600296373
C  C479  1  0.25000000  0.10991000  0.39009000  1.0 -0.0600296373
C  C480  1  0.75000000  0.10991000  0.60991000  1.0 -0.0600296373
C  C481  1  0.37340000  0.96080000  0.00000000  1.0 0.2705048048
C  C482  1  0.62660000  0.03920000  0.00000000  1.0 0.2705048048
C  C483  1  0.62660000  0.96080000  0.00000000  1.0 0.2705048048
C  C484  1  0.37340000  0.03920000  0.00000000  1.0 0.2705048048
C  C485  1  0.00000000  0.37340000  0.96080000  1.0 0.2705048048
C  C486  1  0.00000000  0.62660000  0.03920000  1.0 0.2705048048
C  C487  1  0.00000000  0.62660000  0.96080000  1.0 0.2705048048
C  C488  1  0.00000000  0.37340000  0.03920000  1.0 0.2705048048
C  C489  1  0.96080000  0.00000000  0.37340000  1.0 0.2705048048
C  C490  1  0.03920000  0.00000000  0.62660000  1.0 0.2705048048
C  C491  1  0.96080000  0.00000000  0.62660000  1.0 0.2705048048
C  C492  1  0.03920000  0.00000000  0.37340000  1.0 0.2705048048
C  C493  1  0.46080000  0.87340000  0.50000000  1.0 0.2705048048
C  C494  1  0.53920000  0.12660000  0.50000000  1.0 0.2705048048
C  C495  1  0.46080000  0.12660000  0.50000000  1.0 0.2705048048
C  C496  1  0.53920000  0.87340000  0.50000000  1.0 0.2705048048
C  C497  1  0.87340000  0.50000000  0.53920000  1.0 0.2705048048
C  C498  1  0.12660000  0.50000000  0.46080000  1.0 0.2705048048
C  C499  1  0.12660000  0.50000000  0.53920000  1.0 0.2705048048
C  C500  1  0.87340000  0.50000000  0.46080000  1.0 0.2705048048
C  C501  1  0.50000000  0.46080000  0.12660000  1.0 0.2705048048
C  C502  1  0.50000000  0.53920000  0.87340000  1.0 0.2705048048
C  C503  1  0.50000000  0.46080000  0.87340000  1.0 0.2705048048
C  C504  1  0.50000000  0.53920000  0.12660000  1.0 0.2705048048
C  C505  1  0.34590000  0.00000000  0.00000000  1.0 -0.2554329412
C  C506  1  0.65410000  0.00000000  0.00000000  1.0 -0.2527195655
C  C507  1  0.00000000  0.34590000  0.00000000  1.0 -0.2554329412
C  C508  1  0.00000000  0.65410000  0.00000000  1.0 -0.2527195655
C  C509  1  0.00000000  0.00000000  0.34590000  1.0 -0.2554329412
C  C510  1  0.00000000  0.00000000  0.65410000  1.0 -0.2527195655
C  C511  1  0.50000000  0.84590000  0.50000000  1.0 -0.2527195655
C  C512  1  0.50000000  0.15410000  0.50000000  1.0 -0.2527195655
C  C513  1  0.84590000  0.50000000  0.50000000  1.0 -0.2527195655
C  C514  1  0.15410000  0.50000000  0.50000000  1.0 -0.2527195655
C  C515  1  0.50000000  0.50000000  0.15410000  1.0 -0.2527195655
C  C516  1  0.50000000  0.50000000  0.84590000  1.0 -0.2527195655
C  C517  1  0.41630000  0.90010000  0.00000000  1.0 0.4570118336
C  C518  1  0.58370000  0.09990000  0.00000000  1.0 0.4570118336
C  C519  1  0.58370000  0.90010000  0.00000000  1.0 0.4570118336
C  C520  1  0.41630000  0.09990000  0.00000000  1.0 0.4570118336
C  C521  1  0.00000000  0.41630000  0.90010000  1.0 0.4570118336
C  C522  1  0.00000000  0.58370000  0.09990000  1.0 0.4570118336
C  C523  1  0.00000000  0.58370000  0.90010000  1.0 0.4570118336
C  C524  1  0.00000000  0.41630000  0.09990000  1.0 0.4570118336
C  C525  1  0.90010000  0.00000000  0.41630000  1.0 0.4570118336
C  C526  1  0.09990000  0.00000000  0.58370000  1.0 0.4570118336
C  C527  1  0.90010000  0.00000000  0.58370000  1.0 0.4570118336
C  C528  1  0.09990000  0.00000000  0.41630000  1.0 0.4570118336
C  C529  1  0.40010000  0.91630000  0.50000000  1.0 0.4570118336
C  C530  1  0.59990000  0.08370000  0.50000000  1.0 0.4570118336
C  C531  1  0.40010000  0.08370000  0.50000000  1.0 0.4570118336
C  C532  1  0.59990000  0.91630000  0.50000000  1.0 0.4570118336
C  C533  1  0.91630000  0.50000000  0.59990000  1.0 0.4570118336
C  C534  1  0.08370000  0.50000000  0.40010000  1.0 0.4570118336
C  C535  1  0.08370000  0.50000000  0.59990000  1.0 0.4570118336
C  C536  1  0.91630000  0.50000000  0.40010000  1.0 0.4570118336
C  C537  1  0.50000000  0.40010000  0.08370000  1.0 0.4570118336
C  C538  1  0.50000000  0.59990000  0.91630000  1.0 0.4570118336
C  C539  1  0.50000000  0.40010000  0.91630000  1.0 0.4570118336
C  C540  1  0.50000000  0.59990000  0.08370000  1.0 0.4570118336
C  C541  1  0.43890000  0.85770000  0.00000000  1.0 -0.461039814
C  C542  1  0.56110000  0.14230000  0.00000000  1.0 -0.4496189714
C  C543  1  0.56110000  0.85770000  0.00000000  1.0 -0.4496189714
C  C544  1  0.43890000  0.14230000  0.00000000  1.0 -0.4496189714
C  C545  1  0.00000000  0.43890000  0.85770000  1.0 -0.461039814
C  C546  1  0.00000000  0.56110000  0.14230000  1.0 -0.4496189714
C  C547  1  0.00000000  0.56110000  0.85770000  1.0 -0.4496189714
C  C548  1  0.00000000  0.43890000  0.14230000  1.0 -0.4496189714
C  C549  1  0.85770000  0.00000000  0.43890000  1.0 -0.461039814
C  C550  1  0.14230000  0.00000000  0.56110000  1.0 -0.4496189714
C  C551  1  0.85770000  0.00000000  0.56110000  1.0 -0.4496189714
C  C552  1  0.14230000  0.00000000  0.43890000  1.0 -0.4496189714
C  C553  1  0.35770000  0.93890000  0.50000000  1.0 -0.4173136738
C  C554  1  0.64230000  0.06110000  0.50000000  1.0 -0.4173136738
C  C555  1  0.35770000  0.06110000  0.50000000  1.0 -0.4173136738
C  C556  1  0.64230000  0.93890000  0.50000000  1.0 -0.4142428067
C  C557  1  0.93890000  0.50000000  0.64230000  1.0 -0.4173136738
C  C558  1  0.06110000  0.50000000  0.35770000  1.0 -0.4173136738
C  C559  1  0.06110000  0.50000000  0.64230000  1.0 -0.4173136738
C  C560  1  0.93890000  0.50000000  0.35770000  1.0 -0.4173136738
C  C561  1  0.50000000  0.35770000  0.06110000  1.0 -0.4173136738
C  C562  1  0.50000000  0.64230000  0.93890000  1.0 -0.4142428067
C  C563  1  0.50000000  0.35770000  0.93890000  1.0 -0.4173136738
C  C564  1  0.50000000  0.64230000  0.06110000  1.0 -0.4173136738
N  N1  1  0.11368000  0.83467000  0.20168000  1.0 -0.3975954398
N  N2  1  0.88632000  0.16533000  0.20168000  1.0 -0.3975954398
N  N3  1  0.88632000  0.83467000  0.79832000  1.0 -0.3975954398
N  N4  1  0.11368000  0.16533000  0.79832000  1.0 -0.3975954398
N  N5  1  0.20168000  0.11368000  0.83467000  1.0 -0.3975954398
N  N6  1  0.20168000  0.88632000  0.16533000  1.0 -0.3975954398
N  N7  1  0.79832000  0.88632000  0.83467000  1.0 -0.3975954398
N  N8  1  0.79832000  0.11368000  0.16533000  1.0 -0.3975954398
N  N9  1  0.83467000  0.20168000  0.11368000  1.0 -0.3975954398
N  N10  1  0.16533000  0.20168000  0.88632000  1.0 -0.3975954398
N  N11  1  0.83467000  0.79832000  0.88632000  1.0 -0.3975954398
N  N12  1  0.16533000  0.79832000  0.11368000  1.0 -0.3975954398
N  N13  1  0.33467000  0.61368000  0.29832000  1.0 -0.3975954398
N  N14  1  0.66533000  0.38632000  0.29832000  1.0 -0.3975954398
N  N15  1  0.33467000  0.38632000  0.70168000  1.0 -0.3975954398
N  N16  1  0.66533000  0.61368000  0.70168000  1.0 -0.3975954398
N  N17  1  0.61368000  0.70168000  0.66533000  1.0 -0.3975954398
N  N18  1  0.38632000  0.70168000  0.33467000  1.0 -0.3975954398
N  N19  1  0.38632000  0.29832000  0.66533000  1.0 -0.3975954398
N  N20  1  0.61368000  0.29832000  0.33467000  1.0 -0.3975954398
N  N21  1  0.70168000  0.33467000  0.38632000  1.0 -0.3975954398
N  N22  1  0.70168000  0.66533000  0.61368000  1.0 -0.3975954398
N  N23  1  0.29832000  0.33467000  0.61368000  1.0 -0.3975954398
N  N24  1  0.29832000  0.66533000  0.38632000  1.0 -0.3975954398
N  N25  1  0.88632000  0.16533000  0.79832000  1.0 -0.3975954398
N  N26  1  0.11368000  0.83467000  0.79832000  1.0 -0.3975954398
N  N27  1  0.11368000  0.16533000  0.20168000  1.0 -0.3975954398
N  N28  1  0.88632000  0.83467000  0.20168000  1.0 -0.3975954398
N  N29  1  0.79832000  0.88632000  0.16533000  1.0 -0.3975954398
N  N30  1  0.79832000  0.11368000  0.83467000  1.0 -0.3975954398
N  N31  1  0.20168000  0.11368000  0.16533000  1.0 -0.3975954398
N  N32  1  0.20168000  0.88632000  0.83467000  1.0 -0.3975954398
N  N33  1  0.16533000  0.79832000  0.88632000  1.0 -0.3975954398
N  N34  1  0.83467000  0.79832000  0.11368000  1.0 -0.3975954398
N  N35  1  0.16533000  0.20168000  0.11368000  1.0 -0.3975954398
N  N36  1  0.83467000  0.20168000  0.88632000  1.0 -0.3975954398
N  N37  1  0.66533000  0.38632000  0.70168000  1.0 -0.3975954398
N  N38  1  0.33467000  0.61368000  0.70168000  1.0 -0.3975954398
N  N39  1  0.66533000  0.61368000  0.29832000  1.0 -0.3975954398
N  N40  1  0.33467000  0.38632000  0.29832000  1.0 -0.3975954398
N  N41  1  0.38632000  0.29832000  0.33467000  1.0 -0.3975954398
N  N42  1  0.61368000  0.29832000  0.66533000  1.0 -0.3975954398
N  N43  1  0.61368000  0.70168000  0.33467000  1.0 -0.3975954398
N  N44  1  0.38632000  0.70168000  0.66533000  1.0 -0.3975954398
N  N45  1  0.29832000  0.66533000  0.61368000  1.0 -0.3975954398
N  N46  1  0.29832000  0.33467000  0.38632000  1.0 -0.3975954398
N  N47  1  0.70168000  0.66533000  0.38632000  1.0 -0.3975954398
N  N48  1  0.70168000  0.33467000  0.61368000  1.0 -0.3975954398
N  N49  1  0.07044000  0.94612000  0.27811000  1.0 -0.3975954398
N  N50  1  0.92956000  0.05388000  0.27811000  1.0 -0.3975954398
N  N51  1  0.92956000  0.94612000  0.72189000  1.0 -0.3975954398
N  N52  1  0.07044000  0.05388000  0.72189000  1.0 -0.3975954398
N  N53  1  0.27811000  0.07044000  0.94612000  1.0 -0.3975954398
N  N54  1  0.27811000  0.92956000  0.05388000  1.0 -0.3975954398
N  N55  1  0.72189000  0.92956000  0.94612000  1.0 -0.3975954398
N  N56  1  0.72189000  0.07044000  0.05388000  1.0 -0.3975954398
N  N57  1  0.94612000  0.27811000  0.07044000  1.0 -0.3975954398
N  N58  1  0.05388000  0.27811000  0.92956000  1.0 -0.3975954398
N  N59  1  0.94612000  0.72189000  0.92956000  1.0 -0.3975954398
N  N60  1  0.05388000  0.72189000  0.07044000  1.0 -0.3975954398
N  N61  1  0.44612000  0.57044000  0.22189000  1.0 -0.3975954398
N  N62  1  0.55388000  0.42956000  0.22189000  1.0 -0.3975954398
N  N63  1  0.44612000  0.42956000  0.77811000  1.0 -0.3975954398
N  N64  1  0.55388000  0.57044000  0.77811000  1.0 -0.3975954398
N  N65  1  0.57044000  0.77811000  0.55388000  1.0 -0.3975954398
N  N66  1  0.42956000  0.77811000  0.44612000  1.0 -0.3975954398
N  N67  1  0.42956000  0.22189000  0.55388000  1.0 -0.3975954398
N  N68  1  0.57044000  0.22189000  0.44612000  1.0 -0.3975954398
N  N69  1  0.77811000  0.44612000  0.42956000  1.0 -0.3975954398
N  N70  1  0.77811000  0.55388000  0.57044000  1.0 -0.3975954398
N  N71  1  0.22189000  0.44612000  0.57044000  1.0 -0.3975954398
N  N72  1  0.22189000  0.55388000  0.42956000  1.0 -0.3975954398
N  N73  1  0.92956000  0.05388000  0.72189000  1.0 -0.3975954398
N  N74  1  0.07044000  0.94612000  0.72189000  1.0 -0.3975954398
N  N75  1  0.07044000  0.05388000  0.27811000  1.0 -0.3975954398
N  N76  1  0.92956000  0.94612000  0.27811000  1.0 -0.3975954398
N  N77  1  0.72189000  0.92956000  0.05388000  1.0 -0.3975954398
N  N78  1  0.72189000  0.07044000  0.94612000  1.0 -0.3975954398
N  N79  1  0.27811000  0.07044000  0.05388000  1.0 -0.3975954398
N  N80  1  0.27811000  0.92956000  0.94612000  1.0 -0.3975954398
N  N81  1  0.05388000  0.72189000  0.92956000  1.0 -0.3975954398
N  N82  1  0.94612000  0.72189000  0.07044000  1.0 -0.3975954398
N  N83  1  0.05388000  0.27811000  0.07044000  1.0 -0.3975954398
N  N84  1  0.94612000  0.27811000  0.92956000  1.0 -0.3975954398
N  N85  1  0.55388000  0.42956000  0.77811000  1.0 -0.3975954398
N  N86  1  0.44612000  0.57044000  0.77811000  1.0 -0.3975954398
N  N87  1  0.55388000  0.57044000  0.22189000  1.0 -0.3975954398
N  N88  1  0.44612000  0.42956000  0.22189000  1.0 -0.3975954398
N  N89  1  0.42956000  0.22189000  0.44612000  1.0 -0.3975954398
N  N90  1  0.57044000  0.22189000  0.55388000  1.0 -0.3975954398
N  N91  1  0.57044000  0.77811000  0.44612000  1.0 -0.3975954398
N  N92  1  0.42956000  0.77811000  0.55388000  1.0 -0.3975954398
N  N93  1  0.22189000  0.55388000  0.57044000  1.0 -0.3975954398
N  N94  1  0.22189000  0.44612000  0.42956000  1.0 -0.3975954398
N  N95  1  0.77811000  0.55388000  0.42956000  1.0 -0.3975954398
N  N96  1  0.77811000  0.44612000  0.57044000  1.0 -0.3975954398
N  N97  1  0.00000000  0.76550000  0.15760000  1.0 -0.3913868087
N  N98  1  0.00000000  0.23450000  0.15760000  1.0 -0.3913868087
N  N99  1  0.00000000  0.76550000  0.84240000  1.0 -0.3913868087
N  N100  1  0.00000000  0.23450000  0.84240000  1.0 -0.3913868087
N  N101  1  0.15760000  0.00000000  0.76550000  1.0 -0.3975954398
N  N102  1  0.15760000  0.00000000  0.23450000  1.0 -0.3913868087
N  N103  1  0.84240000  0.00000000  0.76550000  1.0 -0.3975954398
N  N104  1  0.84240000  0.00000000  0.23450000  1.0 -0.3913868087
N  N105  1  0.76550000  0.15760000  0.00000000  1.0 -0.3975954398
N  N106  1  0.23450000  0.15760000  0.00000000  1.0 -0.3913868087
N  N107  1  0.76550000  0.84240000  0.00000000  1.0 -0.3913868087
N  N108  1  0.23450000  0.84240000  0.00000000  1.0 -0.3913868087
N  N109  1  0.26550000  0.50000000  0.34240000  1.0 -0.3975954398
N  N110  1  0.73450000  0.50000000  0.34240000  1.0 -0.3975954398
N  N111  1  0.26550000  0.50000000  0.65760000  1.0 -0.3975954398
N  N112  1  0.73450000  0.50000000  0.65760000  1.0 -0.3913868087
N  N113  1  0.50000000  0.65760000  0.73450000  1.0 -0.3913868087
N  N114  1  0.50000000  0.65760000  0.26550000  1.0 -0.3913868087
N  N115  1  0.50000000  0.34240000  0.73450000  1.0 -0.3975954398
N  N116  1  0.50000000  0.34240000  0.26550000  1.0 -0.3975954398
N  N117  1  0.65760000  0.26550000  0.50000000  1.0 -0.3975954398
N  N118  1  0.65760000  0.73450000  0.50000000  1.0 -0.3913868087
N  N119  1  0.34240000  0.26550000  0.50000000  1.0 -0.3975954398
N  N120  1  0.34240000  0.73450000  0.50000000  1.0 -0.3975954398
N  N121  1  0.25883000  0.79792000  0.16993000  1.0 -0.3913868087
N  N122  1  0.74117000  0.20208000  0.16993000  1.0 -0.3913868087
N  N123  1  0.74117000  0.79792000  0.83007000  1.0 -0.3913868087
N  N124  1  0.25883000  0.20208000  0.83007000  1.0 -0.3913868087
N  N125  1  0.16993000  0.25883000  0.79792000  1.0 -0.3913868087
N  N126  1  0.16993000  0.74117000  0.20208000  1.0 -0.3913868087
N  N127  1  0.83007000  0.74117000  0.79792000  1.0 -0.3913868087
N  N128  1  0.83007000  0.25883000  0.20208000  1.0 -0.3913868087
N  N129  1  0.79792000  0.16993000  0.25883000  1.0 -0.3913868087
N  N130  1  0.20208000  0.16993000  0.74117000  1.0 -0.3913868087
N  N131  1  0.79792000  0.83007000  0.74117000  1.0 -0.3913868087
N  N132  1  0.20208000  0.83007000  0.25883000  1.0 -0.3913868087
N  N133  1  0.29792000  0.75883000  0.33007000  1.0 -0.3913868087
N  N134  1  0.70208000  0.24117000  0.33007000  1.0 -0.3913868087
N  N135  1  0.29792000  0.24117000  0.66993000  1.0 -0.3913868087
N  N136  1  0.70208000  0.75883000  0.66993000  1.0 -0.3913868087
N  N137  1  0.75883000  0.66993000  0.70208000  1.0 -0.3913868087
N  N138  1  0.24117000  0.66993000  0.29792000  1.0 -0.3913868087
N  N139  1  0.24117000  0.33007000  0.70208000  1.0 -0.3913868087
N  N140  1  0.75883000  0.33007000  0.29792000  1.0 -0.3913868087
N  N141  1  0.66993000  0.29792000  0.24117000  1.0 -0.3913868087
N  N142  1  0.66993000  0.70208000  0.75883000  1.0 -0.3913868087
N  N143  1  0.33007000  0.29792000  0.75883000  1.0 -0.3913868087
N  N144  1  0.33007000  0.70208000  0.24117000  1.0 -0.3913868087
N  N145  1  0.74117000  0.20208000  0.83007000  1.0 -0.3913868087
N  N146  1  0.25883000  0.79792000  0.83007000  1.0 -0.3913868087
N  N147  1  0.25883000  0.20208000  0.16993000  1.0 -0.3913868087
N  N148  1  0.74117000  0.79792000  0.16993000  1.0 -0.3913868087
N  N149  1  0.83007000  0.74117000  0.20208000  1.0 -0.3913868087
N  N150  1  0.83007000  0.25883000  0.79792000  1.0 -0.3913868087
N  N151  1  0.16993000  0.25883000  0.20208000  1.0 -0.3913868087
N  N152  1  0.16993000  0.74117000  0.79792000  1.0 -0.3913868087
N  N153  1  0.20208000  0.83007000  0.74117000  1.0 -0.3913868087
N  N154  1  0.79792000  0.83007000  0.25883000  1.0 -0.3913868087
N  N155  1  0.20208000  0.16993000  0.25883000  1.0 -0.3913868087
N  N156  1  0.79792000  0.16993000  0.74117000  1.0 -0.3913868087
N  N157  1  0.70208000  0.24117000  0.66993000  1.0 -0.3913868087
N  N158  1  0.29792000  0.75883000  0.66993000  1.0 -0.3913868087
N  N159  1  0.70208000  0.75883000  0.33007000  1.0 -0.3913868087
N  N160  1  0.29792000  0.24117000  0.33007000  1.0 -0.3913868087
N  N161  1  0.24117000  0.33007000  0.29792000  1.0 -0.3913868087
N  N162  1  0.75883000  0.33007000  0.70208000  1.0 -0.3913868087
N  N163  1  0.75883000  0.66993000  0.29792000  1.0 -0.3913868087
N  N164  1  0.24117000  0.66993000  0.70208000  1.0 -0.3913868087
N  N165  1  0.33007000  0.70208000  0.75883000  1.0 -0.3913868087
N  N166  1  0.33007000  0.29792000  0.24117000  1.0 -0.3913868087
N  N167  1  0.66993000  0.70208000  0.24117000  1.0 -0.3913868087
N  N168  1  0.66993000  0.29792000  0.75883000  1.0 -0.3913868087
N  N169  1  0.33212000  0.83134000  0.05378000  1.0 -0.3975954398
N  N170  1  0.66788000  0.16866000  0.05378000  1.0 -0.3975954398
N  N171  1  0.66788000  0.83134000  0.94622000  1.0 -0.3913868087
N  N172  1  0.33212000  0.16866000  0.94622000  1.0 -0.3975954398
N  N173  1  0.05378000  0.33212000  0.83134000  1.0 -0.3975954398
N  N174  1  0.05378000  0.66788000  0.16866000  1.0 -0.3975954398
N  N175  1  0.94622000  0.66788000  0.83134000  1.0 -0.3913868087
N  N176  1  0.94622000  0.33212000  0.16866000  1.0 -0.3975954398
N  N177  1  0.83134000  0.05378000  0.33212000  1.0 -0.3975954398
N  N178  1  0.16866000  0.05378000  0.66788000  1.0 -0.3975954398
N  N179  1  0.83134000  0.94622000  0.66788000  1.0 -0.3913868087
N  N180  1  0.16866000  0.94622000  0.33212000  1.0 -0.3975954398
N  N181  1  0.33134000  0.83212000  0.44622000  1.0 -0.3913868087
N  N182  1  0.66866000  0.16788000  0.44622000  1.0 -0.3913868087
N  N183  1  0.33134000  0.16788000  0.55378000  1.0 -0.3975954398
N  N184  1  0.66866000  0.83212000  0.55378000  1.0 -0.3913868087
N  N185  1  0.83212000  0.55378000  0.66866000  1.0 -0.3913868087
N  N186  1  0.16788000  0.55378000  0.33134000  1.0 -0.3975954398
N  N187  1  0.16788000  0.44622000  0.66866000  1.0 -0.3913868087
N  N188  1  0.83212000  0.44622000  0.33134000  1.0 -0.3913868087
N  N189  1  0.55378000  0.33134000  0.16788000  1.0 -0.3975954398
N  N190  1  0.55378000  0.66866000  0.83212000  1.0 -0.3913868087
N  N191  1  0.44622000  0.33134000  0.83212000  1.0 -0.3913868087
N  N192  1  0.44622000  0.66866000  0.16788000  1.0 -0.3913868087
N  N193  1  0.66788000  0.16866000  0.94622000  1.0 -0.3975954398
N  N194  1  0.33212000  0.83134000  0.94622000  1.0 -0.3975954398
N  N195  1  0.33212000  0.16866000  0.05378000  1.0 -0.3975954398
N  N196  1  0.66788000  0.83134000  0.05378000  1.0 -0.3913868087
N  N197  1  0.94622000  0.66788000  0.16866000  1.0 -0.3975954398
N  N198  1  0.94622000  0.33212000  0.83134000  1.0 -0.3975954398
N  N199  1  0.05378000  0.33212000  0.16866000  1.0 -0.3975954398
N  N200  1  0.05378000  0.66788000  0.83134000  1.0 -0.3913868087
N  N201  1  0.16866000  0.94622000  0.66788000  1.0 -0.3975954398
N  N202  1  0.83134000  0.94622000  0.33212000  1.0 -0.3975954398
N  N203  1  0.16866000  0.05378000  0.33212000  1.0 -0.3975954398
N  N204  1  0.83134000  0.05378000  0.66788000  1.0 -0.3913868087
N  N205  1  0.66866000  0.16788000  0.55378000  1.0 -0.3913868087
N  N206  1  0.33134000  0.83212000  0.55378000  1.0 -0.3913868087
N  N207  1  0.66866000  0.83212000  0.44622000  1.0 -0.3913868087
N  N208  1  0.33134000  0.16788000  0.44622000  1.0 -0.3975954398
N  N209  1  0.16788000  0.44622000  0.33134000  1.0 -0.3975954398
N  N210  1  0.83212000  0.44622000  0.66866000  1.0 -0.3913868087
N  N211  1  0.83212000  0.55378000  0.33134000  1.0 -0.3913868087
N  N212  1  0.16788000  0.55378000  0.66866000  1.0 -0.3913868087
N  N213  1  0.44622000  0.66866000  0.83212000  1.0 -0.3913868087
N  N214  1  0.44622000  0.33134000  0.16788000  1.0 -0.3975954398
N  N215  1  0.55378000  0.66866000  0.16788000  1.0 -0.3913868087
N  N216  1  0.55378000  0.33134000  0.83212000  1.0 -0.3913868087
N  N217  1  0.44837000  0.75000000  0.05162000  1.0 -0.3841637589
N  N218  1  0.55162000  0.25000000  0.05162000  1.0 -0.3913868087
N  N219  1  0.55162000  0.75000000  0.94837000  1.0 -0.3913868087
N  N220  1  0.44837000  0.25000000  0.94837000  1.0 -0.3913868087
N  N221  1  0.05162000  0.44837000  0.75000000  1.0 -0.3841637589
N  N222  1  0.05162000  0.55162000  0.25000000  1.0 -0.3913868087
N  N223  1  0.94837000  0.55162000  0.75000000  1.0 -0.3913868087
N  N224  1  0.94837000  0.44837000  0.25000000  1.0 -0.3841637589
N  N225  1  0.75000000  0.05162000  0.44837000  1.0 -0.3841637589
N  N226  1  0.25000000  0.05162000  0.55162000  1.0 -0.3913868087
N  N227  1  0.75000000  0.94837000  0.55162000  1.0 -0.3841637589
N  N228  1  0.25000000  0.94837000  0.44837000  1.0 -0.3841637589
N  N229  1  0.55162000  0.25000000  0.94837000  1.0 -0.3913868087
N  N230  1  0.44837000  0.75000000  0.94837000  1.0 -0.3841637589
N  N231  1  0.44837000  0.25000000  0.05162000  1.0 -0.3913868087
N  N232  1  0.55162000  0.75000000  0.05162000  1.0 -0.3841637589
N  N233  1  0.94837000  0.55162000  0.25000000  1.0 -0.3841637589
N  N234  1  0.94837000  0.44837000  0.75000000  1.0 -0.3841637589
N  N235  1  0.05162000  0.44837000  0.25000000  1.0 -0.3913868087
N  N236  1  0.05162000  0.55162000  0.75000000  1.0 -0.3913868087
N  N237  1  0.25000000  0.94837000  0.55162000  1.0 -0.3913868087
N  N238  1  0.75000000  0.94837000  0.44837000  1.0 -0.3841637589
N  N239  1  0.25000000  0.05162000  0.44837000  1.0 -0.3913868087
N  N240  1  0.75000000  0.05162000  0.55162000  1.0 -0.3913868087
O  O1  1  0.37480000  0.91630000  0.00000000  1.0 -0.2224380202
O  O2  1  0.62520000  0.08370000  0.00000000  1.0 -0.2295412597
O  O3  1  0.62520000  0.91630000  0.00000000  1.0 -0.2295412597
O  O4  1  0.37480000  0.08370000  0.00000000  1.0 -0.2295412597
O  O5  1  0.00000000  0.37480000  0.91630000  1.0 -0.2224380202
O  O6  1  0.00000000  0.62520000  0.08370000  1.0 -0.2295412597
O  O7  1  0.00000000  0.62520000  0.91630000  1.0 -0.2295412597
O  O8  1  0.00000000  0.37480000  0.08370000  1.0 -0.2295412597
O  O9  1  0.91630000  0.00000000  0.37480000  1.0 -0.2224380202
O  O10  1  0.08370000  0.00000000  0.62520000  1.0 -0.2295412597
O  O11  1  0.91630000  0.00000000  0.62520000  1.0 -0.2295412597
O  O12  1  0.08370000  0.00000000  0.37480000  1.0 -0.2295412597
O  O13  1  0.41630000  0.87480000  0.50000000  1.0 -0.2295412597
O  O14  1  0.58370000  0.12520000  0.50000000  1.0 -0.2295412597
O  O15  1  0.41630000  0.12520000  0.50000000  1.0 -0.2295412597
O  O16  1  0.58370000  0.87480000  0.50000000  1.0 -0.2295412597
O  O17  1  0.87480000  0.50000000  0.58370000  1.0 -0.2295412597
O  O18  1  0.12520000  0.50000000  0.41630000  1.0 -0.2295412597
O  O19  1  0.12520000  0.50000000  0.58370000  1.0 -0.2295412597
O  O20  1  0.87480000  0.50000000  0.41630000  1.0 -0.2295412597
O  O21  1  0.50000000  0.41630000  0.12520000  1.0 -0.2295412597
O  O22  1  0.50000000  0.58370000  0.87480000  1.0 -0.2295412597
O  O23  1  0.50000000  0.41630000  0.87480000  1.0 -0.2295412597
O  O24  1  0.50000000  0.58370000  0.12520000  1.0 -0.2295412597
