# DDEC6 charges by PACMAN v1.1 (https://github.com/mtap-research/PACMAN-charge/)
data_IZEFEZ_ASR_pacman
_symmetry_space_group_name_H-M   'P 1'
_cell_length_a   18.79290000
_cell_length_b   19.02420000
_cell_length_c   26.25470000
_cell_angle_alpha   74.82500000
_cell_angle_beta   78.09000000
_cell_angle_gamma   64.84300000
_symmetry_Int_Tables_number   1
_chemical_formula_structural   Cd7H146C224(N2O3)16
_chemical_formula_sum   'Cd7 H146 C224 N32 O48'
_cell_volume   8151.23908106
_cell_formula_units_Z   1
loop_
 _symmetry_equiv_pos_site_id
 _symmetry_equiv_pos_as_xyz
  1  'x, y, z'
loop_
 _atom_site_type_symbol
 _atom_site_label
 _atom_site_symmetry_multiplicity
 _atom_site_fract_x
 _atom_site_fract_y
 _atom_site_fract_z
 _atom_site_occupancy
 _atom_site_charge
Cd  Cd1  1  0.02196000  0.59850000  0.90330000  1.0 1.007477508
Cd  Cd2  1  0.97804000  0.40150000  0.09670000  1.0 1.007477508
Cd  Cd3  1  0.05013000  0.70464000  0.74268000  1.0 1.0771891337
Cd  Cd4  1  0.94987000  0.29536000  0.25732000  1.0 1.0771891337
Cd  Cd5  1  0.06521000  0.80806000  0.59954000  1.0 1.0560505848
Cd  Cd6  1  0.93479000  0.19194000  0.40046000  1.0 1.0560505848
Cd  Cd7  1  0.00000000  0.00000000  0.50000000  1.0 0.9634477358
H  H1  1  0.64900000  0.40110000  0.75690000  1.0 0.1294128446
H  H2  1  0.35100000  0.59890000  0.24310000  1.0 0.1294128446
H  H3  1  0.62920000  0.44730000  0.90140000  1.0 0.1211200601
H  H4  1  0.37080000  0.55270000  0.09860000  1.0 0.1211200601
H  H5  1  0.87220000  0.34630000  0.78570000  1.0 0.1130007544
H  H6  1  0.12780000  0.65370000  0.21430000  1.0 0.1130007544
H  H7  1  0.00380000  0.33240000  0.76670000  1.0 0.1211200601
H  H8  1  0.99620000  0.66760000  0.23330000  1.0 0.1211200601
H  H9  1  0.04630000  0.40800000  0.79880000  1.0 0.1211200601
H  H10  1  0.95370000  0.59200000  0.20120000  1.0 0.1211200601
H  H11  1  0.82690000  0.50940000  0.87320000  1.0 0.1403660465
H  H12  1  0.17310000  0.49060000  0.12680000  1.0 0.1403660465
H  H13  1  0.53880000  0.39250000  0.72600000  1.0 0.1294128446
H  H14  1  0.46120000  0.60750000  0.27400000  1.0 0.1294128446
H  H15  1  0.46200000  0.39490000  0.76550000  1.0 0.1211200601
H  H16  1  0.53800000  0.60510000  0.23450000  1.0 0.1294128446
H  H17  1  0.63810000  0.06470000  0.80850000  1.0 0.1294128446
H  H18  1  0.36190000  0.93530000  0.19150000  1.0 0.1294128446
H  H19  1  0.66500000  0.26520000  0.73440000  1.0 0.1211200601
H  H20  1  0.33500000  0.73480000  0.26560000  1.0 0.1294128446
H  H21  1  0.86160000  0.98280000  0.73580000  1.0 0.1294128446
H  H22  1  0.13840000  0.01720000  0.26420000  1.0 0.1294128446
H  H23  1  0.08040000  0.98020000  0.69620000  1.0 0.1211200601
H  H24  1  0.91960000  0.01980000  0.30380000  1.0 0.1211200601
H  H25  1  0.03290000  0.10950000  0.70580000  1.0 0.1211200601
H  H26  1  0.96710000  0.89050000  0.29420000  1.0 0.1211200601
H  H27  1  0.90050000  0.17540000  0.73080000  1.0 0.1294128446
H  H28  1  0.09950000  0.82460000  0.26920000  1.0 0.1294128446
H  H29  1  0.50600000  0.06830000  0.84000000  1.0 0.1294128446
H  H30  1  0.49400000  0.93170000  0.16000000  1.0 0.1294128446
H  H31  1  0.43650000  0.14910000  0.85060000  1.0 0.1294128446
H  H32  1  0.56350000  0.85090000  0.14940000  1.0 0.1294128446
H  H33  1  0.59940000  0.98890000  0.90330000  1.0 0.1294128446
H  H34  1  0.40060000  0.01110000  0.09670000  1.0 0.1294128446
H  H35  1  0.57110000  0.04520000  0.04310000  1.0 0.1211200601
H  H36  1  0.42890000  0.95480000  0.95690000  1.0 0.1211200601
H  H37  1  0.79180000  0.82050000  0.96500000  1.0 0.1211200601
H  H38  1  0.20820000  0.17950000  0.03500000  1.0 0.1211200601
H  H39  1  0.91760000  0.65850000  0.08130000  1.0 0.1294128446
H  H40  1  0.08240000  0.34150000  0.91870000  1.0 0.1294128446
H  H41  1  0.83530000  0.73300000  0.14320000  1.0 0.1294128446
H  H42  1  0.16470000  0.26700000  0.85680000  1.0 0.1294128446
H  H43  1  0.72730000  0.84730000  0.11740000  1.0 0.1294128446
H  H44  1  0.27270000  0.15270000  0.88260000  1.0 0.1294128446
H  H45  1  0.39210000  0.21910000  0.01920000  1.0 0.1294128446
H  H46  1  0.60790000  0.78090000  0.98080000  1.0 0.1294128446
H  H47  1  0.44400000  0.15990000  0.06480000  1.0 0.1211200601
H  H48  1  0.55600000  0.84010000  0.93520000  1.0 0.1211200601
H  H49  1  0.54580000  0.18920000  0.08780000  1.0 0.1403660465
H  H50  1  0.45420000  0.81080000  0.91220000  1.0 0.1403660465
H  H51  1  0.58180000  0.38730000  0.01820000  1.0 0.1294128446
H  H52  1  0.41820000  0.61270000  0.98180000  1.0 0.1294128446
H  H53  1  0.69070000  0.17180000  0.19110000  1.0 0.1294128446
H  H54  1  0.30930000  0.82820000  0.80890000  1.0 0.1294128446
H  H55  1  0.78760000  0.14100000  0.24540000  1.0 0.1211200601
H  H56  1  0.21240000  0.85900000  0.75460000  1.0 0.1211200601
H  H57  1  0.86850000  0.21120000  0.22490000  1.0 0.1211200601
H  H58  1  0.13150000  0.78880000  0.77510000  1.0 0.1211200601
H  H59  1  0.75490000  0.34270000  0.09720000  1.0 0.1403660465
H  H60  1  0.24510000  0.65730000  0.90280000  1.0 0.1403660465
H  H61  1  0.49900000  0.48720000  0.95340000  1.0 0.1211200601
H  H62  1  0.50100000  0.51280000  0.04660000  1.0 0.1211200601
H  H63  1  0.42940000  0.47420000  0.93740000  1.0 0.1294128446
H  H64  1  0.57060000  0.52580000  0.06260000  1.0 0.1294128446
H  H65  1  0.94660000  0.60120000  0.43080000  1.0 0.1294128446
H  H66  1  0.05340000  0.39880000  0.56920000  1.0 0.1294128446
H  H67  1  0.82820000  0.47610000  0.52780000  1.0 0.1294128446
H  H68  1  0.17180000  0.52390000  0.47220000  1.0 0.1294128446
H  H69  1  0.81990000  0.53260000  0.67020000  1.0 0.1294128446
H  H70  1  0.18010000  0.46740000  0.32980000  1.0 0.1294128446
H  H71  1  0.83550000  0.58070000  0.73880000  1.0 0.1211200601
H  H72  1  0.16450000  0.41930000  0.26120000  1.0 0.1211200601
H  H73  1  0.91270000  0.65430000  0.72190000  1.0 0.1211200601
H  H74  1  0.08730000  0.34570000  0.27810000  1.0 0.1211200601
H  H75  1  0.95930000  0.63150000  0.56860000  1.0 0.1294128446
H  H76  1  0.04070000  0.36850000  0.43140000  1.0 0.1294128446
H  H77  1  0.95060000  0.54280000  0.31230000  1.0 0.1294128446
H  H78  1  0.04940000  0.45720000  0.68770000  1.0 0.1294128446
H  H79  1  0.99260000  0.58060000  0.33740000  1.0 0.1211200601
H  H80  1  0.00740000  0.41940000  0.66260000  1.0 0.1211200601
H  H81  1  0.91870000  0.71980000  0.35190000  1.0 0.1294128446
H  H82  1  0.08130000  0.28020000  0.64810000  1.0 0.1294128446
H  H83  1  0.72030000  0.86150000  0.28180000  1.0 0.1211200601
H  H84  1  0.27970000  0.13850000  0.71820000  1.0 0.1211200601
H  H85  1  0.86530000  0.92380000  0.39390000  1.0 0.1294128446
H  H86  1  0.13470000  0.07620000  0.60610000  1.0 0.1294128446
H  H87  1  0.77030000  0.15600000  0.39810000  1.0 0.1211200601
H  H88  1  0.22970000  0.84400000  0.60190000  1.0 0.1211200601
H  H89  1  0.67170000  0.17690000  0.34890000  1.0 0.1211200601
H  H90  1  0.32830000  0.82310000  0.65110000  1.0 0.1211200601
H  H91  1  0.67020000  0.07020000  0.32090000  1.0 0.1211200601
H  H92  1  0.32980000  0.92980000  0.67910000  1.0 0.1211200601
H  H93  1  0.68250000  0.81090000  0.21800000  1.0 0.1294128446
H  H94  1  0.31750000  0.18910000  0.78200000  1.0 0.1294128446
H  H95  1  0.71950000  0.71880000  0.21830000  1.0 0.1130007544
H  H96  1  0.28050000  0.28120000  0.78170000  1.0 0.1130007544
H  H97  1  0.56070000  0.86830000  0.26870000  1.0 0.1294128446
H  H98  1  0.43930000  0.13170000  0.73130000  1.0 0.1294128446
H  H99  1  0.44610000  0.73670000  0.36140000  1.0 0.1294128446
H  H100  1  0.55390000  0.26330000  0.63860000  1.0 0.1294128446
H  H101  1  0.35200000  0.03080000  0.27880000  1.0 0.1130007544
H  H102  1  0.64800000  0.96920000  0.72120000  1.0 0.1130007544
H  H103  1  0.24410000  0.15280000  0.27930000  1.0 0.1211200601
H  H104  1  0.75590000  0.84720000  0.72070000  1.0 0.1211200601
H  H105  1  0.13230000  0.15840000  0.34130000  1.0 0.1294128446
H  H106  1  0.86770000  0.84160000  0.65870000  1.0 0.1294128446
H  H107  1  0.23960000  0.92390000  0.39360000  1.0 0.1403660465
H  H108  1  0.76040000  0.07610000  0.60640000  1.0 0.1403660465
H  H109  1  0.49740000  0.59570000  0.36620000  1.0 0.1294128446
H  H110  1  0.50260000  0.40430000  0.63380000  1.0 0.1294128446
H  H111  1  0.58000000  0.55290000  0.33470000  1.0 0.1294128446
H  H112  1  0.42000000  0.44710000  0.66530000  1.0 0.1294128446
H  H113  1  0.49220000  0.60500000  0.45900000  1.0 0.1211200601
H  H114  1  0.50780000  0.39500000  0.54100000  1.0 0.1211200601
H  H115  1  0.67890000  0.46220000  0.53910000  1.0 0.1294128446
H  H116  1  0.32110000  0.53780000  0.46090000  1.0 0.1294128446
H  H117  1  0.32220000  0.65990000  0.58030000  1.0 0.1403660465
H  H118  1  0.67780000  0.34010000  0.41970000  1.0 0.1403660465
H  H119  1  0.30860000  0.66130000  0.73470000  1.0 0.1211200601
H  H120  1  0.69140000  0.33870000  0.26530000  1.0 0.1211200601
H  H121  1  0.44500000  0.61330000  0.72860000  1.0 0.1211200601
H  H122  1  0.55500000  0.38670000  0.27140000  1.0 0.1211200601
H  H123  1  0.52100000  0.57920000  0.64950000  1.0 0.1211200601
H  H124  1  0.47900000  0.42080000  0.35050000  1.0 0.1211200601
H  H125  1  0.80940000  0.38590000  0.43280000  1.0 0.1294128446
H  H126  1  0.19060000  0.61410000  0.56720000  1.0 0.1294128446
H  H127  1  0.80140000  0.38120000  0.49480000  1.0 0.1211200601
H  H128  1  0.19860000  0.61880000  0.50520000  1.0 0.1294128446
H  H129  1  0.41710000  0.40650000  0.83660000  1.0 0.3486878138
H  H130  1  0.58290000  0.59350000  0.16340000  1.0 0.3486878138
H  H131  1  0.42050000  0.26000000  0.85250000  1.0 0.3234194677
H  H132  1  0.57950000  0.74000000  0.14750000  1.0 0.3234194677
H  H133  1  0.42980000  0.25240000  0.93160000  1.0 0.3234194677
H  H134  1  0.57020000  0.74760000  0.06840000  1.0 0.3234194677
H  H135  1  0.41290000  0.37780000  0.93140000  1.0 0.3364892315
H  H136  1  0.58710000  0.62220000  0.06860000  1.0 0.3364892315
H  H137  1  0.82400000  0.46590000  0.36030000  1.0 0.3311112384
H  H138  1  0.17600000  0.53410000  0.63970000  1.0 0.3311112384
H  H139  1  0.78730000  0.62260000  0.25340000  1.0 0.2411213379
H  H140  1  0.21270000  0.37740000  0.74660000  1.0 0.2411213379
H  H141  1  0.71920000  0.62040000  0.26930000  1.0 0.2571338873
H  H142  1  0.28080000  0.37960000  0.73070000  1.0 0.2571338873
H  H143  1  0.70980000  0.53330000  0.34180000  1.0 0.3311112384
H  H144  1  0.29020000  0.46670000  0.65820000  1.0 0.3311112384
H  H145  1  0.12030000  0.24810000  0.08180000  1.0 0.368114398
H  H146  1  0.87970000  0.75190000  0.91820000  1.0 0.368114398
C  C1  1  0.50220000  0.41970000  0.84910000  1.0 0.160058419
C  C2  1  0.49780000  0.58030000  0.15090000  1.0 0.1509130248
C  C3  1  0.54560000  0.40380000  0.80080000  1.0 0.0297963414
C  C4  1  0.45440000  0.59620000  0.19920000  1.0 0.0297963414
C  C5  1  0.61970000  0.40860000  0.79010000  1.0 -0.2216044629
C  C6  1  0.38030000  0.59140000  0.20990000  1.0 -0.2216044629
C  C7  1  0.65110000  0.42440000  0.82750000  1.0 0.160058419
C  C8  1  0.34890000  0.57560000  0.17250000  1.0 0.160058419
C  C9  1  0.60750000  0.43760000  0.87600000  1.0 -0.2216044629
C  C10  1  0.39250000  0.56240000  0.12400000  1.0 -0.2216044629
C  C11  1  0.53160000  0.43680000  0.88780000  1.0 0.0510789405
C  C12  1  0.46840000  0.56320000  0.11220000  1.0 0.0510789405
C  C13  1  0.83660000  0.43070000  0.83000000  1.0 0.1403660465
C  C14  1  0.16340000  0.56930000  0.17000000  1.0 0.1403660465
C  C15  1  0.88950000  0.37700000  0.79900000  1.0 -0.1501447353
C  C16  1  0.11050000  0.62300000  0.20100000  1.0 -0.1501447353
C  C17  1  0.96810000  0.36870000  0.78770000  1.0 -0.0801183353
C  C18  1  0.03190000  0.63130000  0.21230000  1.0 -0.0801183353
C  C19  1  0.99340000  0.41330000  0.80720000  1.0 -0.1010994143
C  C20  1  0.00660000  0.58670000  0.19280000  1.0 -0.1010994143
C  C21  1  0.94180000  0.46660000  0.83930000  1.0 0.0017850556
C  C22  1  0.05820000  0.53340000  0.16070000  1.0 0.0017850556
C  C23  1  0.86230000  0.47460000  0.85120000  1.0 -0.1597458086
C  C24  1  0.13770000  0.52540000  0.14880000  1.0 -0.1597458086
C  C25  1  0.97030000  0.51380000  0.86170000  1.0 0.5402346115
C  C26  1  0.02970000  0.48620000  0.13830000  1.0 0.5402346115
C  C27  1  0.51980000  0.37370000  0.76250000  1.0 -0.2985343873
C  C28  1  0.48020000  0.62630000  0.23750000  1.0 -0.2985343873
C  C29  1  0.50660000  0.24330000  0.80540000  1.0 0.1403660465
C  C30  1  0.49340000  0.75670000  0.19460000  1.0 0.1403660465
C  C31  1  0.53940000  0.16180000  0.81690000  1.0 0.0180942017
C  C32  1  0.46060000  0.83820000  0.18310000  1.0 0.0180942017
C  C33  1  0.61690000  0.12030000  0.79980000  1.0 -0.1740224202
C  C34  1  0.38310000  0.87970000  0.20020000  1.0 -0.1740224202
C  C35  1  0.66110000  0.15630000  0.77210000  1.0 0.1211200601
C  C36  1  0.33890000  0.84370000  0.22790000  1.0 0.1211200601
C  C37  1  0.63260000  0.24010000  0.75600000  1.0 -0.2216044629
C  C38  1  0.36740000  0.75990000  0.24400000  1.0 -0.2216044629
C  C39  1  0.55200000  0.28460000  0.77410000  1.0 0.0510789405
C  C40  1  0.44800000  0.71540000  0.22590000  1.0 0.0510789405
C  C41  1  0.86970000  0.08680000  0.73420000  1.0 0.1403660465
C  C42  1  0.13030000  0.91320000  0.26580000  1.0 0.1403660465
C  C43  1  0.89700000  0.00810000  0.72940000  1.0 -0.1501447353
C  C44  1  0.10300000  0.99190000  0.27060000  1.0 -0.1501447353
C  C45  1  0.97590000  0.96790000  0.71520000  1.0 0.0090515554
C  C46  1  0.02410000  0.03210000  0.28480000  1.0 0.0090515554
C  C47  1  0.02620000  0.00690000  0.70630000  1.0 -0.1085887682
C  C48  1  0.97380000  0.99310000  0.29370000  1.0 -0.1085887682
C  C49  1  0.99820000  0.08360000  0.71190000  1.0 -0.0722420153
C  C50  1  0.00180000  0.91640000  0.28810000  1.0 -0.0722420153
C  C51  1  0.91970000  0.12280000  0.72630000  1.0 -0.1303279501
C  C52  1  0.08030000  0.87720000  0.27370000  1.0 -0.1303279501
C  C53  1  0.00840000  0.88290000  0.70710000  1.0 0.5794114729
C  C54  1  0.99160000  0.11710000  0.29290000  1.0 0.5794114729
C  C55  1  0.49320000  0.11710000  0.85230000  1.0 -0.2904006211
C  C56  1  0.50680000  0.88290000  0.14770000  1.0 -0.2985343873
C  C57  1  0.47300000  0.15000000  0.94130000  1.0 0.1294128446
C  C58  1  0.52700000  0.85000000  0.05870000  1.0 0.1294128446
C  C59  1  0.51120000  0.09690000  0.90830000  1.0 0.0297963414
C  C60  1  0.48880000  0.90310000  0.09170000  1.0 0.0297963414
C  C61  1  0.57310000  0.02550000  0.92590000  1.0 -0.2023651862
C  C62  1  0.42690000  0.97450000  0.07410000  1.0 -0.2023651862
C  C63  1  0.59510000  0.00880000  0.97370000  1.0 0.1294128446
C  C64  1  0.40490000  0.99120000  0.02630000  1.0 0.1294128446
C  C65  1  0.55600000  0.05870000  0.00870000  1.0 -0.2216044629
C  C66  1  0.44400000  0.94130000  0.99130000  1.0 -0.2216044629
C  C67  1  0.49090000  0.13290000  0.99200000  1.0 0.0297963414
C  C68  1  0.50910000  0.86710000  0.00800000  1.0 0.0297963414
C  C69  1  0.74880000  0.84370000  0.03950000  1.0 0.1509130248
C  C70  1  0.25120000  0.15630000  0.96050000  1.0 0.160058419
C  C71  1  0.80070000  0.80160000  0.00100000  1.0 -0.1859831576
C  C72  1  0.19930000  0.19840000  0.99900000  1.0 -0.1859831576
C  C73  1  0.86470000  0.73240000  0.01570000  1.0 -0.0290079334
C  C74  1  0.13530000  0.26760000  0.98430000  1.0 -0.0290079334
C  C75  1  0.87560000  0.70640000  0.07020000  1.0 -0.0801183353
C  C76  1  0.12440000  0.29360000  0.92980000  1.0 -0.0801183353
C  C77  1  0.82570000  0.75000000  0.10740000  1.0 -0.0801183353
C  C78  1  0.17430000  0.25000000  0.89260000  1.0 -0.0801183353
C  C79  1  0.76190000  0.81810000  0.09200000  1.0 -0.1501447353
C  C80  1  0.23810000  0.18190000  0.90800000  1.0 -0.1501447353
C  C81  1  0.91990000  0.68470000  0.97630000  1.0 0.5499620299
C  C82  1  0.08010000  0.31530000  0.02370000  1.0 0.5499620299
C  C83  1  0.44640000  0.19010000  0.02850000  1.0 -0.2904006211
C  C84  1  0.55360000  0.80990000  0.97150000  1.0 -0.2904006211
C  C85  1  0.46610000  0.32050000  0.98790000  1.0 0.1985459413
C  C86  1  0.53390000  0.67950000  0.01210000  1.0 0.1985459413
C  C87  1  0.48100000  0.25000000  0.02740000  1.0 0.0407492928
C  C88  1  0.51900000  0.75000000  0.97260000  1.0 0.0407492928
C  C89  1  0.53440000  0.23540000  0.06130000  1.0 -0.2216044629
C  C90  1  0.46560000  0.76460000  0.93870000  1.0 -0.2216044629
C  C91  1  0.57270000  0.28540000  0.05860000  1.0 0.1294128446
C  C92  1  0.42730000  0.71460000  0.94140000  1.0 0.1294128446
C  C93  1  0.55620000  0.35350000  0.02020000  1.0 -0.2283694361
C  C94  1  0.44380000  0.64650000  0.97980000  1.0 -0.2283694361
C  C95  1  0.50290000  0.37330000  0.98450000  1.0 0.0407492928
C  C96  1  0.49710000  0.62670000  0.01550000  1.0 0.0407492928
C  C97  1  0.71420000  0.26090000  0.13830000  1.0 0.1130007544
C  C98  1  0.28580000  0.73910000  0.86170000  1.0 0.1130007544
C  C99  1  0.72350000  0.20010000  0.18290000  1.0 -0.1400856663
C  C100  1  0.27650000  0.79990000  0.81710000  1.0 -0.1400856663
C  C101  1  0.78130000  0.18170000  0.21510000  1.0 -0.0722420153
C  C102  1  0.21870000  0.81830000  0.78490000  1.0 -0.0722420153
C  C103  1  0.82980000  0.22320000  0.20260000  1.0 -0.1210183826
C  C104  1  0.17020000  0.77680000  0.79740000  1.0 -0.1210183826
C  C105  1  0.82200000  0.28150000  0.15830000  1.0 0.0017850556
C  C106  1  0.17800000  0.71850000  0.84170000  1.0 0.0017850556
C  C107  1  0.76210000  0.30100000  0.12680000  1.0 -0.1597458086
C  C108  1  0.23790000  0.69900000  0.87320000  1.0 -0.1597458086
C  C109  1  0.87600000  0.32480000  0.14110000  1.0 0.5739769201
C  C110  1  0.12400000  0.67520000  0.85890000  1.0 0.5739769201
C  C111  1  0.48600000  0.44980000  0.94130000  1.0 -0.2904006211
C  C112  1  0.51400000  0.55020000  0.05870000  1.0 -0.2904006211
C  C113  1  0.87360000  0.49300000  0.40010000  1.0 0.160058419
C  C114  1  0.12640000  0.50700000  0.59990000  1.0 0.160058419
C  C115  1  0.91310000  0.54370000  0.39180000  1.0 0.0510789405
C  C116  1  0.08690000  0.45630000  0.60820000  1.0 0.0510789405
C  C117  1  0.92030000  0.56710000  0.43560000  1.0 -0.2082133655
C  C118  1  0.07970000  0.43290000  0.56440000  1.0 -0.2082133655
C  C119  1  0.89010000  0.54160000  0.48590000  1.0 0.1403660465
C  C120  1  0.10990000  0.45840000  0.51410000  1.0 0.1403660465
C  C121  1  0.84980000  0.49260000  0.49350000  1.0 -0.2023651862
C  C122  1  0.15020000  0.50740000  0.50650000  1.0 -0.2023651862
C  C123  1  0.84130000  0.46770000  0.45080000  1.0 0.0407492928
C  C124  1  0.15870000  0.53230000  0.54920000  1.0 0.0407492928
C  C125  1  0.88680000  0.57810000  0.61340000  1.0 0.1509130248
C  C126  1  0.11320000  0.42190000  0.38660000  1.0 0.1509130248
C  C127  1  0.85090000  0.56250000  0.66340000  1.0 -0.1400856663
C  C128  1  0.14910000  0.43750000  0.33660000  1.0 -0.1400856663
C  C129  1  0.86030000  0.59120000  0.70440000  1.0 -0.0722420153
C  C130  1  0.13970000  0.40880000  0.29560000  1.0 -0.0722420153
C  C131  1  0.90620000  0.63500000  0.69440000  1.0 -0.1085887682
C  C132  1  0.09380000  0.36500000  0.30560000  1.0 -0.1085887682
C  C133  1  0.94270000  0.65050000  0.64340000  1.0 -0.0035616809
C  C134  1  0.05730000  0.34950000  0.35660000  1.0 -0.0035616809
C  C135  1  0.93390000  0.62180000  0.60290000  1.0 -0.1501447353
C  C136  1  0.06610000  0.37820000  0.39710000  1.0 -0.1501447353
C  C137  1  0.99130000  0.69940000  0.62980000  1.0 0.5794114729
C  C138  1  0.00870000  0.30060000  0.37020000  1.0 0.5794114729
C  C139  1  0.94200000  0.57750000  0.33670000  1.0 -0.2804956128
C  C140  1  0.05800000  0.42250000  0.66330000  1.0 -0.2804956128
C  C141  1  0.82190000  0.67170000  0.28720000  1.0 0.160058419
C  C142  1  0.17810000  0.32830000  0.71280000  1.0 0.160058419
C  C143  1  0.88120000  0.66010000  0.31700000  1.0 0.0510789405
C  C144  1  0.11880000  0.33990000  0.68300000  1.0 0.0510789405
C  C145  1  0.87870000  0.72610000  0.33260000  1.0 -0.2283694361
C  C146  1  0.12130000  0.27390000  0.66740000  1.0 -0.2283694361
C  C147  1  0.81950000  0.80020000  0.32040000  1.0 0.1509130248
C  C148  1  0.18050000  0.19980000  0.67960000  1.0 0.1509130248
C  C149  1  0.76040000  0.81100000  0.29050000  1.0 -0.2216044629
C  C150  1  0.23960000  0.18900000  0.70950000  1.0 -0.2216044629
C  C151  1  0.76100000  0.74680000  0.27360000  1.0 0.0297963414
C  C152  1  0.23900000  0.25320000  0.72640000  1.0 0.0297963414
C  C153  1  0.76860000  0.98760000  0.35390000  1.0 0.1509130248
C  C154  1  0.23140000  0.01240000  0.64610000  1.0 0.1509130248
C  C155  1  0.82640000  0.97490000  0.38460000  1.0 -0.1597458086
C  C156  1  0.17360000  0.02510000  0.61540000  1.0 -0.1597458086
C  C157  1  0.82630000  0.03770000  0.40150000  1.0 0.0017850556
C  C158  1  0.17370000  0.96230000  0.59850000  1.0 0.0017850556
C  C159  1  0.76920000  0.11320000  0.38740000  1.0 -0.1010994143
C  C160  1  0.23080000  0.88680000  0.61260000  1.0 -0.1010994143
C  C161  1  0.71080000  0.12580000  0.35770000  1.0 -0.0900907692
C  C162  1  0.28920000  0.87420000  0.64230000  1.0 -0.0900907692
C  C163  1  0.71010000  0.06230000  0.34090000  1.0 -0.1597458086
C  C164  1  0.28990000  0.93770000  0.65910000  1.0 -0.1597458086
C  C165  1  0.89080000  0.02440000  0.43390000  1.0 0.5794114729
C  C166  1  0.10920000  0.97560000  0.56610000  1.0 0.5794114729
C  C167  1  0.69780000  0.75830000  0.24110000  1.0 -0.3148662288
C  C168  1  0.30220000  0.24170000  0.75890000  1.0 -0.3157939155
C  C169  1  0.62280000  0.67560000  0.29860000  1.0 0.1846581112
C  C170  1  0.37720000  0.32440000  0.70140000  1.0 0.1846581112
C  C171  1  0.62570000  0.75060000  0.27520000  1.0 0.0407492928
C  C172  1  0.37430000  0.24940000  0.72480000  1.0 0.0407492928
C  C173  1  0.55960000  0.81830000  0.28420000  1.0 -0.2023651862
C  C174  1  0.44040000  0.18170000  0.71580000  1.0 -0.2023651862
C  C175  1  0.49360000  0.81360000  0.31500000  1.0 0.1403660465
C  C176  1  0.50640000  0.18640000  0.68500000  1.0 0.1403660465
C  C177  1  0.49140000  0.73950000  0.33940000  1.0 -0.2082133655
C  C178  1  0.50860000  0.26050000  0.66060000  1.0 -0.2082133655
C  C179  1  0.55510000  0.67060000  0.33140000  1.0 0.0407492928
C  C180  1  0.44490000  0.32940000  0.66860000  1.0 0.0407492928
C  C181  1  0.30600000  0.96810000  0.33700000  1.0 0.1294128446
C  C182  1  0.69400000  0.03190000  0.66300000  1.0 0.1211200601
C  C183  1  0.30710000  0.03370000  0.30330000  1.0 -0.1597458086
C  C184  1  0.69290000  0.96630000  0.69670000  1.0 -0.1597458086
C  C185  1  0.24260000  0.10700000  0.30330000  1.0 -0.0722420153
C  C186  1  0.75740000  0.89300000  0.69670000  1.0 -0.0722420153
C  C187  1  0.17620000  0.11030000  0.33990000  1.0 -0.1010994143
C  C188  1  0.82380000  0.88970000  0.66010000  1.0 -0.1010994143
C  C189  1  0.17650000  0.04190000  0.37370000  1.0 -0.0035616809
C  C190  1  0.82350000  0.95810000  0.62630000  1.0 -0.0035616809
C  C191  1  0.24120000  0.97080000  0.37120000  1.0 -0.1597458086
C  C192  1  0.75880000  0.02920000  0.62880000  1.0 -0.1501447353
C  C193  1  0.10620000  0.04350000  0.41360000  1.0 0.5891325931
C  C194  1  0.89380000  0.95650000  0.58640000  1.0 0.5891325931
C  C195  1  0.55260000  0.59010000  0.35890000  1.0 -0.2904006211
C  C196  1  0.44740000  0.40990000  0.64110000  1.0 -0.2904006211
C  C197  1  0.67090000  0.50670000  0.41170000  1.0 0.160058419
C  C198  1  0.32910000  0.49330000  0.58830000  1.0 0.160058419
C  C199  1  0.59040000  0.55510000  0.41100000  1.0 0.0297963414
C  C200  1  0.40960000  0.44490000  0.58900000  1.0 0.0297963414
C  C201  1  0.54590000  0.57090000  0.45870000  1.0 -0.2082133655
C  C202  1  0.45410000  0.42910000  0.54130000  1.0 -0.2082133655
C  C203  1  0.57930000  0.53710000  0.50640000  1.0 0.1509130248
C  C204  1  0.42070000  0.46290000  0.49360000  1.0 0.1509130248
C  C205  1  0.65740000  0.48620000  0.50650000  1.0 -0.2082133655
C  C206  1  0.34260000  0.51380000  0.49350000  1.0 -0.2082133655
C  C207  1  0.70550000  0.46920000  0.45970000  1.0 0.0510789405
C  C208  1  0.29450000  0.53080000  0.54030000  1.0 0.0510789405
C  C209  1  0.42840000  0.61680000  0.60750000  1.0 0.1509130248
C  C210  1  0.57160000  0.38320000  0.39250000  1.0 0.1509130248
C  C211  1  0.34690000  0.64870000  0.61080000  1.0 -0.1501447353
C  C212  1  0.65310000  0.35130000  0.38920000  1.0 -0.1501447353
C  C213  1  0.30090000  0.66440000  0.65790000  1.0 -0.0107784056
C  C214  1  0.69910000  0.33560000  0.34210000  1.0 -0.0107784056
C  C215  1  0.33880000  0.65040000  0.70230000  1.0 -0.1085887682
C  C216  1  0.66120000  0.34960000  0.29770000  1.0 -0.1085887682
C  C217  1  0.42010000  0.62080000  0.69880000  1.0 -0.0900907692
C  C218  1  0.57990000  0.37920000  0.30120000  1.0 -0.0900907692
C  C219  1  0.46550000  0.60190000  0.65140000  1.0 -0.1501447353
C  C220  1  0.53450000  0.39810000  0.34860000  1.0 -0.1501447353
C  C221  1  0.21260000  0.69260000  0.66170000  1.0 0.5891325931
C  C222  1  0.78740000  0.30740000  0.33830000  1.0 0.5891325931
C  C223  1  0.79230000  0.41760000  0.46040000  1.0 -0.2804956128
C  C224  1  0.20770000  0.58240000  0.53960000  1.0 -0.2804956128
N  N1  1  0.75530000  0.44130000  0.84400000  1.0 -0.1085887682
N  N2  1  0.24470000  0.55870000  0.15600000  1.0 -0.1085887682
N  N3  1  0.73010000  0.41950000  0.81270000  1.0 -0.1400856663
N  N4  1  0.26990000  0.58050000  0.18730000  1.0 -0.1400856663
N  N5  1  0.74960000  0.10170000  0.75940000  1.0 -0.0801183353
N  N6  1  0.25040000  0.89830000  0.24060000  1.0 -0.0801183353
N  N7  1  0.78440000  0.14250000  0.74530000  1.0 -0.0577038752
N  N8  1  0.21560000  0.85750000  0.25470000  1.0 -0.0577038752
N  N9  1  0.66770000  0.92870000  0.98680000  1.0 -0.0577038752
N  N10  1  0.33230000  0.07130000  0.01320000  1.0 -0.0524460961
N  N11  1  0.67660000  0.92340000  0.02980000  1.0 -0.0722420153
N  N12  1  0.32340000  0.07660000  0.97020000  1.0 -0.0722420153
N  N13  1  0.63090000  0.24980000  0.10470000  1.0 -0.0290079334
N  N14  1  0.36910000  0.75020000  0.89530000  1.0 -0.0290079334
N  N15  1  0.65270000  0.29750000  0.09130000  1.0 -0.0801183353
N  N16  1  0.34730000  0.70250000  0.90870000  1.0 -0.0801183353
N  N17  1  0.87450000  0.54710000  0.57300000  1.0 -0.1210183826
N  N18  1  0.12550000  0.45290000  0.42700000  1.0 -0.1210183826
N  N19  1  0.89990000  0.57210000  0.52700000  1.0 -0.1085887682
N  N20  1  0.10010000  0.42790000  0.47300000  1.0 -0.1085887682
N  N21  1  0.82280000  0.86140000  0.34070000  1.0 -0.1303279501
N  N22  1  0.17720000  0.13860000  0.65930000  1.0 -0.1303279501
N  N23  1  0.76470000  0.92650000  0.33250000  1.0 -0.1210183826
N  N24  1  0.23530000  0.07350000  0.66750000  1.0 -0.1210183826
N  N25  1  0.42810000  0.89390000  0.31500000  1.0 -0.0900907692
N  N26  1  0.57190000  0.10610000  0.68500000  1.0 -0.0900907692
N  N27  1  0.37190000  0.88580000  0.34020000  1.0 -0.0801183353
N  N28  1  0.62810000  0.11420000  0.65980000  1.0 -0.0801183353
N  N29  1  0.53880000  0.55100000  0.55770000  1.0 -0.1303279501
N  N30  1  0.46120000  0.44900000  0.44230000  1.0 -0.1303279501
N  N31  1  0.46870000  0.60250000  0.55560000  1.0 -0.1303279501
N  N32  1  0.53130000  0.39750000  0.44440000  1.0 -0.1303279501
O  O1  1  0.42850000  0.41770000  0.86150000  1.0 -0.4404373725
O  O2  1  0.57150000  0.58230000  0.13850000  1.0 -0.4404373725
O  O3  1  0.42930000  0.28580000  0.82190000  1.0 -0.462761863
O  O4  1  0.57070000  0.71420000  0.17810000  1.0 -0.462761863
O  O5  1  0.41400000  0.22140000  0.92350000  1.0 -0.4778785024
O  O6  1  0.58600000  0.77860000  0.07650000  1.0 -0.4778785024
O  O7  1  0.41650000  0.33580000  0.95250000  1.0 -0.4285228033
O  O8  1  0.58350000  0.66420000  0.04750000  1.0 -0.4285228033
O  O9  1  0.03620000  0.51630000  0.84390000  1.0 -0.5697010149
O  O10  1  0.96380000  0.48370000  0.15610000  1.0 -0.5697010149
O  O11  1  0.92740000  0.54930000  0.89830000  1.0 -0.5609542508
O  O12  1  0.07260000  0.45070000  0.10170000  1.0 -0.5540309687
O  O13  1  0.99080000  0.83420000  0.74360000  1.0 -0.5386944701
O  O14  1  0.00920000  0.16580000  0.25640000  1.0 -0.5386944701
O  O15  1  0.05250000  0.86860000  0.66666667  1.0 -0.5386944701
O  O16  1  0.94750000  0.13140000  0.33333333  1.0 -0.5386944701
O  O17  1  0.92280000  0.71500000  0.92790000  1.0 -0.4404373725
O  O18  1  0.07720000  0.28500000  0.07210000  1.0 -0.4285228033
O  O19  1  0.96530000  0.61490000  0.99210000  1.0 -0.4778785024
O  O20  1  0.03470000  0.38510000  0.00790000  1.0 -0.4778785024
O  O21  1  0.87770000  0.36200000  0.09470000  1.0 -0.5009871263
O  O22  1  0.12230000  0.63800000  0.90530000  1.0 -0.5009871263
O  O23  1  0.91810000  0.32430000  0.17160000  1.0 -0.5609542508
O  O24  1  0.08190000  0.67570000  0.82840000  1.0 -0.5609542508
O  O25  1  0.86940000  0.46680000  0.35782000  1.0 -0.4285228033
O  O26  1  0.13060000  0.53320000  0.64218000  1.0 -0.4285228033
O  O27  1  0.82520000  0.60870000  0.27048000  1.0 -0.402757584
O  O28  1  0.17480000  0.39130000  0.72952000  1.0 -0.402757584
O  O29  1  0.68330000  0.60920000  0.28902000  1.0 -0.4181217243
O  O30  1  0.31670000  0.39080000  0.71098000  1.0 -0.4181217243
O  O31  1  0.71860000  0.49120000  0.36529000  1.0 -0.4404373725
O  O32  1  0.28140000  0.50880000  0.63471000  1.0 -0.4404373725
O  O33  1  0.99910000  0.72820000  0.66626000  1.0 -0.6199529905
O  O34  1  0.00090000  0.27180000  0.33374000  1.0 -0.6199529905
O  O35  1  0.01970000  0.71490000  0.58312000  1.0 -0.4947502155
O  O36  1  0.98030000  0.28510000  0.41688000  1.0 -0.4947502155
O  O37  1  0.93600000  0.95460000  0.45200000  1.0 -0.5178811838
O  O38  1  0.06400000  0.04540000  0.54800000  1.0 -0.5178811838
O  O39  1  0.89590000  0.08370000  0.44342000  1.0 -0.5809377272
O  O40  1  0.10410000  0.91630000  0.55658000  1.0 -0.5809377272
O  O41  1  0.05650000  0.10940000  0.42380000  1.0 -0.5697010149
O  O42  1  0.94350000  0.89060000  0.57620000  1.0 -0.5697010149
O  O43  1  0.10290000  0.97750000  0.43700000  1.0 -0.5178811838
O  O44  1  0.89710000  0.02250000  0.56300000  1.0 -0.5178811838
O  O45  1  0.18360000  0.72020000  0.61807000  1.0 -0.5540309687
O  O46  1  0.81640000  0.27980000  0.38193000  1.0 -0.5540309687
O  O47  1  0.17550000  0.68690000  0.70669000  1.0 -0.5609542508
O  O48  1  0.82450000  0.31310000  0.29331000  1.0 -0.5609542508
