# DDEC6 charges by PACMAN v1.1 (https://github.com/mtap-research/PACMAN-charge/)
data_IZENOS_ion_pacman
_symmetry_space_group_name_H-M   'P 1'
_cell_length_a   21.95240000
_cell_length_b   21.95240000
_cell_length_c   21.95240000
_cell_angle_alpha   90.00000000
_cell_angle_beta   90.00000000
_cell_angle_gamma   90.00000000
_symmetry_Int_Tables_number   1
_chemical_formula_structural   Fe3H9C24N4O19
_chemical_formula_sum   'Fe24 H72 C192 N32 O152'
_cell_volume   10579.03423231
_cell_formula_units_Z   8
loop_
 _symmetry_equiv_pos_site_id
 _symmetry_equiv_pos_as_xyz
  1  'x, y, z'
loop_
 _atom_site_type_symbol
 _atom_site_label
 _atom_site_symmetry_multiplicity
 _atom_site_fract_x
 _atom_site_fract_y
 _atom_site_fract_z
 _atom_site_occupancy
 _atom_site_charge
Fe  Fe1  1  0.76070000  0.30342000  0.17958000  1.0 1.2784583989
Fe  Fe2  1  0.23930000  0.69658000  0.17958000  1.0 1.2784583989
Fe  Fe3  1  0.23930000  0.30342000  0.82042000  1.0 1.2784583989
Fe  Fe4  1  0.76070000  0.69658000  0.82042000  1.0 1.2784583989
Fe  Fe5  1  0.17958000  0.76070000  0.30342000  1.0 1.2784583989
Fe  Fe6  1  0.17958000  0.23930000  0.69658000  1.0 1.2784583989
Fe  Fe7  1  0.82042000  0.23930000  0.30342000  1.0 1.2784583989
Fe  Fe8  1  0.82042000  0.76070000  0.69658000  1.0 1.2784583989
Fe  Fe9  1  0.30342000  0.17958000  0.76070000  1.0 1.2784583989
Fe  Fe10  1  0.69658000  0.17958000  0.23930000  1.0 1.2784583989
Fe  Fe11  1  0.30342000  0.82042000  0.23930000  1.0 1.2784583989
Fe  Fe12  1  0.69658000  0.82042000  0.76070000  1.0 1.2784583989
Fe  Fe13  1  0.80342000  0.26070000  0.67958000  1.0 1.2784583989
Fe  Fe14  1  0.19658000  0.73930000  0.67958000  1.0 1.2784583989
Fe  Fe15  1  0.80342000  0.73930000  0.32042000  1.0 1.2784583989
Fe  Fe16  1  0.19658000  0.26070000  0.32042000  1.0 1.2784583989
Fe  Fe17  1  0.26070000  0.67958000  0.80342000  1.0 1.2784583989
Fe  Fe18  1  0.73930000  0.67958000  0.19658000  1.0 1.2784583989
Fe  Fe19  1  0.73930000  0.32042000  0.80342000  1.0 1.2784583989
Fe  Fe20  1  0.26070000  0.32042000  0.19658000  1.0 1.2784583989
Fe  Fe21  1  0.67958000  0.80342000  0.26070000  1.0 1.2784583989
Fe  Fe22  1  0.67958000  0.19658000  0.73930000  1.0 1.2784583989
Fe  Fe23  1  0.32042000  0.80342000  0.73930000  1.0 1.2784583989
Fe  Fe24  1  0.32042000  0.19658000  0.26070000  1.0 1.2784583989
H  H1  1  0.72400000  0.24500000  0.99150000  1.0 0.1424151164
H  H2  1  0.27600000  0.75500000  0.99150000  1.0 0.1424151164
H  H3  1  0.27600000  0.24500000  0.00850000  1.0 0.1424151164
H  H4  1  0.72400000  0.75500000  0.00850000  1.0 0.1424151164
H  H5  1  0.99150000  0.72400000  0.24500000  1.0 0.1424151164
H  H6  1  0.99150000  0.27600000  0.75500000  1.0 0.1424151164
H  H7  1  0.00850000  0.27600000  0.24500000  1.0 0.1424151164
H  H8  1  0.00850000  0.72400000  0.75500000  1.0 0.1424151164
H  H9  1  0.24500000  0.99150000  0.72400000  1.0 0.1424151164
H  H10  1  0.75500000  0.99150000  0.27600000  1.0 0.1424151164
H  H11  1  0.24500000  0.00850000  0.27600000  1.0 0.1424151164
H  H12  1  0.75500000  0.00850000  0.72400000  1.0 0.1424151164
H  H13  1  0.74500000  0.22400000  0.49150000  1.0 0.1424151164
H  H14  1  0.25500000  0.77600000  0.49150000  1.0 0.1424151164
H  H15  1  0.74500000  0.77600000  0.50850000  1.0 0.1424151164
H  H16  1  0.25500000  0.22400000  0.50850000  1.0 0.1424151164
H  H17  1  0.22400000  0.49150000  0.74500000  1.0 0.1424151164
H  H18  1  0.77600000  0.49150000  0.25500000  1.0 0.1424151164
H  H19  1  0.77600000  0.50850000  0.74500000  1.0 0.1424151164
H  H20  1  0.22400000  0.50850000  0.25500000  1.0 0.1424151164
H  H21  1  0.49150000  0.74500000  0.22400000  1.0 0.1424151164
H  H22  1  0.49150000  0.25500000  0.77600000  1.0 0.1424151164
H  H23  1  0.50850000  0.74500000  0.77600000  1.0 0.1424151164
H  H24  1  0.50850000  0.25500000  0.22400000  1.0 0.1424151164
H  H25  1  0.68950000  0.09360000  0.89160000  1.0 0.1424151164
H  H26  1  0.31050000  0.90640000  0.89160000  1.0 0.1424151164
H  H27  1  0.31050000  0.09360000  0.10840000  1.0 0.1424151164
H  H28  1  0.68950000  0.90640000  0.10840000  1.0 0.1424151164
H  H29  1  0.89160000  0.68950000  0.09360000  1.0 0.1424151164
H  H30  1  0.89160000  0.31050000  0.90640000  1.0 0.1424151164
H  H31  1  0.10840000  0.31050000  0.09360000  1.0 0.1424151164
H  H32  1  0.10840000  0.68950000  0.90640000  1.0 0.1424151164
H  H33  1  0.09360000  0.89160000  0.68950000  1.0 0.1424151164
H  H34  1  0.90640000  0.89160000  0.31050000  1.0 0.1424151164
H  H35  1  0.09360000  0.10840000  0.31050000  1.0 0.1424151164
H  H36  1  0.90640000  0.10840000  0.68950000  1.0 0.1424151164
H  H37  1  0.59360000  0.18950000  0.39160000  1.0 0.1424151164
H  H38  1  0.40640000  0.81050000  0.39160000  1.0 0.1424151164
H  H39  1  0.59360000  0.81050000  0.60840000  1.0 0.1424151164
H  H40  1  0.40640000  0.18950000  0.60840000  1.0 0.1424151164
H  H41  1  0.18950000  0.39160000  0.59360000  1.0 0.1424151164
H  H42  1  0.81050000  0.39160000  0.40640000  1.0 0.1424151164
H  H43  1  0.81050000  0.60840000  0.59360000  1.0 0.1424151164
H  H44  1  0.18950000  0.60840000  0.40640000  1.0 0.1424151164
H  H45  1  0.39160000  0.59360000  0.18950000  1.0 0.1424151164
H  H46  1  0.39160000  0.40640000  0.81050000  1.0 0.1424151164
H  H47  1  0.60840000  0.59360000  0.81050000  1.0 0.1424151164
H  H48  1  0.60840000  0.40640000  0.18950000  1.0 0.1424151164
H  H49  1  0.70110000  0.08340000  0.07670000  1.0 0.1424151164
H  H50  1  0.29890000  0.91660000  0.07670000  1.0 0.1424151164
H  H51  1  0.29890000  0.08340000  0.92330000  1.0 0.1424151164
H  H52  1  0.70110000  0.91660000  0.92330000  1.0 0.1424151164
H  H53  1  0.07670000  0.70110000  0.08340000  1.0 0.1424151164
H  H54  1  0.07670000  0.29890000  0.91660000  1.0 0.1424151164
H  H55  1  0.92330000  0.29890000  0.08340000  1.0 0.1424151164
H  H56  1  0.92330000  0.70110000  0.91660000  1.0 0.1424151164
H  H57  1  0.08340000  0.07670000  0.70110000  1.0 0.1424151164
H  H58  1  0.91660000  0.07670000  0.29890000  1.0 0.1424151164
H  H59  1  0.08340000  0.92330000  0.29890000  1.0 0.1424151164
H  H60  1  0.91660000  0.92330000  0.70110000  1.0 0.1424151164
H  H61  1  0.58340000  0.20110000  0.57670000  1.0 0.1424151164
H  H62  1  0.41660000  0.79890000  0.57670000  1.0 0.1424151164
H  H63  1  0.58340000  0.79890000  0.42330000  1.0 0.1424151164
H  H64  1  0.41660000  0.20110000  0.42330000  1.0 0.1424151164
H  H65  1  0.20110000  0.57670000  0.58340000  1.0 0.1424151164
H  H66  1  0.79890000  0.57670000  0.41660000  1.0 0.1424151164
H  H67  1  0.79890000  0.42330000  0.58340000  1.0 0.1424151164
H  H68  1  0.20110000  0.42330000  0.41660000  1.0 0.1424151164
H  H69  1  0.57670000  0.58340000  0.20110000  1.0 0.1424151164
H  H70  1  0.57670000  0.41660000  0.79890000  1.0 0.1424151164
H  H71  1  0.42330000  0.58340000  0.79890000  1.0 0.1424151164
H  H72  1  0.42330000  0.41660000  0.20110000  1.0 0.1424151164
C  C1  1  0.72150000  0.19780000  0.10424000  1.0 0.5984657629
C  C2  1  0.27850000  0.80220000  0.10424000  1.0 0.5984657629
C  C3  1  0.27850000  0.19780000  0.89576000  1.0 0.5984657629
C  C4  1  0.72150000  0.80220000  0.89576000  1.0 0.5984657629
C  C5  1  0.10424000  0.72150000  0.19780000  1.0 0.5984657629
C  C6  1  0.10424000  0.27850000  0.80220000  1.0 0.5984657629
C  C7  1  0.89576000  0.27850000  0.19780000  1.0 0.5984657629
C  C8  1  0.89576000  0.72150000  0.80220000  1.0 0.5984657629
C  C9  1  0.19780000  0.10424000  0.72150000  1.0 0.5984657629
C  C10  1  0.80220000  0.10424000  0.27850000  1.0 0.5984657629
C  C11  1  0.19780000  0.89576000  0.27850000  1.0 0.5984657629
C  C12  1  0.80220000  0.89576000  0.72150000  1.0 0.5984657629
C  C13  1  0.69780000  0.22150000  0.60424000  1.0 0.5984657629
C  C14  1  0.30220000  0.77850000  0.60424000  1.0 0.5984657629
C  C15  1  0.69780000  0.77850000  0.39576000  1.0 0.5984657629
C  C16  1  0.30220000  0.22150000  0.39576000  1.0 0.5984657629
C  C17  1  0.22150000  0.60424000  0.69780000  1.0 0.5984657629
C  C18  1  0.77850000  0.60424000  0.30220000  1.0 0.5984657629
C  C19  1  0.77850000  0.39576000  0.69780000  1.0 0.5984657629
C  C20  1  0.22150000  0.39576000  0.30220000  1.0 0.5984657629
C  C21  1  0.60424000  0.69780000  0.22150000  1.0 0.5984657629
C  C22  1  0.60424000  0.30220000  0.77850000  1.0 0.5984657629
C  C23  1  0.39576000  0.69780000  0.77850000  1.0 0.5984657629
C  C24  1  0.39576000  0.30220000  0.22150000  1.0 0.5984657629
C  C25  1  0.70620000  0.20880000  0.87465000  1.0 0.5887203439
C  C26  1  0.29380000  0.79120000  0.87465000  1.0 0.5887203439
C  C27  1  0.29380000  0.20880000  0.12535000  1.0 0.5887203439
C  C28  1  0.70620000  0.79120000  0.12535000  1.0 0.5887203439
C  C29  1  0.87465000  0.70620000  0.20880000  1.0 0.5887203439
C  C30  1  0.87465000  0.29380000  0.79120000  1.0 0.5887203439
C  C31  1  0.12535000  0.29380000  0.20880000  1.0 0.5887203439
C  C32  1  0.12535000  0.70620000  0.79120000  1.0 0.5887203439
C  C33  1  0.20880000  0.87465000  0.70620000  1.0 0.5887203439
C  C34  1  0.79120000  0.87465000  0.29380000  1.0 0.5887203439
C  C35  1  0.20880000  0.12535000  0.29380000  1.0 0.5887203439
C  C36  1  0.79120000  0.12535000  0.70620000  1.0 0.5887203439
C  C37  1  0.70880000  0.20620000  0.37465000  1.0 0.5887203439
C  C38  1  0.29120000  0.79380000  0.37465000  1.0 0.5887203439
C  C39  1  0.70880000  0.79380000  0.62535000  1.0 0.5887203439
C  C40  1  0.29120000  0.20620000  0.62535000  1.0 0.5887203439
C  C41  1  0.20620000  0.37465000  0.70880000  1.0 0.5887203439
C  C42  1  0.79380000  0.37465000  0.29120000  1.0 0.5887203439
C  C43  1  0.79380000  0.62535000  0.70880000  1.0 0.5887203439
C  C44  1  0.20620000  0.62535000  0.29120000  1.0 0.5887203439
C  C45  1  0.37465000  0.70880000  0.20620000  1.0 0.5887203439
C  C46  1  0.37465000  0.29120000  0.79380000  1.0 0.5887203439
C  C47  1  0.62535000  0.70880000  0.79380000  1.0 0.5887203439
C  C48  1  0.62535000  0.29120000  0.20620000  1.0 0.5887203439
C  C49  1  0.71580000  0.20250000  0.98970000  1.0 -0.0887196662
C  C50  1  0.28420000  0.79750000  0.98970000  1.0 -0.0887196662
C  C51  1  0.28420000  0.20250000  0.01030000  1.0 -0.0887196662
C  C52  1  0.71580000  0.79750000  0.01030000  1.0 -0.0887196662
C  C53  1  0.98970000  0.71580000  0.20250000  1.0 -0.0887196662
C  C54  1  0.98970000  0.28420000  0.79750000  1.0 -0.0887196662
C  C55  1  0.01030000  0.28420000  0.20250000  1.0 -0.0887196662
C  C56  1  0.01030000  0.71580000  0.79750000  1.0 -0.0887196662
C  C57  1  0.20250000  0.98970000  0.71580000  1.0 -0.0887196662
C  C58  1  0.79750000  0.98970000  0.28420000  1.0 -0.0887196662
C  C59  1  0.20250000  0.01030000  0.28420000  1.0 -0.0887196662
C  C60  1  0.79750000  0.01030000  0.71580000  1.0 -0.0887196662
C  C61  1  0.70250000  0.21580000  0.48970000  1.0 -0.0887196662
C  C62  1  0.29750000  0.78420000  0.48970000  1.0 -0.0887196662
C  C63  1  0.70250000  0.78420000  0.51030000  1.0 -0.0887196662
C  C64  1  0.29750000  0.21580000  0.51030000  1.0 -0.0887196662
C  C65  1  0.21580000  0.48970000  0.70250000  1.0 -0.0887196662
C  C66  1  0.78420000  0.48970000  0.29750000  1.0 -0.0887196662
C  C67  1  0.78420000  0.51030000  0.70250000  1.0 -0.0887196662
C  C68  1  0.21580000  0.51030000  0.29750000  1.0 -0.0887196662
C  C69  1  0.48970000  0.70250000  0.21580000  1.0 -0.0887196662
C  C70  1  0.48970000  0.29750000  0.78420000  1.0 -0.0887196662
C  C71  1  0.51030000  0.70250000  0.78420000  1.0 -0.0887196662
C  C72  1  0.51030000  0.29750000  0.21580000  1.0 -0.0887196662
C  C73  1  0.71330000  0.16920000  0.04270000  1.0 -0.0041143362
C  C74  1  0.28670000  0.83080000  0.04270000  1.0 -0.0041143362
C  C75  1  0.28670000  0.16920000  0.95730000  1.0 -0.0041143362
C  C76  1  0.71330000  0.83080000  0.95730000  1.0 -0.0041143362
C  C77  1  0.04270000  0.71330000  0.16920000  1.0 -0.0041143362
C  C78  1  0.04270000  0.28670000  0.83080000  1.0 -0.0041143362
C  C79  1  0.95730000  0.28670000  0.16920000  1.0 -0.0041143362
C  C80  1  0.95730000  0.71330000  0.83080000  1.0 -0.0041143362
C  C81  1  0.16920000  0.04270000  0.71330000  1.0 -0.0041143362
C  C82  1  0.83080000  0.04270000  0.28670000  1.0 -0.0041143362
C  C83  1  0.16920000  0.95730000  0.28670000  1.0 -0.0041143362
C  C84  1  0.83080000  0.95730000  0.71330000  1.0 -0.0041143362
C  C85  1  0.66920000  0.21330000  0.54270000  1.0 -0.0041143362
C  C86  1  0.33080000  0.78670000  0.54270000  1.0 -0.0041143362
C  C87  1  0.66920000  0.78670000  0.45730000  1.0 -0.0041143362
C  C88  1  0.33080000  0.21330000  0.45730000  1.0 -0.0041143362
C  C89  1  0.21330000  0.54270000  0.66920000  1.0 -0.0041143362
C  C90  1  0.78670000  0.54270000  0.33080000  1.0 -0.0041143362
C  C91  1  0.78670000  0.45730000  0.66920000  1.0 -0.0041143362
C  C92  1  0.21330000  0.45730000  0.33080000  1.0 -0.0041143362
C  C93  1  0.54270000  0.66920000  0.21330000  1.0 -0.0041143362
C  C94  1  0.54270000  0.33080000  0.78670000  1.0 -0.0041143362
C  C95  1  0.45730000  0.66920000  0.78670000  1.0 -0.0041143362
C  C96  1  0.45730000  0.33080000  0.21330000  1.0 -0.0041143362
C  C97  1  0.70630000  0.17450000  0.93340000  1.0 -0.0229087746
C  C98  1  0.29370000  0.82550000  0.93340000  1.0 -0.0229087746
C  C99  1  0.29370000  0.17450000  0.06660000  1.0 -0.0229087746
C  C100  1  0.70630000  0.82550000  0.06660000  1.0 -0.0229087746
C  C101  1  0.93340000  0.70630000  0.17450000  1.0 -0.0229087746
C  C102  1  0.93340000  0.29370000  0.82550000  1.0 -0.0229087746
C  C103  1  0.06660000  0.29370000  0.17450000  1.0 -0.0229087746
C  C104  1  0.06660000  0.70630000  0.82550000  1.0 -0.0229087746
C  C105  1  0.17450000  0.93340000  0.70630000  1.0 -0.0229087746
C  C106  1  0.82550000  0.93340000  0.29370000  1.0 -0.0229087746
C  C107  1  0.17450000  0.06660000  0.29370000  1.0 -0.0229087746
C  C108  1  0.82550000  0.06660000  0.70630000  1.0 -0.0229087746
C  C109  1  0.67450000  0.20630000  0.43340000  1.0 -0.0229087746
C  C110  1  0.32550000  0.79370000  0.43340000  1.0 -0.0229087746
C  C111  1  0.67450000  0.79370000  0.56660000  1.0 -0.0229087746
C  C112  1  0.32550000  0.20630000  0.56660000  1.0 -0.0229087746
C  C113  1  0.20630000  0.43340000  0.67450000  1.0 -0.0229087746
C  C114  1  0.79370000  0.43340000  0.32550000  1.0 -0.0229087746
C  C115  1  0.79370000  0.56660000  0.67450000  1.0 -0.0229087746
C  C116  1  0.20630000  0.56660000  0.32550000  1.0 -0.0229087746
C  C117  1  0.43340000  0.67450000  0.20630000  1.0 -0.0229087746
C  C118  1  0.43340000  0.32550000  0.79370000  1.0 -0.0229087746
C  C119  1  0.56660000  0.67450000  0.79370000  1.0 -0.0229087746
C  C120  1  0.56660000  0.32550000  0.20630000  1.0 -0.0229087746
C  C121  1  0.69600000  0.11290000  0.92980000  1.0 -0.1400949984
C  C122  1  0.30400000  0.88710000  0.92980000  1.0 -0.1400949984
C  C123  1  0.30400000  0.11290000  0.07020000  1.0 -0.1400949984
C  C124  1  0.69600000  0.88710000  0.07020000  1.0 -0.1400949984
C  C125  1  0.92980000  0.69600000  0.11290000  1.0 -0.1400949984
C  C126  1  0.92980000  0.30400000  0.88710000  1.0 -0.1400949984
C  C127  1  0.07020000  0.30400000  0.11290000  1.0 -0.1400949984
C  C128  1  0.07020000  0.69600000  0.88710000  1.0 -0.1400949984
C  C129  1  0.11290000  0.92980000  0.69600000  1.0 -0.1400949984
C  C130  1  0.88710000  0.92980000  0.30400000  1.0 -0.1400949984
C  C131  1  0.11290000  0.07020000  0.30400000  1.0 -0.1400949984
C  C132  1  0.88710000  0.07020000  0.69600000  1.0 -0.1400949984
C  C133  1  0.61290000  0.19600000  0.42980000  1.0 -0.1400949984
C  C134  1  0.38710000  0.80400000  0.42980000  1.0 -0.1400949984
C  C135  1  0.61290000  0.80400000  0.57020000  1.0 -0.1400949984
C  C136  1  0.38710000  0.19600000  0.57020000  1.0 -0.1400949984
C  C137  1  0.19600000  0.42980000  0.61290000  1.0 -0.1400949984
C  C138  1  0.80400000  0.42980000  0.38710000  1.0 -0.1400949984
C  C139  1  0.80400000  0.57020000  0.61290000  1.0 -0.1400949984
C  C140  1  0.19600000  0.57020000  0.38710000  1.0 -0.1400949984
C  C141  1  0.42980000  0.61290000  0.19600000  1.0 -0.1400949984
C  C142  1  0.42980000  0.38710000  0.80400000  1.0 -0.1400949984
C  C143  1  0.57020000  0.61290000  0.80400000  1.0 -0.1400949984
C  C144  1  0.57020000  0.38710000  0.19600000  1.0 -0.1400949984
C  C145  1  0.69550000  0.07930000  0.98370000  1.0 0.1424151164
C  C146  1  0.30450000  0.92070000  0.98370000  1.0 0.1424151164
C  C147  1  0.30450000  0.07930000  0.01630000  1.0 0.1424151164
C  C148  1  0.69550000  0.92070000  0.01630000  1.0 0.1424151164
C  C149  1  0.98370000  0.69550000  0.07930000  1.0 0.1424151164
C  C150  1  0.98370000  0.30450000  0.92070000  1.0 0.1424151164
C  C151  1  0.01630000  0.30450000  0.07930000  1.0 0.1424151164
C  C152  1  0.01630000  0.69550000  0.92070000  1.0 0.1424151164
C  C153  1  0.07930000  0.98370000  0.69550000  1.0 0.1424151164
C  C154  1  0.92070000  0.98370000  0.30450000  1.0 0.1424151164
C  C155  1  0.07930000  0.01630000  0.30450000  1.0 0.1424151164
C  C156  1  0.92070000  0.01630000  0.69550000  1.0 0.1424151164
C  C157  1  0.57930000  0.19550000  0.48370000  1.0 0.1424151164
C  C158  1  0.42070000  0.80450000  0.48370000  1.0 0.1424151164
C  C159  1  0.57930000  0.80450000  0.51630000  1.0 0.1424151164
C  C160  1  0.42070000  0.19550000  0.51630000  1.0 0.1424151164
C  C161  1  0.19550000  0.48370000  0.57930000  1.0 0.1424151164
C  C162  1  0.80450000  0.48370000  0.42070000  1.0 0.1424151164
C  C163  1  0.80450000  0.51630000  0.57930000  1.0 0.1424151164
C  C164  1  0.19550000  0.51630000  0.42070000  1.0 0.1424151164
C  C165  1  0.48370000  0.57930000  0.19550000  1.0 0.1424151164
C  C166  1  0.48370000  0.42070000  0.80450000  1.0 0.1424151164
C  C167  1  0.51630000  0.57930000  0.80450000  1.0 0.1424151164
C  C168  1  0.51630000  0.42070000  0.19550000  1.0 0.1424151164
C  C169  1  0.70300000  0.10680000  0.04040000  1.0 -0.1400949984
C  C170  1  0.29700000  0.89320000  0.04040000  1.0 -0.1400949984
C  C171  1  0.29700000  0.10680000  0.95960000  1.0 -0.1400949984
C  C172  1  0.70300000  0.89320000  0.95960000  1.0 -0.1400949984
C  C173  1  0.04040000  0.70300000  0.10680000  1.0 -0.1400949984
C  C174  1  0.04040000  0.29700000  0.89320000  1.0 -0.1400949984
C  C175  1  0.95960000  0.29700000  0.10680000  1.0 -0.1400949984
C  C176  1  0.95960000  0.70300000  0.89320000  1.0 -0.1400949984
C  C177  1  0.10680000  0.04040000  0.70300000  1.0 -0.1400949984
C  C178  1  0.89320000  0.04040000  0.29700000  1.0 -0.1400949984
C  C179  1  0.10680000  0.95960000  0.29700000  1.0 -0.1400949984
C  C180  1  0.89320000  0.95960000  0.70300000  1.0 -0.1400949984
C  C181  1  0.60680000  0.20300000  0.54040000  1.0 -0.1400949984
C  C182  1  0.39320000  0.79700000  0.54040000  1.0 -0.1400949984
C  C183  1  0.60680000  0.79700000  0.45960000  1.0 -0.1400949984
C  C184  1  0.39320000  0.20300000  0.45960000  1.0 -0.1400949984
C  C185  1  0.20300000  0.54040000  0.60680000  1.0 -0.1400949984
C  C186  1  0.79700000  0.54040000  0.39320000  1.0 -0.1400949984
C  C187  1  0.79700000  0.45960000  0.60680000  1.0 -0.1400949984
C  C188  1  0.20300000  0.45960000  0.39320000  1.0 -0.1400949984
C  C189  1  0.54040000  0.60680000  0.20300000  1.0 -0.1400949984
C  C190  1  0.54040000  0.39320000  0.79700000  1.0 -0.1400949984
C  C191  1  0.45960000  0.60680000  0.79700000  1.0 -0.1400949984
C  C192  1  0.45960000  0.39320000  0.20300000  1.0 -0.1400949984
N  N1  1  0.69260000  0.01320000  0.97615000  1.0 -0.0790353469
N  N2  1  0.30740000  0.98680000  0.97615000  1.0 -0.0790353469
N  N3  1  0.30740000  0.01320000  0.02385000  1.0 -0.0790353469
N  N4  1  0.69260000  0.98680000  0.02385000  1.0 -0.0790353469
N  N5  1  0.97615000  0.69260000  0.01320000  1.0 -0.0790353469
N  N6  1  0.97615000  0.30740000  0.98680000  1.0 -0.0790353469
N  N7  1  0.02385000  0.30740000  0.01320000  1.0 -0.0790353469
N  N8  1  0.02385000  0.69260000  0.98680000  1.0 -0.0790353469
N  N9  1  0.01320000  0.97615000  0.69260000  1.0 -0.0790353469
N  N10  1  0.98680000  0.97615000  0.30740000  1.0 -0.0790353469
N  N11  1  0.01320000  0.02385000  0.30740000  1.0 -0.0790353469
N  N12  1  0.98680000  0.02385000  0.69260000  1.0 -0.0790353469
N  N13  1  0.51320000  0.19260000  0.47615000  1.0 -0.0790353469
N  N14  1  0.48680000  0.80740000  0.47615000  1.0 -0.0790353469
N  N15  1  0.51320000  0.80740000  0.52385000  1.0 -0.0790353469
N  N16  1  0.48680000  0.19260000  0.52385000  1.0 -0.0790353469
N  N17  1  0.19260000  0.47615000  0.51320000  1.0 -0.0790353469
N  N18  1  0.80740000  0.47615000  0.48680000  1.0 -0.0790353469
N  N19  1  0.80740000  0.52385000  0.51320000  1.0 -0.0790353469
N  N20  1  0.19260000  0.52385000  0.48680000  1.0 -0.0790353469
N  N21  1  0.47615000  0.51320000  0.19260000  1.0 -0.0790353469
N  N22  1  0.47615000  0.48680000  0.80740000  1.0 -0.0790353469
N  N23  1  0.52385000  0.51320000  0.80740000  1.0 -0.0790353469
N  N24  1  0.52385000  0.48680000  0.19260000  1.0 -0.0790353469
N  N25  1  0.38240000  0.38240000  0.38240000  1.0 0.7125601469
N  N26  1  0.61760000  0.61760000  0.38240000  1.0 0.7125601469
N  N27  1  0.38240000  0.61760000  0.61760000  1.0 0.7125601469
N  N28  1  0.61760000  0.38240000  0.61760000  1.0 0.7125601469
N  N29  1  0.88240000  0.88240000  0.88240000  1.0 0.7125601469
N  N30  1  0.11760000  0.11760000  0.88240000  1.0 0.7125601469
N  N31  1  0.11760000  0.88240000  0.11760000  1.0 0.7125601469
N  N32  1  0.88240000  0.11760000  0.11760000  1.0 0.7125601469
O  O1  1  0.75954000  0.24046000  0.24046000  1.0 -0.8875903489
O  O2  1  0.24046000  0.75954000  0.24046000  1.0 -0.8875903489
O  O3  1  0.24046000  0.24046000  0.75954000  1.0 -0.8875903489
O  O4  1  0.75954000  0.75954000  0.75954000  1.0 -0.8875903489
O  O5  1  0.74046000  0.25954000  0.74046000  1.0 -0.8875903489
O  O6  1  0.25954000  0.74046000  0.74046000  1.0 -0.8875903489
O  O7  1  0.74046000  0.74046000  0.25954000  1.0 -0.8875903489
O  O8  1  0.25954000  0.25954000  0.25954000  1.0 -0.8875903489
O  O9  1  0.76197000  0.37074000  0.11422000  1.0 0.0177103639
O  O10  1  0.23803000  0.62926000  0.11422000  1.0 0.0177103639
O  O11  1  0.23803000  0.37074000  0.88578000  1.0 0.0177103639
O  O12  1  0.76197000  0.62926000  0.88578000  1.0 0.0177103639
O  O13  1  0.11422000  0.76197000  0.37074000  1.0 0.0177103639
O  O14  1  0.11422000  0.23803000  0.62926000  1.0 0.0177103639
O  O15  1  0.88578000  0.23803000  0.37074000  1.0 0.0177103639
O  O16  1  0.88578000  0.76197000  0.62926000  1.0 0.0177103639
O  O17  1  0.37074000  0.11422000  0.76197000  1.0 0.0177103639
O  O18  1  0.62926000  0.11422000  0.23803000  1.0 0.0177103639
O  O19  1  0.37074000  0.88578000  0.23803000  1.0 0.0177103639
O  O20  1  0.62926000  0.88578000  0.76197000  1.0 0.0177103639
O  O21  1  0.87074000  0.26197000  0.61422000  1.0 0.0177103639
O  O22  1  0.12926000  0.73803000  0.61422000  1.0 0.0177103639
O  O23  1  0.87074000  0.73803000  0.38578000  1.0 0.0177103639
O  O24  1  0.12926000  0.26197000  0.38578000  1.0 0.0177103639
O  O25  1  0.26197000  0.61422000  0.87074000  1.0 0.0177103639
O  O26  1  0.73803000  0.61422000  0.12926000  1.0 0.0177103639
O  O27  1  0.73803000  0.38578000  0.87074000  1.0 0.0177103639
O  O28  1  0.26197000  0.38578000  0.12926000  1.0 0.0177103639
O  O29  1  0.61422000  0.87074000  0.26197000  1.0 0.0177103639
O  O30  1  0.61422000  0.12926000  0.73803000  1.0 0.0177103639
O  O31  1  0.38578000  0.87074000  0.73803000  1.0 0.0177103639
O  O32  1  0.38578000  0.12926000  0.26197000  1.0 0.0177103639
O  O33  1  0.74561000  0.24954000  0.10698000  1.0 -0.5199357866
O  O34  1  0.25439000  0.75046000  0.10698000  1.0 -0.5199357866
O  O35  1  0.25439000  0.24954000  0.89302000  1.0 -0.5146153943
O  O36  1  0.74561000  0.75046000  0.89302000  1.0 -0.5199357866
O  O37  1  0.10698000  0.74561000  0.24954000  1.0 -0.5199357866
O  O38  1  0.10698000  0.25439000  0.75046000  1.0 -0.5146153943
O  O39  1  0.89302000  0.25439000  0.24954000  1.0 -0.5199357866
O  O40  1  0.89302000  0.74561000  0.75046000  1.0 -0.5199357866
O  O41  1  0.24954000  0.10698000  0.74561000  1.0 -0.5146153943
O  O42  1  0.75046000  0.10698000  0.25439000  1.0 -0.5199357866
O  O43  1  0.24954000  0.89302000  0.25439000  1.0 -0.5199357866
O  O44  1  0.75046000  0.89302000  0.74561000  1.0 -0.5199357866
O  O45  1  0.74954000  0.24561000  0.60698000  1.0 -0.5146153943
O  O46  1  0.25046000  0.75439000  0.60698000  1.0 -0.5199357866
O  O47  1  0.74954000  0.75439000  0.39302000  1.0 -0.5199357866
O  O48  1  0.25046000  0.24561000  0.39302000  1.0 -0.5146153943
O  O49  1  0.24561000  0.60698000  0.74954000  1.0 -0.5146153943
O  O50  1  0.75439000  0.60698000  0.25046000  1.0 -0.5199357866
O  O51  1  0.75439000  0.39302000  0.74954000  1.0 -0.5146153943
O  O52  1  0.24561000  0.39302000  0.25046000  1.0 -0.5199357866
O  O53  1  0.60698000  0.74954000  0.24561000  1.0 -0.5199357866
O  O54  1  0.60698000  0.25046000  0.75439000  1.0 -0.5146153943
O  O55  1  0.39302000  0.74954000  0.75439000  1.0 -0.5146153943
O  O56  1  0.39302000  0.25046000  0.24561000  1.0 -0.5146153943
O  O57  1  0.70345000  0.16601000  0.14923000  1.0 -0.5199357866
O  O58  1  0.29655000  0.83399000  0.14923000  1.0 -0.5199357866
O  O59  1  0.29655000  0.16601000  0.85077000  1.0 -0.5199357866
O  O60  1  0.70345000  0.83399000  0.85077000  1.0 -0.5199357866
O  O61  1  0.14923000  0.70345000  0.16601000  1.0 -0.5199357866
O  O62  1  0.14923000  0.29655000  0.83399000  1.0 -0.5199357866
O  O63  1  0.85077000  0.29655000  0.16601000  1.0 -0.5199357866
O  O64  1  0.85077000  0.70345000  0.83399000  1.0 -0.5199357866
O  O65  1  0.16601000  0.14923000  0.70345000  1.0 -0.5199357866
O  O66  1  0.83399000  0.14923000  0.29655000  1.0 -0.5199357866
O  O67  1  0.16601000  0.85077000  0.29655000  1.0 -0.5199357866
O  O68  1  0.83399000  0.85077000  0.70345000  1.0 -0.5199357866
O  O69  1  0.66601000  0.20345000  0.64923000  1.0 -0.5199357866
O  O70  1  0.33399000  0.79655000  0.64923000  1.0 -0.5199357866
O  O71  1  0.66601000  0.79655000  0.35077000  1.0 -0.5199357866
O  O72  1  0.33399000  0.20345000  0.35077000  1.0 -0.5199357866
O  O73  1  0.20345000  0.64923000  0.66601000  1.0 -0.5199357866
O  O74  1  0.79655000  0.64923000  0.33399000  1.0 -0.5199357866
O  O75  1  0.79655000  0.35077000  0.66601000  1.0 -0.5199357866
O  O76  1  0.20345000  0.35077000  0.33399000  1.0 -0.5199357866
O  O77  1  0.64923000  0.66601000  0.20345000  1.0 -0.5199357866
O  O78  1  0.64923000  0.33399000  0.79655000  1.0 -0.5199357866
O  O79  1  0.35077000  0.66601000  0.79655000  1.0 -0.5199357866
O  O80  1  0.35077000  0.33399000  0.20345000  1.0 -0.5199357866
O  O81  1  0.72639000  0.26305000  0.87405000  1.0 -0.5256910673
O  O82  1  0.27361000  0.73695000  0.87405000  1.0 -0.5256910673
O  O83  1  0.27361000  0.26305000  0.12595000  1.0 -0.5256910673
O  O84  1  0.72639000  0.73695000  0.12595000  1.0 -0.5256910673
O  O85  1  0.87405000  0.72639000  0.26305000  1.0 -0.5256910673
O  O86  1  0.87405000  0.27361000  0.73695000  1.0 -0.5256910673
O  O87  1  0.12595000  0.27361000  0.26305000  1.0 -0.5256910673
O  O88  1  0.12595000  0.72639000  0.73695000  1.0 -0.5256910673
O  O89  1  0.26305000  0.87405000  0.72639000  1.0 -0.5256910673
O  O90  1  0.73695000  0.87405000  0.27361000  1.0 -0.5256910673
O  O91  1  0.26305000  0.12595000  0.27361000  1.0 -0.5256910673
O  O92  1  0.73695000  0.12595000  0.72639000  1.0 -0.5256910673
O  O93  1  0.76305000  0.22639000  0.37405000  1.0 -0.5256910673
O  O94  1  0.23695000  0.77361000  0.37405000  1.0 -0.5256910673
O  O95  1  0.76305000  0.77361000  0.62595000  1.0 -0.5256910673
O  O96  1  0.23695000  0.22639000  0.62595000  1.0 -0.5256910673
O  O97  1  0.22639000  0.37405000  0.76305000  1.0 -0.5256910673
O  O98  1  0.77361000  0.37405000  0.23695000  1.0 -0.5256910673
O  O99  1  0.77361000  0.62595000  0.76305000  1.0 -0.5256910673
O  O100  1  0.22639000  0.62595000  0.23695000  1.0 -0.5256910673
O  O101  1  0.37405000  0.76305000  0.22639000  1.0 -0.5256910673
O  O102  1  0.37405000  0.23695000  0.77361000  1.0 -0.5256910673
O  O103  1  0.62595000  0.76305000  0.77361000  1.0 -0.5256910673
O  O104  1  0.62595000  0.23695000  0.22639000  1.0 -0.5256910673
O  O105  1  0.68573000  0.18086000  0.82916000  1.0 -0.5199357866
O  O106  1  0.31427000  0.81914000  0.82916000  1.0 -0.5199357866
O  O107  1  0.31427000  0.18086000  0.17084000  1.0 -0.5199357866
O  O108  1  0.68573000  0.81914000  0.17084000  1.0 -0.5199357866
O  O109  1  0.82916000  0.68573000  0.18086000  1.0 -0.5199357866
O  O110  1  0.82916000  0.31427000  0.81914000  1.0 -0.5199357866
O  O111  1  0.17084000  0.31427000  0.18086000  1.0 -0.5199357866
O  O112  1  0.17084000  0.68573000  0.81914000  1.0 -0.5199357866
O  O113  1  0.18086000  0.82916000  0.68573000  1.0 -0.5199357866
O  O114  1  0.81914000  0.82916000  0.31427000  1.0 -0.5199357866
O  O115  1  0.18086000  0.17084000  0.31427000  1.0 -0.5199357866
O  O116  1  0.81914000  0.17084000  0.68573000  1.0 -0.5199357866
O  O117  1  0.68086000  0.18573000  0.32916000  1.0 -0.5199357866
O  O118  1  0.31914000  0.81427000  0.32916000  1.0 -0.5199357866
O  O119  1  0.68086000  0.81427000  0.67084000  1.0 -0.5199357866
O  O120  1  0.31914000  0.18573000  0.67084000  1.0 -0.5199357866
O  O121  1  0.18573000  0.32916000  0.68086000  1.0 -0.5199357866
O  O122  1  0.81427000  0.32916000  0.31914000  1.0 -0.5199357866
O  O123  1  0.81427000  0.67084000  0.68086000  1.0 -0.5199357866
O  O124  1  0.18573000  0.67084000  0.31914000  1.0 -0.5199357866
O  O125  1  0.32916000  0.68086000  0.18573000  1.0 -0.5199357866
O  O126  1  0.32916000  0.31914000  0.81427000  1.0 -0.5199357866
O  O127  1  0.67084000  0.68086000  0.81427000  1.0 -0.5199357866
O  O128  1  0.67084000  0.31914000  0.18573000  1.0 -0.5199357866
O  O129  1  0.43350000  0.34490000  0.37220000  1.0 -0.4364222165
O  O130  1  0.34490000  0.37220000  0.43350000  1.0 -0.4364222165
O  O131  1  0.37220000  0.43350000  0.34490000  1.0 -0.4364222165
O  O132  1  0.56650000  0.65510000  0.37220000  1.0 -0.4364222165
O  O133  1  0.65510000  0.62780000  0.43350000  1.0 -0.4364222165
O  O134  1  0.62780000  0.56650000  0.34490000  1.0 -0.4364222165
O  O135  1  0.43350000  0.65510000  0.62780000  1.0 -0.4364222165
O  O136  1  0.34490000  0.62780000  0.56650000  1.0 -0.4364222165
O  O137  1  0.37220000  0.56650000  0.65510000  1.0 -0.4364222165
O  O138  1  0.56650000  0.34490000  0.62780000  1.0 -0.4364222165
O  O139  1  0.65510000  0.37220000  0.56650000  1.0 -0.4364222165
O  O140  1  0.62780000  0.43350000  0.65510000  1.0 -0.4364222165
O  O141  1  0.84490000  0.93350000  0.87220000  1.0 -0.4364222165
O  O142  1  0.87220000  0.84490000  0.93350000  1.0 -0.4364222165
O  O143  1  0.93350000  0.87220000  0.84490000  1.0 -0.4364222165
O  O144  1  0.15510000  0.06650000  0.87220000  1.0 -0.4364222165
O  O145  1  0.12780000  0.15510000  0.93350000  1.0 -0.4364222165
O  O146  1  0.06650000  0.12780000  0.84490000  1.0 -0.4364222165
O  O147  1  0.15510000  0.93350000  0.12780000  1.0 -0.4364222165
O  O148  1  0.12780000  0.84490000  0.06650000  1.0 -0.4364222165
O  O149  1  0.06650000  0.87220000  0.15510000  1.0 -0.4364222165
O  O150  1  0.84490000  0.06650000  0.12780000  1.0 -0.4364222165
O  O151  1  0.87220000  0.15510000  0.06650000  1.0 -0.4364222165
O  O152  1  0.93350000  0.12780000  0.15510000  1.0 -0.4364222165
