# DDEC6 charges by PACMAN v1.1 (https://github.com/mtap-research/PACMAN-charge/)
data_IZERAI_ASR_pacman
_symmetry_space_group_name_H-M   'P 1'
_cell_length_a   26.25000000
_cell_length_b   26.25000000
_cell_length_c   11.24360000
_cell_angle_alpha   90.00000000
_cell_angle_beta   90.00000000
_cell_angle_gamma   120.00000000
_symmetry_Int_Tables_number   1
_chemical_formula_structural   Ni3H48C69O13
_chemical_formula_sum   'Ni6 H96 C138 O26'
_cell_volume   6709.56916317
_cell_formula_units_Z   2
loop_
 _symmetry_equiv_pos_site_id
 _symmetry_equiv_pos_as_xyz
  1  'x, y, z'
loop_
 _atom_site_type_symbol
 _atom_site_label
 _atom_site_symmetry_multiplicity
 _atom_site_fract_x
 _atom_site_fract_y
 _atom_site_fract_z
 _atom_site_occupancy
 _atom_site_charge
Ni  Ni1  1  0.28992000  0.57984000  0.00000000  1.0 0.9951785922
Ni  Ni2  1  0.71008000  0.28992000  0.00000000  1.0 0.9945340275
Ni  Ni3  1  0.42016000  0.71008000  0.00000000  1.0 0.9951785922
Ni  Ni4  1  0.71008000  0.42016000  0.00000000  1.0 0.9951785922
Ni  Ni5  1  0.28992000  0.71008000  0.00000000  1.0 0.9951785922
Ni  Ni6  1  0.57984000  0.28992000  0.00000000  1.0 0.9945340275
H  H1  1  0.38980000  0.49570000  0.15730000  1.0 0.1027871663
H  H2  1  0.89410000  0.38980000  0.15730000  1.0 0.1027871663
H  H3  1  0.50430000  0.89410000  0.15730000  1.0 0.1027871663
H  H4  1  0.61020000  0.50430000  0.15730000  1.0 0.1027871663
H  H5  1  0.10590000  0.61020000  0.15730000  1.0 0.1027871663
H  H6  1  0.49570000  0.10590000  0.15730000  1.0 0.1027871663
H  H7  1  0.50430000  0.61020000  0.84270000  1.0 0.1027871663
H  H8  1  0.89410000  0.50430000  0.84270000  1.0 0.1027871663
H  H9  1  0.38980000  0.89410000  0.84270000  1.0 0.1027871663
H  H10  1  0.49570000  0.38980000  0.84270000  1.0 0.1027871663
H  H11  1  0.10590000  0.49570000  0.84270000  1.0 0.1027871663
H  H12  1  0.61020000  0.10590000  0.84270000  1.0 0.1027871663
H  H13  1  0.61020000  0.50430000  0.84270000  1.0 0.1027871663
H  H14  1  0.10590000  0.61020000  0.84270000  1.0 0.1027871663
H  H15  1  0.49570000  0.10590000  0.84270000  1.0 0.1027871663
H  H16  1  0.38980000  0.49570000  0.84270000  1.0 0.1027871663
H  H17  1  0.89410000  0.38980000  0.84270000  1.0 0.1027871663
H  H18  1  0.50430000  0.89410000  0.84270000  1.0 0.1027871663
H  H19  1  0.49570000  0.38980000  0.15730000  1.0 0.1027871663
H  H20  1  0.10590000  0.49570000  0.15730000  1.0 0.1027871663
H  H21  1  0.61020000  0.10590000  0.15730000  1.0 0.1027871663
H  H22  1  0.50430000  0.61020000  0.15730000  1.0 0.1027871663
H  H23  1  0.89410000  0.50430000  0.15730000  1.0 0.1027871663
H  H24  1  0.38980000  0.89410000  0.15730000  1.0 0.1027871663
H  H25  1  0.38560000  0.48980000  0.44230000  1.0 0.0749249779
H  H26  1  0.89580000  0.38560000  0.44230000  1.0 0.0749249779
H  H27  1  0.51020000  0.89580000  0.44230000  1.0 0.0749249779
H  H28  1  0.61440000  0.51020000  0.44230000  1.0 0.0749249779
H  H29  1  0.10420000  0.61440000  0.44230000  1.0 0.0749249779
H  H30  1  0.48980000  0.10420000  0.44230000  1.0 0.0749249779
H  H31  1  0.51020000  0.61440000  0.55770000  1.0 0.0749249779
H  H32  1  0.89580000  0.51020000  0.55770000  1.0 0.0749249779
H  H33  1  0.38560000  0.89580000  0.55770000  1.0 0.0749249779
H  H34  1  0.48980000  0.38560000  0.55770000  1.0 0.0749249779
H  H35  1  0.10420000  0.48980000  0.55770000  1.0 0.0749249779
H  H36  1  0.61440000  0.10420000  0.55770000  1.0 0.0749249779
H  H37  1  0.61440000  0.51020000  0.55770000  1.0 0.0749249779
H  H38  1  0.10420000  0.61440000  0.55770000  1.0 0.0749249779
H  H39  1  0.48980000  0.10420000  0.55770000  1.0 0.0749249779
H  H40  1  0.38560000  0.48980000  0.55770000  1.0 0.0749249779
H  H41  1  0.89580000  0.38560000  0.55770000  1.0 0.0749249779
H  H42  1  0.51020000  0.89580000  0.55770000  1.0 0.0749249779
H  H43  1  0.48980000  0.38560000  0.44230000  1.0 0.0749249779
H  H44  1  0.10420000  0.48980000  0.44230000  1.0 0.0749249779
H  H45  1  0.61440000  0.10420000  0.44230000  1.0 0.0749249779
H  H46  1  0.51020000  0.61440000  0.44230000  1.0 0.0749249779
H  H47  1  0.89580000  0.51020000  0.44230000  1.0 0.0749249779
H  H48  1  0.38560000  0.89580000  0.44230000  1.0 0.0749249779
H  H49  1  0.35110000  0.52160000  0.35230000  1.0 0.1027871663
H  H50  1  0.82950000  0.35110000  0.35230000  1.0 0.1027871663
H  H51  1  0.47840000  0.82950000  0.35230000  1.0 0.1027871663
H  H52  1  0.64890000  0.47840000  0.35230000  1.0 0.1027871663
H  H53  1  0.17050000  0.64890000  0.35230000  1.0 0.1027871663
H  H54  1  0.52160000  0.17050000  0.35230000  1.0 0.1027871663
H  H55  1  0.47840000  0.64890000  0.64770000  1.0 0.1027871663
H  H56  1  0.82950000  0.47840000  0.64770000  1.0 0.1027871663
H  H57  1  0.35110000  0.82950000  0.64770000  1.0 0.1027871663
H  H58  1  0.52160000  0.35110000  0.64770000  1.0 0.1027871663
H  H59  1  0.17050000  0.52160000  0.64770000  1.0 0.1027871663
H  H60  1  0.64890000  0.17050000  0.64770000  1.0 0.1027871663
H  H61  1  0.64890000  0.47840000  0.64770000  1.0 0.1027871663
H  H62  1  0.17050000  0.64890000  0.64770000  1.0 0.1027871663
H  H63  1  0.52160000  0.17050000  0.64770000  1.0 0.1027871663
H  H64  1  0.35110000  0.52160000  0.64770000  1.0 0.1027871663
H  H65  1  0.82950000  0.35110000  0.64770000  1.0 0.1027871663
H  H66  1  0.47840000  0.82950000  0.64770000  1.0 0.1027871663
H  H67  1  0.52160000  0.35110000  0.35230000  1.0 0.1027871663
H  H68  1  0.17050000  0.52160000  0.35230000  1.0 0.1027871663
H  H69  1  0.64890000  0.17050000  0.35230000  1.0 0.1027871663
H  H70  1  0.47840000  0.64890000  0.35230000  1.0 0.1027871663
H  H71  1  0.82950000  0.47840000  0.35230000  1.0 0.1027871663
H  H72  1  0.35110000  0.82950000  0.35230000  1.0 0.1027871663
H  H73  1  0.42450000  0.46500000  0.23700000  1.0 0.0896079858
H  H74  1  0.95950000  0.42450000  0.23700000  1.0 0.0896079858
H  H75  1  0.53500000  0.95950000  0.23700000  1.0 0.0896079858
H  H76  1  0.57550000  0.53500000  0.23700000  1.0 0.0896079858
H  H77  1  0.04050000  0.57550000  0.23700000  1.0 0.0896079858
H  H78  1  0.46500000  0.04050000  0.23700000  1.0 0.0896079858
H  H79  1  0.53500000  0.57550000  0.76300000  1.0 0.0896079858
H  H80  1  0.95950000  0.53500000  0.76300000  1.0 0.0896079858
H  H81  1  0.42450000  0.95950000  0.76300000  1.0 0.0896079858
H  H82  1  0.46500000  0.42450000  0.76300000  1.0 0.0896079858
H  H83  1  0.04050000  0.46500000  0.76300000  1.0 0.0896079858
H  H84  1  0.57550000  0.04050000  0.76300000  1.0 0.0896079858
H  H85  1  0.57550000  0.53500000  0.76300000  1.0 0.0896079858
H  H86  1  0.04050000  0.57550000  0.76300000  1.0 0.0896079858
H  H87  1  0.46500000  0.04050000  0.76300000  1.0 0.0896079858
H  H88  1  0.42450000  0.46500000  0.76300000  1.0 0.0896079858
H  H89  1  0.95950000  0.42450000  0.76300000  1.0 0.0896079858
H  H90  1  0.53500000  0.95950000  0.76300000  1.0 0.0896079858
H  H91  1  0.46500000  0.42450000  0.23700000  1.0 0.0896079858
H  H92  1  0.04050000  0.46500000  0.23700000  1.0 0.0896079858
H  H93  1  0.57550000  0.04050000  0.23700000  1.0 0.0896079858
H  H94  1  0.53500000  0.57550000  0.23700000  1.0 0.0896079858
H  H95  1  0.95950000  0.53500000  0.23700000  1.0 0.0896079858
H  H96  1  0.42450000  0.95950000  0.23700000  1.0 0.0896079858
C  C1  1  0.39380000  0.60620000  0.15620000  1.0 0.5553329814
C  C2  1  0.78760000  0.39380000  0.15620000  1.0 0.5553329814
C  C3  1  0.39380000  0.78760000  0.15620000  1.0 0.5553329814
C  C4  1  0.60620000  0.39380000  0.15620000  1.0 0.5553329814
C  C5  1  0.21240000  0.60620000  0.15620000  1.0 0.5547464013
C  C6  1  0.60620000  0.21240000  0.15620000  1.0 0.5553329814
C  C7  1  0.39380000  0.60620000  0.84380000  1.0 0.5553329814
C  C8  1  0.78760000  0.39380000  0.84380000  1.0 0.5553329814
C  C9  1  0.39380000  0.78760000  0.84380000  1.0 0.5553329814
C  C10  1  0.60620000  0.39380000  0.84380000  1.0 0.5553329814
C  C11  1  0.21240000  0.60620000  0.84380000  1.0 0.5553329814
C  C12  1  0.60620000  0.21240000  0.84380000  1.0 0.5553329814
C  C13  1  0.42126000  0.57874000  0.23230000  1.0 -0.0265831794
C  C14  1  0.84252000  0.42126000  0.23230000  1.0 -0.0265831794
C  C15  1  0.42126000  0.84252000  0.23230000  1.0 -0.0265831794
C  C16  1  0.57874000  0.42126000  0.23230000  1.0 -0.0265831794
C  C17  1  0.15748000  0.57874000  0.23230000  1.0 -0.0265831794
C  C18  1  0.57874000  0.15748000  0.23230000  1.0 -0.0265831794
C  C19  1  0.42126000  0.57874000  0.76770000  1.0 -0.0265831794
C  C20  1  0.84252000  0.42126000  0.76770000  1.0 -0.0265831794
C  C21  1  0.42126000  0.84252000  0.76770000  1.0 -0.0265831794
C  C22  1  0.57874000  0.42126000  0.76770000  1.0 -0.0265831794
C  C23  1  0.15748000  0.57874000  0.76770000  1.0 -0.0265831794
C  C24  1  0.57874000  0.15748000  0.76770000  1.0 -0.0265831794
C  C25  1  0.47226000  0.52774000  0.36860000  1.0 0.0259483152
C  C26  1  0.94452000  0.47226000  0.36860000  1.0 0.0259483152
C  C27  1  0.47226000  0.94452000  0.36860000  1.0 0.0259483152
C  C28  1  0.52774000  0.47226000  0.36860000  1.0 0.0259483152
C  C29  1  0.05548000  0.52774000  0.36860000  1.0 0.0259483152
C  C30  1  0.52774000  0.05548000  0.36860000  1.0 0.0259483152
C  C31  1  0.47226000  0.52774000  0.63140000  1.0 0.0259483152
C  C32  1  0.94452000  0.47226000  0.63140000  1.0 0.0259483152
C  C33  1  0.47226000  0.94452000  0.63140000  1.0 0.0259483152
C  C34  1  0.52774000  0.47226000  0.63140000  1.0 0.0259483152
C  C35  1  0.05548000  0.52774000  0.63140000  1.0 0.0259483152
C  C36  1  0.52774000  0.05548000  0.63140000  1.0 0.0259483152
C  C37  1  0.50000000  0.50000000  0.44050000  1.0 -0.1717935532
C  C38  1  0.00000000  0.50000000  0.44050000  1.0 -0.1753275425
C  C39  1  0.50000000  0.00000000  0.44050000  1.0 -0.1717935532
C  C40  1  0.50000000  0.50000000  0.55950000  1.0 -0.1717935532
C  C41  1  0.00000000  0.50000000  0.55950000  1.0 -0.1753275425
C  C42  1  0.50000000  0.00000000  0.55950000  1.0 -0.1717935532
C  C43  1  0.40350000  0.52160000  0.22470000  1.0 -0.0545861574
C  C44  1  0.88190000  0.40350000  0.22470000  1.0 -0.0545861574
C  C45  1  0.47840000  0.88190000  0.22470000  1.0 -0.0545861574
C  C46  1  0.59650000  0.47840000  0.22470000  1.0 -0.0545861574
C  C47  1  0.11810000  0.59650000  0.22470000  1.0 -0.0545861574
C  C48  1  0.52160000  0.11810000  0.22470000  1.0 -0.0545861574
C  C49  1  0.47840000  0.59650000  0.77530000  1.0 -0.0545861574
C  C50  1  0.88190000  0.47840000  0.77530000  1.0 -0.0545861574
C  C51  1  0.40350000  0.88190000  0.77530000  1.0 -0.0545861574
C  C52  1  0.52160000  0.40350000  0.77530000  1.0 -0.0545861574
C  C53  1  0.11810000  0.52160000  0.77530000  1.0 -0.0545861574
C  C54  1  0.59650000  0.11810000  0.77530000  1.0 -0.0545861574
C  C55  1  0.59650000  0.47840000  0.77530000  1.0 -0.0545861574
C  C56  1  0.11810000  0.59650000  0.77530000  1.0 -0.0545861574
C  C57  1  0.52160000  0.11810000  0.77530000  1.0 -0.0545861574
C  C58  1  0.40350000  0.52160000  0.77530000  1.0 -0.0545861574
C  C59  1  0.88190000  0.40350000  0.77530000  1.0 -0.0545861574
C  C60  1  0.47840000  0.88190000  0.77530000  1.0 -0.0545861574
C  C61  1  0.52160000  0.40350000  0.22470000  1.0 -0.0545861574
C  C62  1  0.11810000  0.52160000  0.22470000  1.0 -0.0545861574
C  C63  1  0.59650000  0.11810000  0.22470000  1.0 -0.0545861574
C  C64  1  0.47840000  0.59650000  0.22470000  1.0 -0.0545861574
C  C65  1  0.88190000  0.47840000  0.22470000  1.0 -0.0545861574
C  C66  1  0.40350000  0.88190000  0.22470000  1.0 -0.0545861574
C  C67  1  0.41280000  0.50670000  0.37740000  1.0 -0.0936080589
C  C68  1  0.90610000  0.41280000  0.37740000  1.0 -0.0936080589
C  C69  1  0.49330000  0.90610000  0.37740000  1.0 -0.0936080589
C  C70  1  0.58720000  0.49330000  0.37740000  1.0 -0.0936080589
C  C71  1  0.09390000  0.58720000  0.37740000  1.0 -0.0936080589
C  C72  1  0.50670000  0.09390000  0.37740000  1.0 -0.0936080589
C  C73  1  0.49330000  0.58720000  0.62260000  1.0 -0.0936080589
C  C74  1  0.90610000  0.49330000  0.62260000  1.0 -0.0936080589
C  C75  1  0.41280000  0.90610000  0.62260000  1.0 -0.0936080589
C  C76  1  0.50670000  0.41280000  0.62260000  1.0 -0.0936080589
C  C77  1  0.09390000  0.50670000  0.62260000  1.0 -0.0936080589
C  C78  1  0.58720000  0.09390000  0.62260000  1.0 -0.0936080589
C  C79  1  0.58720000  0.49330000  0.62260000  1.0 -0.0936080589
C  C80  1  0.09390000  0.58720000  0.62260000  1.0 -0.0936080589
C  C81  1  0.50670000  0.09390000  0.62260000  1.0 -0.0936080589
C  C82  1  0.41280000  0.50670000  0.62260000  1.0 -0.0936080589
C  C83  1  0.90610000  0.41280000  0.62260000  1.0 -0.0936080589
C  C84  1  0.49330000  0.90610000  0.62260000  1.0 -0.0936080589
C  C85  1  0.50670000  0.41280000  0.37740000  1.0 -0.0936080589
C  C86  1  0.09390000  0.50670000  0.37740000  1.0 -0.0936080589
C  C87  1  0.58720000  0.09390000  0.37740000  1.0 -0.0936080589
C  C88  1  0.49330000  0.58720000  0.37740000  1.0 -0.0936080589
C  C89  1  0.90610000  0.49330000  0.37740000  1.0 -0.0936080589
C  C90  1  0.41280000  0.90610000  0.37740000  1.0 -0.0936080589
C  C91  1  0.38600000  0.53170000  0.30730000  1.0 -0.0677547276
C  C92  1  0.85430000  0.38600000  0.30730000  1.0 -0.0677547276
C  C93  1  0.46830000  0.85430000  0.30730000  1.0 -0.0677547276
C  C94  1  0.61400000  0.46830000  0.30730000  1.0 -0.0677547276
C  C95  1  0.14570000  0.61400000  0.30730000  1.0 -0.0677547276
C  C96  1  0.53170000  0.14570000  0.30730000  1.0 -0.0677547276
C  C97  1  0.46830000  0.61400000  0.69270000  1.0 -0.0677547276
C  C98  1  0.85430000  0.46830000  0.69270000  1.0 -0.0677547276
C  C99  1  0.38600000  0.85430000  0.69270000  1.0 -0.0677547276
C  C100  1  0.53170000  0.38600000  0.69270000  1.0 -0.0677547276
C  C101  1  0.14570000  0.53170000  0.69270000  1.0 -0.0677547276
C  C102  1  0.61400000  0.14570000  0.69270000  1.0 -0.0677547276
C  C103  1  0.61400000  0.46830000  0.69270000  1.0 -0.0677547276
C  C104  1  0.14570000  0.61400000  0.69270000  1.0 -0.0677547276
C  C105  1  0.53170000  0.14570000  0.69270000  1.0 -0.0677547276
C  C106  1  0.38600000  0.53170000  0.69270000  1.0 -0.0677547276
C  C107  1  0.85430000  0.38600000  0.69270000  1.0 -0.0677547276
C  C108  1  0.46830000  0.85430000  0.69270000  1.0 -0.0677547276
C  C109  1  0.53170000  0.38600000  0.30730000  1.0 -0.0677547276
C  C110  1  0.14570000  0.53170000  0.30730000  1.0 -0.0677547276
C  C111  1  0.61400000  0.14570000  0.30730000  1.0 -0.0677547276
C  C112  1  0.46830000  0.61400000  0.30730000  1.0 -0.0677547276
C  C113  1  0.85430000  0.46830000  0.30730000  1.0 -0.0677547276
C  C114  1  0.38600000  0.85430000  0.30730000  1.0 -0.0677547276
C  C115  1  0.42990000  0.49650000  0.28860000  1.0 -0.0677547276
C  C116  1  0.93340000  0.42990000  0.28860000  1.0 -0.0677547276
C  C117  1  0.50350000  0.93340000  0.28860000  1.0 -0.0677547276
C  C118  1  0.57010000  0.50350000  0.28860000  1.0 -0.0677547276
C  C119  1  0.06660000  0.57010000  0.28860000  1.0 -0.0677547276
C  C120  1  0.49650000  0.06660000  0.28860000  1.0 -0.0677547276
C  C121  1  0.50350000  0.57010000  0.71140000  1.0 -0.0677547276
C  C122  1  0.93340000  0.50350000  0.71140000  1.0 -0.0677547276
C  C123  1  0.42990000  0.93340000  0.71140000  1.0 -0.0677547276
C  C124  1  0.49650000  0.42990000  0.71140000  1.0 -0.0677547276
C  C125  1  0.06660000  0.49650000  0.71140000  1.0 -0.0677547276
C  C126  1  0.57010000  0.06660000  0.71140000  1.0 -0.0677547276
C  C127  1  0.57010000  0.50350000  0.71140000  1.0 -0.0677547276
C  C128  1  0.06660000  0.57010000  0.71140000  1.0 -0.0677547276
C  C129  1  0.49650000  0.06660000  0.71140000  1.0 -0.0677547276
C  C130  1  0.42990000  0.49650000  0.71140000  1.0 -0.0677547276
C  C131  1  0.93340000  0.42990000  0.71140000  1.0 -0.0677547276
C  C132  1  0.50350000  0.93340000  0.71140000  1.0 -0.0677547276
C  C133  1  0.49650000  0.42990000  0.28860000  1.0 -0.0677547276
C  C134  1  0.06660000  0.49650000  0.28860000  1.0 -0.0677547276
C  C135  1  0.57010000  0.06660000  0.28860000  1.0 -0.0677547276
C  C136  1  0.50350000  0.57010000  0.28860000  1.0 -0.0677547276
C  C137  1  0.93340000  0.50350000  0.28860000  1.0 -0.0677547276
C  C138  1  0.42990000  0.93340000  0.28860000  1.0 -0.0677547276
O  O1  1  0.33333333  0.66666667  0.00000000  1.0 -0.8386490524
O  O2  1  0.66666667  0.33333333  0.00000000  1.0 -0.8386490524
O  O3  1  0.34155000  0.57370000  0.12870000  1.0 -0.4993388683
O  O4  1  0.76785000  0.34155000  0.12870000  1.0 -0.4993388683
O  O5  1  0.42630000  0.76785000  0.12870000  1.0 -0.4993388683
O  O6  1  0.65845000  0.42630000  0.12870000  1.0 -0.4993388683
O  O7  1  0.23215000  0.65845000  0.12870000  1.0 -0.4993388683
O  O8  1  0.57370000  0.23215000  0.12870000  1.0 -0.4993388683
O  O9  1  0.42630000  0.65845000  0.87130000  1.0 -0.4993388683
O  O10  1  0.76785000  0.42630000  0.87130000  1.0 -0.4993388683
O  O11  1  0.34155000  0.76785000  0.87130000  1.0 -0.4993388683
O  O12  1  0.57370000  0.34155000  0.87130000  1.0 -0.4993388683
O  O13  1  0.23215000  0.57370000  0.87130000  1.0 -0.4993388683
O  O14  1  0.65845000  0.23215000  0.87130000  1.0 -0.4993388683
O  O15  1  0.65845000  0.42630000  0.87130000  1.0 -0.4993388683
O  O16  1  0.23215000  0.65845000  0.87130000  1.0 -0.4993388683
O  O17  1  0.57370000  0.23215000  0.87130000  1.0 -0.4993388683
O  O18  1  0.34155000  0.57370000  0.87130000  1.0 -0.4993388683
O  O19  1  0.76785000  0.34155000  0.87130000  1.0 -0.4993388683
O  O20  1  0.42630000  0.76785000  0.87130000  1.0 -0.4993388683
O  O21  1  0.57370000  0.34155000  0.12870000  1.0 -0.4993388683
O  O22  1  0.23215000  0.57370000  0.12870000  1.0 -0.4993388683
O  O23  1  0.65845000  0.23215000  0.12870000  1.0 -0.4993388683
O  O24  1  0.42630000  0.65845000  0.12870000  1.0 -0.4993388683
O  O25  1  0.76785000  0.42630000  0.12870000  1.0 -0.4993388683
O  O26  1  0.34155000  0.76785000  0.12870000  1.0 -0.4993388683
