# DDEC6 charges by PACMAN v1.1 (https://github.com/mtap-research/PACMAN-charge/)
data_IZETUF_ASR_pacman
_symmetry_space_group_name_H-M   'P 1'
_cell_length_a   31.42410000
_cell_length_b   31.42410000
_cell_length_c   31.42410000
_cell_angle_alpha   92.02350000
_cell_angle_beta   92.02350000
_cell_angle_gamma   158.33800000
_symmetry_Int_Tables_number   1
_chemical_formula_structural   Li4Co2H9(C3O2)9
_chemical_formula_sum   'Li32 Co16 H72 C216 O144'
_cell_volume   11250.26752683
_cell_formula_units_Z   8
loop_
 _symmetry_equiv_pos_site_id
 _symmetry_equiv_pos_as_xyz
  1  'x, y, z'
loop_
 _atom_site_type_symbol
 _atom_site_label
 _atom_site_symmetry_multiplicity
 _atom_site_fract_x
 _atom_site_fract_y
 _atom_site_fract_z
 _atom_site_occupancy
 _atom_site_charge
Li  Li1  1  0.99059000  0.32599000  0.08658000  1.0 0.81197219
Li  Li2  1  0.10270000  0.40010000  0.77640000  1.0 0.8194054182
Li  Li3  1  0.62030000  0.97040000  0.89270000  1.0 0.8194054182
Li  Li4  1  0.37760000  0.55460000  0.75980000  1.0 0.81197219
Li  Li5  1  0.23941000  0.90401000  0.91342000  1.0 0.81197219
Li  Li6  1  0.62370000  0.32630000  0.22360000  1.0 0.8194054182
Li  Li7  1  0.07770000  0.72760000  0.10730000  1.0 0.8194054182
Li  Li8  1  0.79480000  0.61780000  0.24020000  1.0 0.81197219
Li  Li9  1  0.15401000  0.74059000  0.16460000  1.0 0.81197219
Li  Li10  1  0.57630000  0.85270000  0.20260000  1.0 0.8194054182
Li  Li11  1  0.97760000  0.37030000  0.14990000  1.0 0.8194054182
Li  Li12  1  0.86780000  0.12760000  0.32300000  1.0 0.81197219
Li  Li13  1  0.57599000  0.98941000  0.83540000  1.0 0.81197219
Li  Li14  1  0.65010000  0.37370000  0.79740000  1.0 0.8194054182
Li  Li15  1  0.22040000  0.82770000  0.85010000  1.0 0.8194054182
Li  Li16  1  0.80460000  0.54480000  0.67700000  1.0 0.81197219
Li  Li17  1  0.25941000  0.42401000  0.41342000  1.0 0.81197219
Li  Li18  1  0.14730000  0.34990000  0.72360000  1.0 0.8194054182
Li  Li19  1  0.62970000  0.77960000  0.60730000  1.0 0.8194054182
Li  Li20  1  0.87240000  0.19540000  0.74020000  1.0 0.81197219
Li  Li21  1  0.01059000  0.84599000  0.58658000  1.0 0.81197219
Li  Li22  1  0.62630000  0.42370000  0.27640000  1.0 0.8194054182
Li  Li23  1  0.17230000  0.02240000  0.39270000  1.0 0.8194054182
Li  Li24  1  0.45520000  0.13220000  0.25980000  1.0 0.81197219
Li  Li25  1  0.09599000  0.00941000  0.33540000  1.0 0.81197219
Li  Li26  1  0.67370000  0.89730000  0.29740000  1.0 0.8194054182
Li  Li27  1  0.27240000  0.37970000  0.35010000  1.0 0.8194054182
Li  Li28  1  0.38220000  0.62240000  0.17700000  1.0 0.81197219
Li  Li29  1  0.67401000  0.76059000  0.66460000  1.0 0.81197219
Li  Li30  1  0.59990000  0.37630000  0.70260000  1.0 0.8194054182
Li  Li31  1  0.02960000  0.92230000  0.64990000  1.0 0.8194054182
Li  Li32  1  0.44540000  0.20520000  0.82300000  1.0 0.81197219
Co  Co1  1  0.44710000  0.73428000  0.89366000  1.0 1.0129067565
Co  Co2  1  0.73738000  0.15556000  0.77066000  1.0 1.0129067565
Co  Co3  1  0.84062000  0.55344000  0.10634000  1.0 1.0129067565
Co  Co4  1  0.38490000  0.96672000  0.22934000  1.0 1.0129067565
Co  Co5  1  0.80344000  0.19710000  0.21282000  1.0 1.0129067565
Co  Co6  1  0.21672000  0.48738000  0.08182000  1.0 1.0129067565
Co  Co7  1  0.98428000  0.59062000  0.78718000  1.0 1.0129067565
Co  Co8  1  0.40556000  0.13490000  0.91818000  1.0 1.0129067565
Co  Co9  1  0.80290000  0.01572000  0.60634000  1.0 1.0129067565
Co  Co10  1  0.51262000  0.59444000  0.72934000  1.0 1.0129067565
Co  Co11  1  0.40938000  0.19656000  0.39366000  1.0 1.0129067565
Co  Co12  1  0.86510000  0.78328000  0.27066000  1.0 1.0129067565
Co  Co13  1  0.44656000  0.55290000  0.28718000  1.0 1.0129067565
Co  Co14  1  0.03328000  0.26262000  0.41818000  1.0 1.0129067565
Co  Co15  1  0.26572000  0.15938000  0.71282000  1.0 1.0129067565
Co  Co16  1  0.84444000  0.61510000  0.58182000  1.0 1.0129067565
H  H1  1  0.19467000  0.55334000  0.81113000  1.0 0.1200550363
H  H2  1  0.33797000  0.80267000  0.84546000  1.0 0.1395489491
H  H3  1  0.18354000  0.46477000  0.95293000  1.0 0.1395489491
H  H4  1  0.00320000  0.33554000  0.83962000  1.0 0.1200550363
H  H5  1  0.86580000  0.22370000  0.94740000  1.0 0.1395489491
H  H6  1  0.01121000  0.48790000  0.77523000  1.0 0.1395489491
H  H7  1  0.41867000  0.74853000  0.76614000  1.0 0.1395489491
H  H8  1  0.68401000  0.98388000  0.69997000  1.0 0.1200550363
H  H9  1  0.43278000  0.66102000  0.68464000  1.0 0.1334862451
H  H10  1  0.74221000  0.38354000  0.18887000  1.0 0.1200550363
H  H11  1  0.95721000  0.49251000  0.15454000  1.0 0.1395489491
H  H12  1  0.51184000  0.23061000  0.04707000  1.0 0.1395489491
H  H13  1  0.49592000  0.16358000  0.16038000  1.0 0.1200550363
H  H14  1  0.27630000  0.91840000  0.05260000  1.0 0.1395489491
H  H15  1  0.71267000  0.23598000  0.22477000  1.0 0.1395489491
H  H16  1  0.98239000  0.65253000  0.23387000  1.0 0.1395489491
H  H17  1  0.28391000  0.98404000  0.30003000  1.0 0.1200550363
H  H18  1  0.97638000  0.74814000  0.31536000  1.0 0.1334862451
H  H19  1  0.63354000  0.94467000  0.14133000  1.0 0.1200550363
H  H20  1  0.74251000  0.08797000  0.03530000  1.0 0.1395489491
H  H21  1  0.48061000  0.93354000  0.21877000  1.0 0.1395489491
H  H22  1  0.41358000  0.75320000  0.16766000  1.0 0.1200550363
H  H23  1  0.16840000  0.61580000  0.14210000  1.0 0.1395489491
H  H24  1  0.48598000  0.76121000  0.02331000  1.0 0.1395489491
H  H25  1  0.90253000  0.16867000  0.17015000  1.0 0.1395489491
H  H26  1  0.23404000  0.43401000  0.20013000  1.0 0.1200550363
H  H27  1  0.99814000  0.18278000  0.27176000  1.0 0.1334862451
H  H28  1  0.80334000  0.49221000  0.85867000  1.0 0.1200550363
H  H29  1  0.05267000  0.70721000  0.96470000  1.0 0.1395489491
H  H30  1  0.71477000  0.26184000  0.78123000  1.0 0.1395489491
H  H31  1  0.58554000  0.24592000  0.83234000  1.0 0.1200550363
H  H32  1  0.47370000  0.02630000  0.85790000  1.0 0.1395489491
H  H33  1  0.73790000  0.46267000  0.97669000  1.0 0.1395489491
H  H34  1  0.99852000  0.73239000  0.82986000  1.0 0.1395489491
H  H35  1  0.23388000  0.03391000  0.79987000  1.0 0.1200550363
H  H36  1  0.91102000  0.72638000  0.72824000  1.0 0.1334862451
H  H37  1  0.05533000  0.19666000  0.68887000  1.0 0.1200550363
H  H38  1  0.91203000  0.94733000  0.65454000  1.0 0.1395489491
H  H39  1  0.06646000  0.28523000  0.54707000  1.0 0.1395489491
H  H40  1  0.24680000  0.41446000  0.66038000  1.0 0.1200550363
H  H41  1  0.38420000  0.52630000  0.55260000  1.0 0.1395489491
H  H42  1  0.23879000  0.26210000  0.72477000  1.0 0.1395489491
H  H43  1  0.83133000  0.00148000  0.73387000  1.0 0.1395489491
H  H44  1  0.56599000  0.76612000  0.80003000  1.0 0.1200550363
H  H45  1  0.81722000  0.08898000  0.81536000  1.0 0.1334862451
H  H46  1  0.50779000  0.36646000  0.31113000  1.0 0.1200550363
H  H47  1  0.29279000  0.25749000  0.34546000  1.0 0.1395489491
H  H48  1  0.73816000  0.51939000  0.45293000  1.0 0.1395489491
H  H49  1  0.75408000  0.58642000  0.33962000  1.0 0.1200550363
H  H50  1  0.97370000  0.83160000  0.44740000  1.0 0.1395489491
H  H51  1  0.53733000  0.51402000  0.27523000  1.0 0.1395489491
H  H52  1  0.26761000  0.09747000  0.26614000  1.0 0.1395489491
H  H53  1  0.96609000  0.76596000  0.19997000  1.0 0.1200550363
H  H54  1  0.27362000  0.00186000  0.18464000  1.0 0.1334862451
H  H55  1  0.61646000  0.80533000  0.35867000  1.0 0.1200550363
H  H56  1  0.50749000  0.66203000  0.46470000  1.0 0.1395489491
H  H57  1  0.76939000  0.81646000  0.28123000  1.0 0.1395489491
H  H58  1  0.83642000  0.99680000  0.33234000  1.0 0.1200550363
H  H59  1  0.08160000  0.13420000  0.35790000  1.0 0.1395489491
H  H60  1  0.76402000  0.98879000  0.47669000  1.0 0.1395489491
H  H61  1  0.34747000  0.58133000  0.32986000  1.0 0.1395489491
H  H62  1  0.01596000  0.31599000  0.29987000  1.0 0.1200550363
H  H63  1  0.25186000  0.56722000  0.22824000  1.0 0.1334862451
H  H64  1  0.44666000  0.25779000  0.64133000  1.0 0.1200550363
H  H65  1  0.19733000  0.04279000  0.53530000  1.0 0.1395489491
H  H66  1  0.53523000  0.48816000  0.71877000  1.0 0.1395489491
H  H67  1  0.66446000  0.50408000  0.66766000  1.0 0.1200550363
H  H68  1  0.77630000  0.72370000  0.64210000  1.0 0.1395489491
H  H69  1  0.51210000  0.28733000  0.52331000  1.0 0.1395489491
H  H70  1  0.25147000  0.01761000  0.67014000  1.0 0.1395489491
H  H71  1  0.01612000  0.71609000  0.70013000  1.0 0.1200550363
H  H72  1  0.33898000  0.02362000  0.77176000  1.0 0.1334862451
C  C1  1  0.38613000  0.76419000  0.85852000  1.0 0.631441966
C  C2  1  0.18891000  0.57750000  0.81101000  1.0 -0.0979526122
C  C3  1  0.91960000  0.26950000  0.89010000  1.0 -0.0189766836
C  C4  1  0.08802000  0.50267000  0.78949000  1.0 -0.0189766836
C  C5  1  0.28251000  0.68998000  0.83269000  1.0 -0.0189766836
C  C6  1  0.27501000  0.72722000  0.83203000  1.0 -0.0979526122
C  C7  1  0.10618000  0.40880000  0.89258000  1.0 -0.0189766836
C  C8  1  0.02646000  0.34493000  0.95819000  1.0 -0.013176961
C  C9  1  0.81702000  0.19673000  0.86375000  1.0 0.631441966
C  C10  1  0.11656000  0.41455000  0.93711000  1.0 -0.0979526122
C  C11  1  0.00915000  0.33791000  0.86926000  1.0 -0.1111862598
C  C12  1  0.92684000  0.27127000  0.93391000  1.0 -0.0979526122
C  C13  1  0.04232000  0.35664000  0.00656000  1.0 0.6077072027
C  C14  1  0.98478000  0.37988000  0.76746000  1.0 0.6502522717
C  C15  1  0.20643000  0.48717000  0.87120000  1.0 0.6077072027
C  C16  1  0.07933000  0.53866000  0.78959000  1.0 -0.0979526122
C  C17  1  0.15499000  0.68196000  0.81295000  1.0 0.5993216301
C  C18  1  0.17094000  0.64925000  0.81079000  1.0 -0.013176961
C  C19  1  0.56171000  0.88193000  0.73724000  1.0 -0.0189766836
C  C20  1  0.62117000  0.97645000  0.75862000  1.0 0.6191538463
C  C21  1  0.45631000  0.76867000  0.74658000  1.0 -0.0979526122
C  C22  1  0.61459000  0.90895000  0.70654000  1.0 -0.1111862598
C  C23  1  0.56568000  0.82665000  0.68593000  1.0 -0.013176961
C  C24  1  0.40859000  0.68671000  0.72630000  1.0 -0.0189766836
C  C25  1  0.46373000  0.71562000  0.69695000  1.0 -0.1111862598
C  C26  1  0.29492000  0.56367000  0.73579000  1.0 0.6400256644
C  C27  1  0.62577000  0.85980000  0.65377000  1.0 0.5993216301
C  C28  1  0.90567000  0.52761000  0.14148000  1.0 0.631441966
C  C29  1  0.76649000  0.37790000  0.18899000  1.0 -0.0979526122
C  C30  1  0.37940000  0.02950000  0.10990000  1.0 -0.0189766836
C  C31  1  0.71318000  0.29853000  0.21051000  1.0 -0.0189766836
C  C32  1  0.85729000  0.44982000  0.16731000  1.0 -0.0189766836
C  C33  1  0.89519000  0.44298000  0.16797000  1.0 -0.0979526122
C  C34  1  0.51622000  0.21360000  0.10742000  1.0 -0.0189766836
C  C35  1  0.38674000  0.06827000  0.04181000  1.0 -0.013176961
C  C36  1  0.33298000  0.95327000  0.13625000  1.0 0.631441966
C  C37  1  0.47744000  0.17945000  0.06289000  1.0 -0.0979526122
C  C38  1  0.46865000  0.13989000  0.13074000  1.0 -0.1111862598
C  C39  1  0.33736000  0.99293000  0.06609000  1.0 -0.0979526122
C  C40  1  0.35008000  0.03576000  0.99344000  1.0 0.6077072027
C  C41  1  0.61242000  0.21732000  0.23254000  1.0 0.6502522717
C  C42  1  0.61597000  0.33523000  0.12880000  1.0 0.6077072027
C  C43  1  0.74907000  0.28974000  0.21041000  1.0 -0.0979526122
C  C44  1  0.86901000  0.34204000  0.18705000  1.0 0.5993216301
C  C45  1  0.83846000  0.36015000  0.18921000  1.0 -0.013176961
C  C46  1  0.14469000  0.82447000  0.26276000  1.0 -0.0189766836
C  C47  1  0.21783000  0.86255000  0.24138000  1.0 0.6191538463
C  C48  1  0.02209000  0.70973000  0.25342000  1.0 -0.0979526122
C  C49  1  0.20241000  0.90805000  0.29346000  1.0 -0.1111862598
C  C50  1  0.14072000  0.87975000  0.31407000  1.0 -0.013176961
C  C51  1  0.96041000  0.68229000  0.27370000  1.0 -0.0189766836
C  C52  1  0.01867000  0.76678000  0.30305000  1.0 -0.1111862598
C  C53  1  0.82788000  0.55913000  0.26421000  1.0 0.6400256644
C  C54  1  0.20603000  0.97200000  0.34623000  1.0 0.5993216301
C  C55  1  0.77761000  0.13613000  0.12194000  1.0 0.631441966
C  C56  1  0.62790000  0.93891000  0.11141000  1.0 -0.0979526122
C  C57  1  0.27950000  0.66960000  0.15010000  1.0 -0.0189766836
C  C58  1  0.54853000  0.83802000  0.08535000  1.0 -0.0189766836
C  C59  1  0.69982000  0.03251000  0.09253000  1.0 -0.0189766836
C  C60  1  0.69298000  0.02501000  0.04779000  1.0 -0.0979526122
C  C61  1  0.46360000  0.85618000  0.19738000  1.0 -0.0189766836
C  C62  1  0.31827000  0.77646000  0.18153000  1.0 -0.013176961
C  C63  1  0.20327000  0.56702000  0.12029000  1.0 0.631441966
C  C64  1  0.42945000  0.86656000  0.20201000  1.0 -0.0979526122
C  C65  1  0.38989000  0.75915000  0.17124000  1.0 -0.1111862598
C  C66  1  0.24293000  0.67684000  0.15557000  1.0 -0.0979526122
C  C67  1  0.28576000  0.79232000  0.18568000  1.0 0.6077072027
C  C68  1  0.46732000  0.73478000  0.10490000  1.0 0.6502522717
C  C69  1  0.58523000  0.95643000  0.21926000  1.0 0.6077072027
C  C70  1  0.53974000  0.82933000  0.04067000  1.0 -0.0979526122
C  C71  1  0.59204000  0.90499000  0.97303000  1.0 0.5993216301
C  C72  1  0.61015000  0.92094000  0.02169000  1.0 -0.013176961
C  C73  1  0.07447000  0.31171000  0.17978000  1.0 -0.0189766836
C  C74  1  0.11255000  0.37117000  0.14472000  1.0 0.6191538463
C  C75  1  0.95973000  0.20631000  0.18764000  1.0 -0.0979526122
C  C76  1  0.15805000  0.36459000  0.20564000  1.0 -0.1111862598
C  C77  1  0.12975000  0.31568000  0.23903000  1.0 -0.013176961
C  C78  1  0.93229000  0.15859000  0.22188000  1.0 -0.0189766836
C  C79  1  0.01678000  0.21373000  0.24811000  1.0 -0.1111862598
C  C80  1  0.80913000  0.04492000  0.23125000  1.0 0.6400256644
C  C81  1  0.22200000  0.37577000  0.26597000  1.0 0.5993216301
C  C82  1  0.01419000  0.65567000  0.87806000  1.0 0.631441966
C  C83  1  0.82750000  0.51649000  0.88859000  1.0 -0.0979526122
C  C84  1  0.51950000  0.12940000  0.84990000  1.0 -0.0189766836
C  C85  1  0.75267000  0.46318000  0.91465000  1.0 -0.0189766836
C  C86  1  0.93998000  0.60729000  0.90747000  1.0 -0.0189766836
C  C87  1  0.97722000  0.64519000  0.95221000  1.0 -0.0979526122
C  C88  1  0.65880000  0.26622000  0.80262000  1.0 -0.0189766836
C  C89  1  0.59493000  0.13674000  0.81847000  1.0 -0.013176961
C  C90  1  0.44673000  0.08298000  0.87971000  1.0 0.631441966
C  C91  1  0.66455000  0.22744000  0.79799000  1.0 -0.0979526122
C  C92  1  0.58791000  0.21865000  0.82876000  1.0 -0.1111862598
C  C93  1  0.52127000  0.08736000  0.84443000  1.0 -0.0979526122
C  C94  1  0.60664000  0.10008000  0.81432000  1.0 0.6077072027
C  C95  1  0.62988000  0.36242000  0.89510000  1.0 0.6502522717
C  C96  1  0.73717000  0.36597000  0.78074000  1.0 0.6077072027
C  C97  1  0.78866000  0.49907000  0.95933000  1.0 -0.0979526122
C  C98  1  0.93196000  0.61901000  0.02697000  1.0 0.5993216301
C  C99  1  0.89925000  0.58846000  0.97831000  1.0 -0.013176961
C  C100  1  0.13193000  0.89469000  0.82022000  1.0 -0.0189766836
C  C101  1  0.22645000  0.96783000  0.85528000  1.0 0.6191538463
C  C102  1  0.01867000  0.77209000  0.81236000  1.0 -0.0979526122
C  C103  1  0.15895000  0.95241000  0.79436000  1.0 -0.1111862598
C  C104  1  0.07665000  0.89072000  0.76097000  1.0 -0.013176961
C  C105  1  0.93671000  0.71041000  0.77812000  1.0 -0.0189766836
C  C106  1  0.96562000  0.76867000  0.75189000  1.0 -0.1111862598
C  C107  1  0.81367000  0.57788000  0.76875000  1.0 0.6400256644
C  C108  1  0.10980000  0.95603000  0.73403000  1.0 0.5993216301
C  C109  1  0.86387000  0.98581000  0.64148000  1.0 0.631441966
C  C110  1  0.06109000  0.17250000  0.68899000  1.0 -0.0979526122
C  C111  1  0.33040000  0.48050000  0.60990000  1.0 -0.0189766836
C  C112  1  0.16198000  0.24733000  0.71051000  1.0 -0.0189766836
C  C113  1  0.96749000  0.06002000  0.66731000  1.0 -0.0189766836
C  C114  1  0.97499000  0.02278000  0.66797000  1.0 -0.0979526122
C  C115  1  0.14382000  0.34120000  0.60742000  1.0 -0.0189766836
C  C116  1  0.22354000  0.40507000  0.54181000  1.0 -0.013176961
C  C117  1  0.43298000  0.55327000  0.63625000  1.0 0.631441966
C  C118  1  0.13344000  0.33545000  0.56289000  1.0 -0.0979526122
C  C119  1  0.24085000  0.41209000  0.63074000  1.0 -0.1111862598
C  C120  1  0.32316000  0.47873000  0.56609000  1.0 -0.0979526122
C  C121  1  0.20768000  0.39336000  0.49344000  1.0 0.6077072027
C  C122  1  0.26522000  0.37012000  0.73254000  1.0 0.6502522717
C  C123  1  0.04357000  0.26283000  0.62880000  1.0 0.6077072027
C  C124  1  0.17067000  0.21134000  0.71041000  1.0 -0.0979526122
C  C125  1  0.09501000  0.06804000  0.68705000  1.0 0.5993216301
C  C126  1  0.07906000  0.10075000  0.68921000  1.0 -0.013176961
C  C127  1  0.68829000  0.86807000  0.76276000  1.0 -0.0189766836
C  C128  1  0.62883000  0.77355000  0.74138000  1.0 0.6191538463
C  C129  1  0.79369000  0.98133000  0.75342000  1.0 -0.0979526122
C  C130  1  0.63541000  0.84105000  0.79346000  1.0 -0.1111862598
C  C131  1  0.68432000  0.92335000  0.81407000  1.0 -0.013176961
C  C132  1  0.84141000  0.06329000  0.77370000  1.0 -0.0189766836
C  C133  1  0.78627000  0.03438000  0.80305000  1.0 -0.1111862598
C  C134  1  0.95508000  0.18633000  0.76421000  1.0 0.6400256644
C  C135  1  0.62423000  0.89020000  0.84623000  1.0 0.5993216301
C  C136  1  0.34433000  0.22239000  0.35852000  1.0 0.631441966
C  C137  1  0.48351000  0.37210000  0.31101000  1.0 -0.0979526122
C  C138  1  0.87060000  0.72050000  0.39010000  1.0 -0.0189766836
C  C139  1  0.53682000  0.45147000  0.28949000  1.0 -0.0189766836
C  C140  1  0.39271000  0.30018000  0.33269000  1.0 -0.0189766836
C  C141  1  0.35481000  0.30702000  0.33203000  1.0 -0.0979526122
C  C142  1  0.73378000  0.53640000  0.39258000  1.0 -0.0189766836
C  C143  1  0.86326000  0.68173000  0.45819000  1.0 -0.013176961
C  C144  1  0.91702000  0.79673000  0.36375000  1.0 0.631441966
C  C145  1  0.77256000  0.57055000  0.43711000  1.0 -0.0979526122
C  C146  1  0.78135000  0.61011000  0.36926000  1.0 -0.1111862598
C  C147  1  0.91264000  0.75707000  0.43391000  1.0 -0.0979526122
C  C148  1  0.89992000  0.71424000  0.50656000  1.0 0.6077072027
C  C149  1  0.63758000  0.53268000  0.26746000  1.0 0.6502522717
C  C150  1  0.63403000  0.41477000  0.37120000  1.0 0.6077072027
C  C151  1  0.50093000  0.46026000  0.28959000  1.0 -0.0979526122
C  C152  1  0.38099000  0.40796000  0.31295000  1.0 0.5993216301
C  C153  1  0.41154000  0.38985000  0.31079000  1.0 -0.013176961
C  C154  1  0.10531000  0.92553000  0.23724000  1.0 -0.0189766836
C  C155  1  0.03217000  0.88745000  0.25862000  1.0 0.6191538463
C  C156  1  0.22791000  0.04027000  0.24658000  1.0 -0.0979526122
C  C157  1  0.04759000  0.84195000  0.20654000  1.0 -0.1111862598
C  C158  1  0.10928000  0.87025000  0.18593000  1.0 -0.013176961
C  C159  1  0.28959000  0.06771000  0.22630000  1.0 -0.0189766836
C  C160  1  0.23133000  0.98322000  0.19695000  1.0 -0.1111862598
C  C161  1  0.42212000  0.19087000  0.23579000  1.0 0.6400256644
C  C162  1  0.04397000  0.77800000  0.15377000  1.0 0.5993216301
C  C163  1  0.47239000  0.61387000  0.37806000  1.0 0.631441966
C  C164  1  0.62210000  0.81109000  0.38859000  1.0 -0.0979526122
C  C165  1  0.97050000  0.08040000  0.34990000  1.0 -0.0189766836
C  C166  1  0.70147000  0.91198000  0.41465000  1.0 -0.0189766836
C  C167  1  0.55018000  0.71749000  0.40747000  1.0 -0.0189766836
C  C168  1  0.55702000  0.72499000  0.45221000  1.0 -0.0979526122
C  C169  1  0.78640000  0.89382000  0.30262000  1.0 -0.0189766836
C  C170  1  0.93173000  0.97354000  0.31847000  1.0 -0.013176961
C  C171  1  0.04673000  0.18298000  0.37971000  1.0 0.631441966
C  C172  1  0.82055000  0.88344000  0.29799000  1.0 -0.0979526122
C  C173  1  0.86011000  0.99085000  0.32876000  1.0 -0.1111862598
C  C174  1  0.00707000  0.07316000  0.34443000  1.0 -0.0979526122
C  C175  1  0.96424000  0.95768000  0.31432000  1.0 0.6077072027
C  C176  1  0.78268000  0.01522000  0.39510000  1.0 0.6502522717
C  C177  1  0.66477000  0.79357000  0.28074000  1.0 0.6077072027
C  C178  1  0.71026000  0.92067000  0.45933000  1.0 -0.0979526122
C  C179  1  0.65796000  0.84501000  0.52697000  1.0 0.5993216301
C  C180  1  0.63985000  0.82906000  0.47831000  1.0 -0.013176961
C  C181  1  0.17553000  0.43829000  0.32022000  1.0 -0.0189766836
C  C182  1  0.13745000  0.37883000  0.35528000  1.0 0.6191538463
C  C183  1  0.29027000  0.54369000  0.31236000  1.0 -0.0979526122
C  C184  1  0.09195000  0.38541000  0.29436000  1.0 -0.1111862598
C  C185  1  0.12025000  0.43432000  0.26097000  1.0 -0.013176961
C  C186  1  0.31771000  0.59141000  0.27812000  1.0 -0.0189766836
C  C187  1  0.23322000  0.53627000  0.25189000  1.0 -0.1111862598
C  C188  1  0.44087000  0.70508000  0.26875000  1.0 0.6400256644
C  C189  1  0.02800000  0.37423000  0.23403000  1.0 0.5993216301
C  C190  1  0.23581000  0.09433000  0.62194000  1.0 0.631441966
C  C191  1  0.42250000  0.23351000  0.61141000  1.0 -0.0979526122
C  C192  1  0.73050000  0.62060000  0.65010000  1.0 -0.0189766836
C  C193  1  0.49733000  0.28682000  0.58535000  1.0 -0.0189766836
C  C194  1  0.31002000  0.14271000  0.59253000  1.0 -0.0189766836
C  C195  1  0.27278000  0.10481000  0.54779000  1.0 -0.0979526122
C  C196  1  0.59120000  0.48378000  0.69738000  1.0 -0.0189766836
C  C197  1  0.65507000  0.61326000  0.68153000  1.0 -0.013176961
C  C198  1  0.80327000  0.66702000  0.62029000  1.0 0.631441966
C  C199  1  0.58545000  0.52256000  0.70201000  1.0 -0.0979526122
C  C200  1  0.66209000  0.53135000  0.67124000  1.0 -0.1111862598
C  C201  1  0.72873000  0.66264000  0.65557000  1.0 -0.0979526122
C  C202  1  0.64336000  0.64992000  0.68568000  1.0 0.6077072027
C  C203  1  0.62012000  0.38758000  0.60490000  1.0 0.6502522717
C  C204  1  0.51283000  0.38403000  0.71926000  1.0 0.6077072027
C  C205  1  0.46134000  0.25093000  0.54067000  1.0 -0.0979526122
C  C206  1  0.31804000  0.13099000  0.47303000  1.0 0.5993216301
C  C207  1  0.35075000  0.16154000  0.52169000  1.0 -0.013176961
C  C208  1  0.11807000  0.85531000  0.67978000  1.0 -0.0189766836
C  C209  1  0.02355000  0.78217000  0.64472000  1.0 0.6191538463
C  C210  1  0.23133000  0.97791000  0.68764000  1.0 -0.0979526122
C  C211  1  0.09105000  0.79759000  0.70564000  1.0 -0.1111862598
C  C212  1  0.17335000  0.85928000  0.73903000  1.0 -0.013176961
C  C213  1  0.31329000  0.03959000  0.72188000  1.0 -0.0189766836
C  C214  1  0.28438000  0.98133000  0.74811000  1.0 -0.1111862598
C  C215  1  0.43633000  0.17212000  0.73125000  1.0 0.6400256644
C  C216  1  0.14020000  0.79397000  0.76597000  1.0 0.5993216301
O  O1  1  0.48215000  0.87207000  0.86922000  1.0 -0.6738924717
O  O2  1  0.99669000  0.35145000  0.76534000  1.0 -0.6866937985
O  O3  1  0.89181000  0.31272000  0.75273000  1.0 -0.5570663919
O  O4  1  0.72079000  0.10847000  0.87666000  1.0 -0.660534512
O  O5  1  0.83604000  0.23144000  0.83008000  1.0 -0.5707327944
O  O6  1  0.30267000  0.56872000  0.89759000  1.0 -0.5522815917
O  O7  1  0.96537000  0.29939000  0.02536000  1.0 -0.5902220716
O  O8  1  0.36504000  0.70739000  0.86823000  1.0 -0.5707327944
O  O9  1  0.19319000  0.47156000  0.83175000  1.0 -0.5902220716
O  O10  1  0.22741000  0.77154000  0.83815000  1.0 -0.5797658075
O  O11  1  0.13425000  0.42309000  0.02354000  1.0 -0.5797658075
O  O12  1  0.06334000  0.60981000  0.78815000  1.0 -0.5797658075
O  O13  1  0.56911000  0.95347000  0.77978000  1.0 -0.6174080381
O  O14  1  0.72441000  0.08024000  0.75245000  1.0 -0.660534512
O  O15  1  0.21935000  0.51971000  0.74286000  1.0 -0.6174080381
O  O16  1  0.59246000  0.79375000  0.63881000  1.0 -0.6174080381
O  O17  1  0.28436000  0.51426000  0.73662000  1.0 -0.734956633
O  O18  1  0.71130000  0.95995000  0.64345000  1.0 -0.5522815917
O  O19  1  0.00285000  0.61293000  0.13078000  1.0 -0.6738924717
O  O20  1  0.58611000  0.23135000  0.23466000  1.0 -0.6866937985
O  O21  1  0.55999000  0.13908000  0.24727000  1.0 -0.5570663919
O  O22  1  0.23181000  0.84413000  0.12334000  1.0 -0.660534512
O  O23  1  0.40136000  0.00596000  0.16992000  1.0 -0.5707327944
O  O24  1  0.67113000  0.40508000  0.10241000  1.0 -0.5522815917
O  O25  1  0.27403000  0.94001000  0.97464000  1.0 -0.5902220716
O  O26  1  0.83916000  0.49681000  0.13177000  1.0 -0.5707327944
O  O27  1  0.63981000  0.36144000  0.16825000  1.0 -0.5902220716
O  O28  1  0.93339000  0.38926000  0.16185000  1.0 -0.5797658075
O  O29  1  0.39955000  0.11071000  0.97646000  1.0 -0.5797658075
O  O30  1  0.82166000  0.27519000  0.21185000  1.0 -0.5797658075
O  O31  1  0.17369000  0.78933000  0.22022000  1.0 -0.6174080381
O  O32  1  0.32779000  0.97196000  0.24755000  1.0 -0.660534512
O  O33  1  0.77685000  0.47649000  0.25714000  1.0 -0.6174080381
O  O34  1  0.15494000  0.95365000  0.36119000  1.0 -0.6174080381
O  O35  1  0.77764000  0.54774000  0.26338000  1.0 -0.734956633
O  O36  1  0.31650000  0.06785000  0.35655000  1.0 -0.5522815917
O  O37  1  0.86293000  0.23215000  0.11008000  1.0 -0.6738924717
O  O38  1  0.48135000  0.74669000  0.14524000  1.0 -0.6866937985
O  O39  1  0.38908000  0.64181000  0.07909000  1.0 -0.5570663919
O  O40  1  0.09413000  0.47079000  0.11232000  1.0 -0.660534512
O  O41  1  0.25596000  0.58604000  0.10460000  1.0 -0.5707327944
O  O42  1  0.65508000  0.05267000  0.23395000  1.0 -0.5522815917
O  O43  1  0.19001000  0.71537000  0.16598000  1.0 -0.5902220716
O  O44  1  0.74681000  0.11504000  0.15765000  1.0 -0.5707327944
O  O45  1  0.61144000  0.94319000  0.22163000  1.0 -0.5902220716
O  O46  1  0.63926000  0.97741000  0.95587000  1.0 -0.5797658075
O  O47  1  0.36071000  0.88425000  0.21116000  1.0 -0.5797658075
O  O48  1  0.52519000  0.81334000  0.95353000  1.0 -0.5797658075
O  O49  1  0.03933000  0.31911000  0.11564000  1.0 -0.6174080381
O  O50  1  0.22196000  0.47441000  0.14417000  1.0 -0.660534512
O  O51  1  0.72649000  0.96935000  0.19964000  1.0 -0.6174080381
O  O52  1  0.20365000  0.34246000  0.29871000  1.0 -0.6174080381
O  O53  1  0.79774000  0.03436000  0.27010000  1.0 -0.734956633
O  O54  1  0.31785000  0.46130000  0.25135000  1.0 -0.5522815917
O  O55  1  0.12207000  0.75285000  0.88992000  1.0 -0.6738924717
O  O56  1  0.60145000  0.33611000  0.85476000  1.0 -0.6866937985
O  O57  1  0.56272000  0.30999000  0.92091000  1.0 -0.5570663919
O  O58  1  0.35847000  0.98181000  0.88768000  1.0 -0.660534512
O  O59  1  0.48144000  0.15136000  0.89540000  1.0 -0.5707327944
O  O60  1  0.81872000  0.42113000  0.76605000  1.0 -0.5522815917
O  O61  1  0.54939000  0.02403000  0.83402000  1.0 -0.5902220716
O  O62  1  0.95739000  0.58916000  0.84235000  1.0 -0.5707327944
O  O63  1  0.72156000  0.38981000  0.77837000  1.0 -0.5902220716
O  O64  1  0.02154000  0.68339000  0.04413000  1.0 -0.5797658075
O  O65  1  0.67309000  0.14955000  0.78884000  1.0 -0.5797658075
O  O66  1  0.85981000  0.57166000  0.04647000  1.0 -0.5797658075
O  O67  1  0.20347000  0.92369000  0.88436000  1.0 -0.6174080381
O  O68  1  0.33024000  0.07779000  0.85583000  1.0 -0.660534512
O  O69  1  0.76971000  0.52685000  0.80036000  1.0 -0.6174080381
O  O70  1  0.04375000  0.90494000  0.70129000  1.0 -0.6174080381
O  O71  1  0.76426000  0.52764000  0.72990000  1.0 -0.734956633
O  O72  1  0.20995000  0.06650000  0.74865000  1.0 -0.5522815917
O  O73  1  0.76785000  0.87793000  0.63078000  1.0 -0.6738924717
O  O74  1  0.25331000  0.39855000  0.73466000  1.0 -0.6866937985
O  O75  1  0.35819000  0.43728000  0.74727000  1.0 -0.5570663919
O  O76  1  0.52921000  0.64153000  0.62334000  1.0 -0.660534512
O  O77  1  0.41396000  0.51856000  0.66992000  1.0 -0.5707327944
O  O78  1  0.94733000  0.18128000  0.60241000  1.0 -0.5522815917
O  O79  1  0.28463000  0.45061000  0.47464000  1.0 -0.5902220716
O  O80  1  0.88496000  0.04261000  0.63177000  1.0 -0.5707327944
O  O81  1  0.05681000  0.27844000  0.66825000  1.0 -0.5902220716
O  O82  1  0.02259000  0.97846000  0.66185000  1.0 -0.5797658075
O  O83  1  0.11575000  0.32691000  0.47646000  1.0 -0.5797658075
O  O84  1  0.18666000  0.14019000  0.71185000  1.0 -0.5797658075
O  O85  1  0.68089000  0.79653000  0.72022000  1.0 -0.6174080381
O  O86  1  0.52559000  0.66976000  0.74755000  1.0 -0.660534512
O  O87  1  0.03065000  0.23029000  0.75714000  1.0 -0.6174080381
O  O88  1  0.65754000  0.95625000  0.86119000  1.0 -0.6174080381
O  O89  1  0.96564000  0.23574000  0.76338000  1.0 -0.734956633
O  O90  1  0.53870000  0.79005000  0.85655000  1.0 -0.5522815917
O  O91  1  0.24715000  0.13707000  0.36922000  1.0 -0.6738924717
O  O92  1  0.66389000  0.51865000  0.26534000  1.0 -0.6866937985
O  O93  1  0.69001000  0.61092000  0.25273000  1.0 -0.5570663919
O  O94  1  0.01819000  0.90587000  0.37666000  1.0 -0.660534512
O  O95  1  0.84864000  0.74404000  0.33008000  1.0 -0.5707327944
O  O96  1  0.57887000  0.34492000  0.39759000  1.0 -0.5522815917
O  O97  1  0.97597000  0.80999000  0.52536000  1.0 -0.5902220716
O  O98  1  0.41084000  0.25319000  0.36823000  1.0 -0.5707327944
O  O99  1  0.61019000  0.38856000  0.33175000  1.0 -0.5902220716
O  O100  1  0.31661000  0.36074000  0.33815000  1.0 -0.5797658075
O  O101  1  0.85045000  0.63929000  0.52354000  1.0 -0.5797658075
O  O102  1  0.42834000  0.47481000  0.28815000  1.0 -0.5797658075
O  O103  1  0.07631000  0.96067000  0.27978000  1.0 -0.6174080381
O  O104  1  0.92221000  0.77804000  0.25245000  1.0 -0.660534512
O  O105  1  0.47315000  0.27351000  0.24286000  1.0 -0.6174080381
O  O106  1  0.09506000  0.79635000  0.13881000  1.0 -0.6174080381
O  O107  1  0.47236000  0.20226000  0.23662000  1.0 -0.734956633
O  O108  1  0.93350000  0.68215000  0.14345000  1.0 -0.5522815917
O  O109  1  0.38707000  0.51785000  0.38992000  1.0 -0.6738924717
O  O110  1  0.76865000  0.00331000  0.35476000  1.0 -0.6866937985
O  O111  1  0.86092000  0.10819000  0.42091000  1.0 -0.5570663919
O  O112  1  0.15587000  0.27921000  0.38768000  1.0 -0.660534512
O  O113  1  0.99404000  0.16396000  0.39540000  1.0 -0.5707327944
O  O114  1  0.59492000  0.69733000  0.26605000  1.0 -0.5522815917
O  O115  1  0.05999000  0.03463000  0.33402000  1.0 -0.5902220716
O  O116  1  0.50319000  0.63496000  0.34235000  1.0 -0.5707327944
O  O117  1  0.63856000  0.80681000  0.27837000  1.0 -0.5902220716
O  O118  1  0.61074000  0.77259000  0.54413000  1.0 -0.5797658075
O  O119  1  0.88929000  0.86575000  0.28884000  1.0 -0.5797658075
O  O120  1  0.72481000  0.93666000  0.54647000  1.0 -0.5797658075
O  O121  1  0.21067000  0.43089000  0.38436000  1.0 -0.6174080381
O  O122  1  0.02804000  0.27559000  0.35583000  1.0 -0.660534512
O  O123  1  0.52351000  0.78065000  0.30036000  1.0 -0.6174080381
O  O124  1  0.04635000  0.40754000  0.20129000  1.0 -0.6174080381
O  O125  1  0.45226000  0.71564000  0.22990000  1.0 -0.734956633
O  O126  1  0.93215000  0.28870000  0.24865000  1.0 -0.5522815917
O  O127  1  0.12793000  0.99715000  0.61008000  1.0 -0.6738924717
O  O128  1  0.64855000  0.41389000  0.64524000  1.0 -0.6866937985
O  O129  1  0.68728000  0.44001000  0.57909000  1.0 -0.5570663919
O  O130  1  0.89153000  0.76819000  0.61232000  1.0 -0.660534512
O  O131  1  0.76856000  0.59864000  0.60460000  1.0 -0.5707327944
O  O132  1  0.43128000  0.32887000  0.73395000  1.0 -0.5522815917
O  O133  1  0.70061000  0.72597000  0.66598000  1.0 -0.5902220716
O  O134  1  0.29261000  0.16084000  0.65765000  1.0 -0.5707327944
O  O135  1  0.52844000  0.36019000  0.72163000  1.0 -0.5902220716
O  O136  1  0.22846000  0.06661000  0.45587000  1.0 -0.5797658075
O  O137  1  0.57691000  0.60045000  0.71116000  1.0 -0.5797658075
O  O138  1  0.39019000  0.17834000  0.45353000  1.0 -0.5797658075
O  O139  1  0.04653000  0.82631000  0.61564000  1.0 -0.6174080381
O  O140  1  0.91976000  0.67221000  0.64417000  1.0 -0.660534512
O  O141  1  0.48029000  0.22315000  0.69964000  1.0 -0.6174080381
O  O142  1  0.20625000  0.84506000  0.79871000  1.0 -0.6174080381
O  O143  1  0.48574000  0.22236000  0.77010000  1.0 -0.734956633
O  O144  1  0.04005000  0.68350000  0.75135000  1.0 -0.5522815917
