# DDEC6 charges by PACMAN v1.1 (https://github.com/mtap-research/PACMAN-charge/)
data_IZEVOB_ASR_pacman
_symmetry_space_group_name_H-M   'P 1'
_cell_length_a   31.45380000
_cell_length_b   31.45380000
_cell_length_c   31.45380000
_cell_angle_alpha   92.02790000
_cell_angle_beta   92.02790000
_cell_angle_gamma   158.31500000
_symmetry_Int_Tables_number   1
_chemical_formula_structural   Li4Co2H17C31NO18
_chemical_formula_sum   'Li32 Co16 H136 C248 N8 O144'
_cell_volume   11293.13403688
_cell_formula_units_Z   8
loop_
 _symmetry_equiv_pos_site_id
 _symmetry_equiv_pos_as_xyz
  1  'x, y, z'
loop_
 _atom_site_type_symbol
 _atom_site_label
 _atom_site_symmetry_multiplicity
 _atom_site_fract_x
 _atom_site_fract_y
 _atom_site_fract_z
 _atom_site_occupancy
 _atom_site_charge
Li  Li1  1  0.10391000  0.32681000  0.70352000  1.0 0.8262306857
Li  Li2  1  0.62920000  0.73260000  0.65120000  1.0 0.8219375568
Li  Li3  1  0.57857000  0.74267000  0.58744000  1.0 0.8097269642
Li  Li4  1  0.37522000  0.61487000  0.82349000  1.0 0.8097269642
Li  Li5  1  0.62329000  0.40039000  0.29648000  1.0 0.8262306857
Li  Li6  1  0.08140000  0.97800000  0.34880000  1.0 0.8219375568
Li  Li7  1  0.15523000  0.99113000  0.41256000  1.0 0.8097269642
Li  Li8  1  0.79138000  0.55173000  0.17651000  1.0 0.8097269642
Li  Li9  1  0.65039000  0.85391000  0.27710000  1.0 0.8262306857
Li  Li10  1  0.22800000  0.37920000  0.39660000  1.0 0.8219375568
Li  Li11  1  0.24113000  0.32857000  0.33590000  1.0 0.8097269642
Li  Li12  1  0.80173000  0.12522000  0.26035000  1.0 0.8097269642
Li  Li13  1  0.57681000  0.37329000  0.72290000  1.0 0.8262306857
Li  Li14  1  0.98260000  0.83140000  0.60340000  1.0 0.8219375568
Li  Li15  1  0.99267000  0.90523000  0.66410000  1.0 0.8097269642
Li  Li16  1  0.86487000  0.54138000  0.73965000  1.0 0.8097269642
Li  Li17  1  0.14609000  0.42319000  0.79648000  1.0 0.8262306857
Li  Li18  1  0.62080000  0.01740000  0.84880000  1.0 0.8219375568
Li  Li19  1  0.67143000  0.00733000  0.91256000  1.0 0.8097269642
Li  Li20  1  0.87478000  0.13513000  0.67651000  1.0 0.8097269642
Li  Li21  1  0.62671000  0.34961000  0.20352000  1.0 0.8262306857
Li  Li22  1  0.16860000  0.77200000  0.15120000  1.0 0.8219375568
Li  Li23  1  0.09477000  0.75887000  0.08744000  1.0 0.8097269642
Li  Li24  1  0.45862000  0.19827000  0.32349000  1.0 0.8097269642
Li  Li25  1  0.59961000  0.89609000  0.22290000  1.0 0.8262306857
Li  Li26  1  0.02200000  0.37080000  0.10340000  1.0 0.8219375568
Li  Li27  1  0.00887000  0.42143000  0.16410000  1.0 0.8097269642
Li  Li28  1  0.44827000  0.62478000  0.23965000  1.0 0.8097269642
Li  Li29  1  0.67319000  0.37671000  0.77710000  1.0 0.8262306857
Li  Li30  1  0.26740000  0.91860000  0.89660000  1.0 0.8219375568
Li  Li31  1  0.25733000  0.84477000  0.83590000  1.0 0.8097269642
Li  Li32  1  0.38513000  0.20862000  0.76035000  1.0 0.8097269642
Co  Co1  1  0.44950000  0.55466000  0.71412000  1.0 1.0226854342
Co  Co2  1  0.73928000  0.96886000  0.58258000  1.0 0.9449636894
Co  Co3  1  0.84054000  0.73538000  0.28588000  1.0 1.0226854342
Co  Co4  1  0.38628000  0.15670000  0.41742000  1.0 0.9454793292
Co  Co5  1  0.98538000  0.19950000  0.39484000  1.0 1.0226854342
Co  Co6  1  0.40670000  0.48928000  0.27042000  1.0 0.9454793292
Co  Co7  1  0.80466000  0.59054000  0.60516000  1.0 1.0226854342
Co  Co8  1  0.21886000  0.13628000  0.72958000  1.0 0.9454793292
Co  Co9  1  0.80050000  0.19534000  0.78588000  1.0 1.0226854342
Co  Co10  1  0.51072000  0.78114000  0.91742000  1.0 0.9454793292
Co  Co11  1  0.40946000  0.01462000  0.21412000  1.0 1.0226854342
Co  Co12  1  0.86372000  0.59330000  0.08258000  1.0 0.9454793292
Co  Co13  1  0.26462000  0.55050000  0.10516000  1.0 1.0226854342
Co  Co14  1  0.84330000  0.26072000  0.22958000  1.0 0.9454793292
Co  Co15  1  0.44534000  0.15946000  0.89484000  1.0 1.0226854342
Co  Co16  1  0.03114000  0.61372000  0.77042000  1.0 0.9454793292
H  H1  1  0.19523000  0.38153000  0.64174000  1.0 0.1196569544
H  H2  1  0.00429000  0.16396000  0.66845000  1.0 0.1196569544
H  H3  1  0.18279000  0.22849000  0.71832000  1.0 0.1380258985
H  H4  1  0.68386000  0.98395000  0.70077000  1.0 0.1196569544
H  H5  1  0.42036000  0.65448000  0.67030000  1.0 0.1380258985
H  H6  1  0.86800000  0.91954000  0.64198000  1.0 0.1380258985
H  H7  1  0.43220000  0.74714000  0.77218000  1.0 0.1380258985
H  H8  1  0.01411000  0.23704000  0.52387000  1.0 0.1380258985
H  H9  1  0.66681000  0.99403000  0.61372000  1.0 0.0893015006
H  H10  1  0.76958000  0.09636000  0.58850000  1.0 0.1015425837
H  H11  1  0.34086000  0.49470000  0.53646000  1.0 0.1380258985
H  H12  1  0.49467000  0.78174000  0.53095000  1.0 0.1380258985
H  H13  1  0.50220000  0.80003000  0.58075000  1.0 0.1085330914
H  H14  1  0.61440000  0.01033000  0.58435000  1.0 0.0893015006
H  H15  1  0.66067000  0.04151000  0.54122000  1.0 0.0893015006
H  H16  1  0.43314000  0.81070000  0.55628000  1.0 0.1015425837
H  H17  1  0.47495000  0.84266000  0.51123000  1.0 0.1085330914
H  H18  1  0.73979000  0.55349000  0.35826000  1.0 0.1196569544
H  H19  1  0.49551000  0.33584000  0.33155000  1.0 0.1196569544
H  H20  1  0.51017000  0.46447000  0.28168000  1.0 0.1380258985
H  H21  1  0.28318000  0.98309000  0.29923000  1.0 0.1196569544
H  H22  1  0.98418000  0.75006000  0.32970000  1.0 0.1380258985
H  H23  1  0.27756000  0.22602000  0.35802000  1.0 0.1380258985
H  H24  1  0.97496000  0.66002000  0.22782000  1.0 0.1380258985
H  H25  1  0.71317000  0.49024000  0.47613000  1.0 0.1380258985
H  H26  1  0.38031000  0.05309000  0.38628000  1.0 0.0893015006
H  H27  1  0.50786000  0.18108000  0.41150000  1.0 0.1015425837
H  H28  1  0.95824000  0.80440000  0.46354000  1.0 0.1380258985
H  H29  1  0.25079000  0.96372000  0.46905000  1.0 0.1380258985
H  H30  1  0.21928000  0.92145000  0.41925000  1.0 0.1085330914
H  H31  1  0.42598000  0.03005000  0.41565000  1.0 0.0893015006
H  H32  1  0.50029000  0.11945000  0.45878000  1.0 0.0893015006
H  H33  1  0.25442000  0.87686000  0.44372000  1.0 0.1015425837
H  H34  1  0.33143000  0.96372000  0.48877000  1.0 0.1085330914
H  H35  1  0.80349000  0.94523000  0.31370000  1.0 0.1196569544
H  H36  1  0.58584000  0.75429000  0.34033000  1.0 0.1196569544
H  H37  1  0.71447000  0.93279000  0.45430000  1.0 0.1380258985
H  H38  1  0.23309000  0.43386000  0.19991000  1.0 0.1196569544
H  H39  1  0.00006000  0.17036000  0.26588000  1.0 0.1380258985
H  H40  1  0.47602000  0.61800000  0.44846000  1.0 0.1380258985
H  H41  1  0.91002000  0.18220000  0.18506000  1.0 0.1380258985
H  H42  1  0.74024000  0.76411000  0.27707000  1.0 0.1380258985
H  H43  1  0.30309000  0.41681000  0.17278000  1.0 0.0893015006
H  H44  1  0.43108000  0.51958000  0.17322000  1.0 0.1015425837
H  H45  1  0.05440000  0.09086000  0.34616000  1.0 0.1380258985
H  H46  1  0.21372000  0.24467000  0.21293000  1.0 0.1380258985
H  H47  1  0.17145000  0.25220000  0.20217000  1.0 0.1085330914
H  H48  1  0.28005000  0.36440000  0.10407000  1.0 0.0893015006
H  H49  1  0.36945000  0.41067000  0.11916000  1.0 0.0893015006
H  H50  1  0.12686000  0.18314000  0.12244000  1.0 0.1015425837
H  H51  1  0.21372000  0.22495000  0.13229000  1.0 0.1085330914
H  H52  1  0.63153000  0.48979000  0.68630000  1.0 0.1196569544
H  H53  1  0.41396000  0.24551000  0.65967000  1.0 0.1196569544
H  H54  1  0.47849000  0.26017000  0.54570000  1.0 0.1380258985
H  H55  1  0.23395000  0.03318000  0.80009000  1.0 0.1196569544
H  H56  1  0.90448000  0.73418000  0.73412000  1.0 0.1380258985
H  H57  1  0.16954000  0.02756000  0.55154000  1.0 0.1380258985
H  H58  1  0.99714000  0.72496000  0.81494000  1.0 0.1380258985
H  H59  1  0.48704000  0.46317000  0.72293000  1.0 0.1380258985
H  H60  1  0.24403000  0.13031000  0.82722000  1.0 0.0893015006
H  H61  1  0.34636000  0.25786000  0.82678000  1.0 0.1015425837
H  H62  1  0.74470000  0.70824000  0.65384000  1.0 0.1380258985
H  H63  1  0.03174000  0.00079000  0.78707000  1.0 0.1380258985
H  H64  1  0.05003000  0.96928000  0.79783000  1.0 0.1085330914
H  H65  1  0.26033000  0.17598000  0.89593000  1.0 0.0893015006
H  H66  1  0.29151000  0.25029000  0.88084000  1.0 0.0893015006
H  H67  1  0.06070000  0.00442000  0.87756000  1.0 0.1015425837
H  H68  1  0.09266000  0.08143000  0.86771000  1.0 0.1085330914
H  H69  1  0.05477000  0.36847000  0.85826000  1.0 0.1196569544
H  H70  1  0.24571000  0.58604000  0.83155000  1.0 0.1196569544
H  H71  1  0.06721000  0.52151000  0.78168000  1.0 0.1380258985
H  H72  1  0.56614000  0.76605000  0.79923000  1.0 0.1196569544
H  H73  1  0.82964000  0.09552000  0.82970000  1.0 0.1380258985
H  H74  1  0.38200000  0.83046000  0.85802000  1.0 0.1380258985
H  H75  1  0.81780000  0.00286000  0.72782000  1.0 0.1380258985
H  H76  1  0.23589000  0.51296000  0.97613000  1.0 0.1380258985
H  H77  1  0.58319000  0.75597000  0.88628000  1.0 0.0893015006
H  H78  1  0.48042000  0.65364000  0.91150000  1.0 0.1015425837
H  H79  1  0.90914000  0.25530000  0.96354000  1.0 0.1380258985
H  H80  1  0.75533000  0.96826000  0.96905000  1.0 0.1380258985
H  H81  1  0.74780000  0.94997000  0.91925000  1.0 0.1085330914
H  H82  1  0.63560000  0.73967000  0.91565000  1.0 0.0893015006
H  H83  1  0.58933000  0.70849000  0.95878000  1.0 0.0893015006
H  H84  1  0.81686000  0.93930000  0.94372000  1.0 0.1015425837
H  H85  1  0.77505000  0.90734000  0.98877000  1.0 0.1085330914
H  H86  1  0.51021000  0.19651000  0.14174000  1.0 0.1196569544
H  H87  1  0.75449000  0.41416000  0.16845000  1.0 0.1196569544
H  H88  1  0.73983000  0.28553000  0.21832000  1.0 0.1380258985
H  H89  1  0.96682000  0.76691000  0.20077000  1.0 0.1196569544
H  H90  1  0.26582000  0.99994000  0.17030000  1.0 0.1380258985
H  H91  1  0.97244000  0.52398000  0.14198000  1.0 0.1380258985
H  H92  1  0.27504000  0.08998000  0.27218000  1.0 0.1380258985
H  H93  1  0.53683000  0.25976000  0.02387000  1.0 0.1380258985
H  H94  1  0.86969000  0.69691000  0.11372000  1.0 0.0893015006
H  H95  1  0.74214000  0.56892000  0.08850000  1.0 0.1015425837
H  H96  1  0.29176000  0.94560000  0.03646000  1.0 0.1380258985
H  H97  1  0.99921000  0.78628000  0.03095000  1.0 0.1380258985
H  H98  1  0.03072000  0.82855000  0.08075000  1.0 0.1085330914
H  H99  1  0.82402000  0.71995000  0.08435000  1.0 0.0893015006
H  H100  1  0.74971000  0.63055000  0.04122000  1.0 0.0893015006
H  H101  1  0.99558000  0.87314000  0.05628000  1.0 0.1015425837
H  H102  1  0.91857000  0.78628000  0.01123000  1.0 0.1085330914
H  H103  1  0.44651000  0.80477000  0.18630000  1.0 0.1196569544
H  H104  1  0.66416000  0.99571000  0.15967000  1.0 0.1196569544
H  H105  1  0.53553000  0.81721000  0.04570000  1.0 0.1380258985
H  H106  1  0.01691000  0.31614000  0.30009000  1.0 0.1196569544
H  H107  1  0.24994000  0.57964000  0.23412000  1.0 0.1380258985
H  H108  1  0.77398000  0.13200000  0.05154000  1.0 0.1380258985
H  H109  1  0.33998000  0.56780000  0.31494000  1.0 0.1380258985
H  H110  1  0.50976000  0.98589000  0.22293000  1.0 0.1380258985
H  H111  1  0.94691000  0.33319000  0.32722000  1.0 0.0893015006
H  H112  1  0.81892000  0.23042000  0.32678000  1.0 0.1015425837
H  H113  1  0.19560000  0.65914000  0.15384000  1.0 0.1380258985
H  H114  1  0.03628000  0.50533000  0.28707000  1.0 0.1380258985
H  H115  1  0.07855000  0.49780000  0.29783000  1.0 0.1085330914
H  H116  1  0.96995000  0.38560000  0.39593000  1.0 0.0893015006
H  H117  1  0.88055000  0.33933000  0.38084000  1.0 0.0893015006
H  H118  1  0.12314000  0.56686000  0.37756000  1.0 0.1015425837
H  H119  1  0.03628000  0.52505000  0.36771000  1.0 0.1085330914
H  H120  1  0.61847000  0.26021000  0.81370000  1.0 0.1196569544
H  H121  1  0.83604000  0.50449000  0.84033000  1.0 0.1196569544
H  H122  1  0.77151000  0.48983000  0.95430000  1.0 0.1380258985
H  H123  1  0.01605000  0.71682000  0.69991000  1.0 0.1196569544
H  H124  1  0.34552000  0.01582000  0.76588000  1.0 0.1380258985
H  H125  1  0.08046000  0.72244000  0.94846000  1.0 0.1380258985
H  H126  1  0.25286000  0.02504000  0.68506000  1.0 0.1380258985
H  H127  1  0.76296000  0.28683000  0.77707000  1.0 0.1380258985
H  H128  1  0.00597000  0.61969000  0.67278000  1.0 0.0893015006
H  H129  1  0.90364000  0.49214000  0.67322000  1.0 0.1015425837
H  H130  1  0.50530000  0.04176000  0.84616000  1.0 0.1380258985
H  H131  1  0.21826000  0.74921000  0.71293000  1.0 0.1380258985
H  H132  1  0.19997000  0.78072000  0.70217000  1.0 0.1085330914
H  H133  1  0.98967000  0.57402000  0.60407000  1.0 0.0893015006
H  H134  1  0.95849000  0.49971000  0.61916000  1.0 0.0893015006
H  H135  1  0.18930000  0.74558000  0.62244000  1.0 0.1015425837
H  H136  1  0.15734000  0.66857000  0.63229000  1.0 0.1085330914
C  C1  1  0.56299000  0.82554000  0.68053000  1.0 -0.0188645986
C  C2  1  0.62214000  0.86376000  0.64530000  1.0 0.5999765553
C  C3  1  0.08998000  0.29903000  0.58601000  1.0 -0.0188645986
C  C4  1  0.38787000  0.52820000  0.62267000  1.0 0.6313626128
C  C5  1  0.19023000  0.37727000  0.61190000  1.0 -0.0942863938
C  C6  1  0.92024000  0.02974000  0.65038000  1.0 -0.01247591
C  C7  1  0.28379000  0.44974000  0.59333000  1.0 -0.0188645986
C  C8  1  0.02761000  0.06890000  0.68091000  1.0 -0.0188645986
C  C9  1  0.81784000  0.95389000  0.62093000  1.0 0.6313626128
C  C10  1  0.10801000  0.21415000  0.69736000  1.0 -0.0188645986
C  C11  1  0.01010000  0.14011000  0.67161000  1.0 -0.1096966038
C  C12  1  0.11655000  0.17835000  0.70150000  1.0 -0.0984457766
C  C13  1  0.40835000  0.68183000  0.72218000  1.0 -0.01247591
C  C14  1  0.61493000  0.90812000  0.70625000  1.0 -0.1157224183
C  C15  1  0.20808000  0.33529000  0.71957000  1.0 0.6131541389
C  C16  1  0.45768000  0.71120000  0.68808000  1.0 -0.0984457766
C  C17  1  0.29468000  0.55827000  0.73075000  1.0 0.639092553
C  C18  1  0.92848000  0.99363000  0.65551000  1.0 -0.0984457766
C  C19  1  0.46348000  0.76613000  0.74861000  1.0 -0.1096966038
C  C20  1  0.98746000  0.21847000  0.60553000  1.0 0.6313626128
C  C21  1  0.08234000  0.29126000  0.54140000  1.0 -0.0984457766
C  C22  1  0.68570000  0.01430000  0.58520000  1.0 -0.0545345186
C  C23  1  0.27743000  0.44448000  0.54871000  1.0 -0.0984457766
C  C24  1  0.52940000  0.83310000  0.55470000  1.0 -0.1311663878
C  C25  1  0.62120000  0.99400000  0.56320000  1.0 -0.1577782226
C  C26  1  0.15883000  0.34534000  0.47397000  1.0 0.6131541389
C  C27  1  0.17523000  0.36332000  0.52255000  1.0 -0.0188645986
C  C28  1  0.62491000  0.97100000  0.76711000  1.0 0.5999765553
C  C29  1  0.56511000  0.87864000  0.73995000  1.0 -0.0008105884
C  C30  1  0.04168000  0.03491000  0.68559000  1.0 0.5999765553
C  C31  1  0.49500000  0.85710000  0.54210000  1.0 -0.2091803444
C  C32  1  0.14501000  0.88246000  0.31947000  1.0 -0.0188645986
C  C33  1  0.21846000  0.97684000  0.35470000  1.0 0.5999765553
C  C34  1  0.71302000  0.50397000  0.41399000  1.0 -0.0188645986
C  C35  1  0.90553000  0.76520000  0.37733000  1.0 0.6313626128
C  C36  1  0.76537000  0.57833000  0.38810000  1.0 -0.0942863938
C  C37  1  0.37936000  0.26986000  0.34962000  1.0 -0.0188645986
C  C38  1  0.85641000  0.69046000  0.40667000  1.0 -0.0188645986
C  C39  1  0.38799000  0.34670000  0.31909000  1.0 -0.0188645986
C  C40  1  0.33296000  0.19691000  0.37907000  1.0 0.6313626128
C  C41  1  0.51679000  0.41065000  0.30264000  1.0 -0.0188645986
C  C42  1  0.46850000  0.33849000  0.32839000  1.0 -0.1096966038
C  C43  1  0.47685000  0.41505000  0.29850000  1.0 -0.0984457766
C  C44  1  0.95965000  0.68617000  0.27782000  1.0 -0.01247591
C  C45  1  0.20187000  0.90868000  0.29375000  1.0 -0.1157224183
C  C46  1  0.61572000  0.48851000  0.28043000  1.0 0.6131541389
C  C47  1  0.02312000  0.76960000  0.31192000  1.0 -0.0984457766
C  C48  1  0.82752000  0.56393000  0.26925000  1.0 0.639092553
C  C49  1  0.33812000  0.27297000  0.34449000  1.0 -0.0984457766
C  C50  1  0.01752000  0.71487000  0.25139000  1.0 -0.1096966038
C  C51  1  0.61294000  0.38193000  0.39447000  1.0 0.6313626128
C  C52  1  0.74986000  0.54094000  0.45860000  1.0 -0.0984457766
C  C53  1  0.42910000  0.10050000  0.41480000  1.0 -0.0545345186
C  C54  1  0.89577000  0.72872000  0.45129000  1.0 -0.0984457766
C  C55  1  0.27840000  0.97470000  0.44530000  1.0 -0.1311663878
C  C56  1  0.43080000  0.05800000  0.43680000  1.0 -0.1577782226
C  C57  1  0.87137000  0.68486000  0.52603000  1.0 0.6131541389
C  C58  1  0.84077000  0.65268000  0.47745000  1.0 -0.0188645986
C  C59  1  0.20389000  0.85780000  0.23289000  1.0 0.5999765553
C  C60  1  0.13869000  0.82516000  0.26005000  1.0 -0.0008105884
C  C61  1  0.34932000  0.35609000  0.31441000  1.0 0.5999765553
C  C62  1  0.31500000  0.95290000  0.45790000  1.0 -0.202547746
C  C63  1  0.13246000  0.31299000  0.23745000  1.0 -0.0188645986
C  C64  1  0.22684000  0.37214000  0.25838000  1.0 0.5999765553
C  C65  1  0.75397000  0.83998000  0.29095000  1.0 -0.0188645986
C  C66  1  0.01520000  0.13787000  0.35967000  1.0 0.6313626128
C  C67  1  0.82833000  0.94023000  0.31296000  1.0 -0.0942863938
C  C68  1  0.51986000  0.67024000  0.39050000  1.0 -0.0188645986
C  C69  1  0.94046000  0.03379000  0.33405000  1.0 -0.0188645986
C  C70  1  0.59670000  0.77761000  0.45871000  1.0 -0.0188645986
C  C71  1  0.44691000  0.56784000  0.36395000  1.0 0.6313626128
C  C72  1  0.66065000  0.85801000  0.39386000  1.0 -0.0188645986
C  C73  1  0.58849000  0.76010000  0.36999000  1.0 -0.1096966038
C  C74  1  0.66505000  0.86655000  0.43820000  1.0 -0.0984457766
C  C75  1  0.93617000  0.15835000  0.22652000  1.0 -0.01247591
C  C76  1  0.15868000  0.36493000  0.20681000  1.0 -0.1157224183
C  C77  1  0.73851000  0.95808000  0.37279000  1.0 0.6131541389
C  C78  1  0.01960000  0.20768000  0.24648000  1.0 -0.0984457766
C  C79  1  0.81393000  0.04468000  0.23641000  1.0 0.639092553
C  C80  1  0.52297000  0.67848000  0.43485000  1.0 -0.0984457766
C  C81  1  0.96487000  0.21348000  0.19735000  1.0 -0.1096966038
C  C82  1  0.63193000  0.73746000  0.26899000  1.0 0.6313626128
C  C83  1  0.79094000  0.83234000  0.29108000  1.0 -0.0984457766
C  C84  1  0.35050000  0.43570000  0.17140000  1.0 -0.0545345186
C  C85  1  0.97872000  0.02743000  0.33295000  1.0 -0.0984457766
C  C86  1  0.22470000  0.27940000  0.19630000  1.0 -0.1311663878
C  C87  1  0.30800000  0.37120000  0.12720000  1.0 -0.1577782226
C  C88  1  0.93486000  0.90883000  0.31349000  1.0 0.6131541389
C  C89  1  0.90268000  0.92523000  0.31191000  1.0 -0.0188645986
C  C90  1  0.10780000  0.37491000  0.15391000  1.0 0.5999765553
C  C91  1  0.07516000  0.31511000  0.18647000  1.0 -0.0008105884
C  C92  1  0.60609000  0.79168000  0.50677000  1.0 0.5999765553
C  C93  1  0.20290000  0.24500000  0.13790000  1.0 -0.202547746
C  C94  1  0.07554000  0.89501000  0.76255000  1.0 -0.0188645986
C  C95  1  0.11376000  0.96846000  0.74162000  1.0 0.5999765553
C  C96  1  0.54903000  0.46302000  0.70905000  1.0 -0.0188645986
C  C97  1  0.77820000  0.65553000  0.64033000  1.0 0.6313626128
C  C98  1  0.62727000  0.51537000  0.68704000  1.0 -0.0942863938
C  C99  1  0.27974000  0.12936000  0.60950000  1.0 -0.01247591
C  C100  1  0.69974000  0.60641000  0.66595000  1.0 -0.0188645986
C  C101  1  0.31890000  0.13799000  0.54129000  1.0 -0.0188645986
C  C102  1  0.20389000  0.08296000  0.63605000  1.0 0.6313626128
C  C103  1  0.46415000  0.26679000  0.60614000  1.0 -0.0188645986
C  C104  1  0.39011000  0.21850000  0.63001000  1.0 -0.1096966038
C  C105  1  0.42835000  0.22685000  0.56180000  1.0 -0.0984457766
C  C106  1  0.93183000  0.70965000  0.77348000  1.0 -0.01247591
C  C107  1  0.15812000  0.95187000  0.79319000  1.0 -0.1157224183
C  C108  1  0.58529000  0.36572000  0.62721000  1.0 0.6131541389
C  C109  1  0.96120000  0.77312000  0.75352000  1.0 -0.0984457766
C  C110  1  0.80827000  0.57752000  0.76359000  1.0 0.639092553
C  C111  1  0.24363000  0.08812000  0.56515000  1.0 -0.0984457766
C  C112  1  0.01613000  0.76752000  0.80265000  1.0 -0.1096966038
C  C113  1  0.46847000  0.36294000  0.73101000  1.0 0.6313626128
C  C114  1  0.54126000  0.49986000  0.70892000  1.0 -0.0984457766
C  C115  1  0.26430000  0.17910000  0.82860000  1.0 -0.0545345186
C  C116  1  0.69448000  0.64577000  0.66705000  1.0 -0.0984457766
C  C117  1  0.08310000  0.02840000  0.80370000  1.0 -0.1311663878
C  C118  1  0.24400000  0.18080000  0.87280000  1.0 -0.1577782226
C  C119  1  0.59534000  0.62137000  0.68651000  1.0 0.6131541389
C  C120  1  0.61332000  0.59077000  0.68809000  1.0 -0.0188645986
C  C121  1  0.22100000  0.95389000  0.84609000  1.0 0.5999765553
C  C122  1  0.12864000  0.88869000  0.81353000  1.0 -0.0008105884
C  C123  1  0.28491000  0.09932000  0.49323000  1.0 0.5999765553
C  C124  1  0.10710000  0.06500000  0.86210000  1.0 -0.202547746
C  C125  1  0.68701000  0.92446000  0.81947000  1.0 -0.0188645986
C  C126  1  0.62786000  0.88624000  0.85470000  1.0 0.5999765553
C  C127  1  0.16002000  0.45097000  0.91399000  1.0 -0.0188645986
C  C128  1  0.86213000  0.22180000  0.87733000  1.0 0.6313626128
C  C129  1  0.05977000  0.37273000  0.88810000  1.0 -0.0942863938
C  C130  1  0.32976000  0.72026000  0.84962000  1.0 -0.01247591
C  C131  1  0.96621000  0.30026000  0.90667000  1.0 -0.0188645986
C  C132  1  0.22239000  0.68110000  0.81909000  1.0 -0.0188645986
C  C133  1  0.43216000  0.79611000  0.87907000  1.0 0.6313626128
C  C134  1  0.14199000  0.53585000  0.80264000  1.0 -0.0188645986
C  C135  1  0.23990000  0.60989000  0.82839000  1.0 -0.1096966038
C  C136  1  0.13345000  0.57165000  0.79850000  1.0 -0.0984457766
C  C137  1  0.84165000  0.06817000  0.77782000  1.0 -0.01247591
C  C138  1  0.63507000  0.84188000  0.79375000  1.0 -0.1157224183
C  C139  1  0.04192000  0.41471000  0.78043000  1.0 0.6131541389
C  C140  1  0.79232000  0.03880000  0.81192000  1.0 -0.0984457766
C  C141  1  0.95532000  0.19173000  0.76925000  1.0 0.639092553
C  C142  1  0.32152000  0.75637000  0.84449000  1.0 -0.0984457766
C  C143  1  0.78652000  0.98387000  0.75139000  1.0 -0.1096966038
C  C144  1  0.26254000  0.53153000  0.89447000  1.0 0.6313626128
C  C145  1  0.16766000  0.45874000  0.95860000  1.0 -0.0984457766
C  C146  1  0.56430000  0.73570000  0.91480000  1.0 -0.0545345186
C  C147  1  0.97257000  0.30552000  0.95129000  1.0 -0.0984457766
C  C148  1  0.72060000  0.91690000  0.94530000  1.0 -0.1311663878
C  C149  1  0.62880000  0.75600000  0.93680000  1.0 -0.1577782226
C  C150  1  0.09117000  0.40466000  0.02603000  1.0 0.6131541389
C  C151  1  0.07477000  0.38668000  0.97745000  1.0 -0.0188645986
C  C152  1  0.62509000  0.77900000  0.73289000  1.0 0.5999765553
C  C153  1  0.68489000  0.87136000  0.76005000  1.0 -0.0008105884
C  C154  1  0.20832000  0.71509000  0.81441000  1.0 0.5999765553
C  C155  1  0.75500000  0.89290000  0.95790000  1.0 -0.202547746
C  C156  1  0.10499000  0.86754000  0.18053000  1.0 -0.0188645986
C  C157  1  0.03154000  0.77316000  0.14530000  1.0 0.5999765553
C  C158  1  0.53698000  0.24603000  0.08601000  1.0 -0.0188645986
C  C159  1  0.34447000  0.98480000  0.12267000  1.0 0.6313626128
C  C160  1  0.48463000  0.17167000  0.11190000  1.0 -0.0942863938
C  C161  1  0.87064000  0.48014000  0.15038000  1.0 -0.0188645986
C  C162  1  0.39359000  0.05954000  0.09333000  1.0 -0.0188645986
C  C163  1  0.86201000  0.40330000  0.18091000  1.0 -0.0188645986
C  C164  1  0.91704000  0.55309000  0.12093000  1.0 0.6313626128
C  C165  1  0.73321000  0.33935000  0.19736000  1.0 -0.0188645986
C  C166  1  0.78150000  0.41151000  0.17161000  1.0 -0.1096966038
C  C167  1  0.77315000  0.33495000  0.20150000  1.0 -0.0984457766
C  C168  1  0.29035000  0.06383000  0.22218000  1.0 -0.01247591
C  C169  1  0.04813000  0.84132000  0.20625000  1.0 -0.1157224183
C  C170  1  0.63428000  0.26149000  0.21957000  1.0 0.6131541389
C  C171  1  0.22688000  0.98040000  0.18808000  1.0 -0.0984457766
C  C172  1  0.42248000  0.18607000  0.23075000  1.0 0.639092553
C  C173  1  0.91188000  0.47703000  0.15551000  1.0 -0.0984457766
C  C174  1  0.23248000  0.03513000  0.24861000  1.0 -0.1096966038
C  C175  1  0.63706000  0.36807000  0.10553000  1.0 0.6313626128
C  C176  1  0.50014000  0.20906000  0.04140000  1.0 -0.0984457766
C  C177  1  0.82090000  0.64950000  0.08520000  1.0 -0.0545345186
C  C178  1  0.35423000  0.02128000  0.04871000  1.0 -0.0984457766
C  C179  1  0.97160000  0.77530000  0.05470000  1.0 -0.1311663878
C  C180  1  0.81920000  0.69200000  0.06320000  1.0 -0.1577782226
C  C181  1  0.37863000  0.06514000  0.97397000  1.0 0.6131541389
C  C182  1  0.40923000  0.09732000  0.02255000  1.0 -0.0188645986
C  C183  1  0.04611000  0.89220000  0.26711000  1.0 0.5999765553
C  C184  1  0.11131000  0.92484000  0.23995000  1.0 -0.0008105884
C  C185  1  0.90068000  0.39391000  0.18559000  1.0 0.5999765553
C  C186  1  0.93500000  0.79710000  0.04210000  1.0 -0.202547746
C  C187  1  0.11754000  0.43701000  0.26255000  1.0 -0.0188645986
C  C188  1  0.02316000  0.37786000  0.24162000  1.0 0.5999765553
C  C189  1  0.49603000  0.91002000  0.20905000  1.0 -0.0188645986
C  C190  1  0.23480000  0.61213000  0.14033000  1.0 0.6313626128
C  C191  1  0.42167000  0.80977000  0.18704000  1.0 -0.0942863938
C  C192  1  0.73014000  0.07976000  0.10950000  1.0 -0.0188645986
C  C193  1  0.30954000  0.71621000  0.16595000  1.0 -0.0188645986
C  C194  1  0.65330000  0.97239000  0.04129000  1.0 -0.0188645986
C  C195  1  0.80309000  0.18216000  0.13605000  1.0 0.6313626128
C  C196  1  0.58935000  0.89199000  0.10614000  1.0 -0.0188645986
C  C197  1  0.66151000  0.98990000  0.13001000  1.0 -0.1096966038
C  C198  1  0.58495000  0.88345000  0.06180000  1.0 -0.0984457766
C  C199  1  0.31383000  0.59165000  0.27348000  1.0 -0.01247591
C  C200  1  0.09132000  0.38507000  0.29319000  1.0 -0.1157224183
C  C201  1  0.51149000  0.79192000  0.12721000  1.0 0.6131541389
C  C202  1  0.23040000  0.54232000  0.25352000  1.0 -0.0984457766
C  C203  1  0.43607000  0.70532000  0.26359000  1.0 0.639092553
C  C204  1  0.72703000  0.07152000  0.06515000  1.0 -0.0984457766
C  C205  1  0.28513000  0.53652000  0.30265000  1.0 -0.1096966038
C  C206  1  0.61807000  0.01254000  0.23101000  1.0 0.6313626128
C  C207  1  0.45906000  0.91766000  0.20892000  1.0 -0.0984457766
C  C208  1  0.89950000  0.31430000  0.32860000  1.0 -0.0545345186
C  C209  1  0.27128000  0.72257000  0.16705000  1.0 -0.0984457766
C  C210  1  0.02530000  0.47060000  0.30370000  1.0 -0.1311663878
C  C211  1  0.94200000  0.37880000  0.37280000  1.0 -0.1577782226
C  C212  1  0.31514000  0.84117000  0.18651000  1.0 0.6131541389
C  C213  1  0.34732000  0.82477000  0.18809000  1.0 -0.0188645986
C  C214  1  0.14220000  0.37509000  0.34609000  1.0 0.5999765553
C  C215  1  0.17484000  0.43489000  0.31353000  1.0 -0.0008105884
C  C216  1  0.64391000  0.95832000  0.99323000  1.0 0.5999765553
C  C217  1  0.04710000  0.50500000  0.36210000  1.0 -0.202547746
C  C218  1  0.17446000  0.85499000  0.73745000  1.0 -0.0188645986
C  C219  1  0.13624000  0.78154000  0.75838000  1.0 0.5999765553
C  C220  1  0.70097000  0.28698000  0.79095000  1.0 -0.0188645986
C  C221  1  0.47180000  0.09447000  0.85967000  1.0 0.6313626128
C  C222  1  0.62273000  0.23463000  0.81296000  1.0 -0.0942863938
C  C223  1  0.97026000  0.62064000  0.89050000  1.0 -0.0188645986
C  C224  1  0.55026000  0.14359000  0.83405000  1.0 -0.0188645986
C  C225  1  0.93110000  0.61201000  0.95871000  1.0 -0.0188645986
C  C226  1  0.04611000  0.66704000  0.86395000  1.0 0.6313626128
C  C227  1  0.78585000  0.48321000  0.89386000  1.0 -0.0188645986
C  C228  1  0.85989000  0.53150000  0.86999000  1.0 -0.1096966038
C  C229  1  0.82165000  0.52315000  0.93820000  1.0 -0.0984457766
C  C230  1  0.31817000  0.04035000  0.72652000  1.0 -0.01247591
C  C231  1  0.09188000  0.79813000  0.70681000  1.0 -0.1157224183
C  C232  1  0.66471000  0.38428000  0.87279000  1.0 0.6131541389
C  C233  1  0.28880000  0.97688000  0.74648000  1.0 -0.0984457766
C  C234  1  0.44173000  0.17248000  0.73641000  1.0 0.639092553
C  C235  1  0.00637000  0.66188000  0.93485000  1.0 -0.0984457766
C  C236  1  0.23387000  0.98248000  0.69735000  1.0 -0.1096966038
C  C237  1  0.78153000  0.38706000  0.76899000  1.0 0.6313626128
C  C238  1  0.70874000  0.25014000  0.79108000  1.0 -0.0984457766
C  C239  1  0.98570000  0.57090000  0.67140000  1.0 -0.0545345186
C  C240  1  0.55552000  0.10423000  0.83295000  1.0 -0.0984457766
C  C241  1  0.16690000  0.72160000  0.69630000  1.0 -0.1311663878
C  C242  1  0.00600000  0.56920000  0.62720000  1.0 -0.1577782226
C  C243  1  0.65466000  0.12863000  0.81349000  1.0 0.6131541389
C  C244  1  0.63668000  0.15923000  0.81191000  1.0 -0.0188645986
C  C245  1  0.02900000  0.79611000  0.65391000  1.0 0.5999765553
C  C246  1  0.12136000  0.86131000  0.68647000  1.0 -0.0008105884
C  C247  1  0.96509000  0.65068000  0.00677000  1.0 0.5999765553
C  C248  1  0.14290000  0.68500000  0.63790000  1.0 -0.202547746
N  N1  1  0.65359000  0.94788000  0.56087000  1.0 -0.2379602981
N  N2  1  0.38701000  0.09272000  0.43913000  1.0 -0.2379602981
N  N3  1  0.34272000  0.40359000  0.20571000  1.0 -0.2379602981
N  N4  1  0.19788000  0.13701000  0.79429000  1.0 -0.2379602981
N  N5  1  0.59641000  0.80212000  0.93913000  1.0 -0.2379602981
N  N6  1  0.86299000  0.65728000  0.06087000  1.0 -0.2379602981
N  N7  1  0.90728000  0.34641000  0.29429000  1.0 -0.2379602981
N  N8  1  0.05212000  0.61299000  0.70571000  1.0 -0.2379602981
O  O1  1  0.48427000  0.61452000  0.61099000  1.0 -0.663528685
O  O2  1  0.99891000  0.23285000  0.64576000  1.0 -0.697783981
O  O3  1  0.89431000  0.14002000  0.57933000  1.0 -0.5423624856
O  O4  1  0.22038000  0.47676000  0.69914000  1.0 -0.6108071548
O  O5  1  0.83617000  0.00647000  0.60624000  1.0 -0.5593275991
O  O6  1  0.57132000  0.79196000  0.61608000  1.0 -0.5893701133
O  O7  1  0.72562000  0.97371000  0.64533000  1.0 -0.653235082
O  O8  1  0.72204000  0.84484000  0.61228000  1.0 -0.6720825774
O  O9  1  0.30358000  0.40493000  0.73431000  1.0 -0.5423624856
O  O10  1  0.19431000  0.36148000  0.72279000  1.0 -0.618285202
O  O11  1  0.36729000  0.49681000  0.65810000  1.0 -0.5693131727
O  O12  1  0.28215000  0.54607000  0.76962000  1.0 -0.7397762803
O  O13  1  0.23086000  0.39229000  0.45675000  1.0 -0.5893701133
O  O14  1  0.06900000  0.28078000  0.45418000  1.0 -0.5805596229
O  O15  1  0.58744000  0.94926000  0.79910000  1.0 -0.618285202
O  O16  1  0.71092000  0.06682000  0.75314000  1.0 -0.5593275991
O  O17  1  0.96492000  0.93916000  0.66548000  1.0 -0.6020100382
O  O18  1  0.13409000  0.10939000  0.71008000  1.0 -0.5511713442
O  O19  1  0.00353000  0.87328000  0.38901000  1.0 -0.663528685
O  O20  1  0.58709000  0.35315000  0.35424000  1.0 -0.697783981
O  O21  1  0.56069000  0.31498000  0.42067000  1.0 -0.5423624856
O  O22  1  0.77762000  0.52124000  0.30086000  1.0 -0.6108071548
O  O23  1  0.40023000  0.22993000  0.39376000  1.0 -0.5593275991
O  O24  1  0.17588000  0.95524000  0.38392000  1.0 -0.5893701133
O  O25  1  0.32838000  0.08029000  0.35467000  1.0 -0.653235082
O  O26  1  0.23256000  0.10976000  0.38772000  1.0 -0.6720825774
O  O27  1  0.67062000  0.56927000  0.26569000  1.0 -0.5423624856
O  O28  1  0.63869000  0.47152000  0.27721000  1.0 -0.618285202
O  O29  1  0.83871000  0.70919000  0.34190000  1.0 -0.5693131727
O  O30  1  0.77645000  0.51253000  0.23038000  1.0 -0.7397762803
O  O31  1  0.93554000  0.77411000  0.54325000  1.0 -0.5893701133
O  O32  1  0.82660000  0.61482000  0.54582000  1.0 -0.5805596229
O  O33  1  0.15016000  0.78834000  0.20090000  1.0 -0.618285202
O  O34  1  0.31368000  0.95778000  0.24686000  1.0 -0.5593275991
O  O35  1  0.27368000  0.29944000  0.33452000  1.0 -0.6020100382
O  O36  1  0.39931000  0.42401000  0.28992000  1.0 -0.5511713442
O  O37  1  0.12328000  0.23427000  0.36975000  1.0 -0.663528685
O  O38  1  0.60315000  0.74891000  0.26606000  1.0 -0.697783981
O  O39  1  0.56498000  0.64431000  0.25429000  1.0 -0.5423624856
O  O40  1  0.77124000  0.97038000  0.24362000  1.0 -0.6108071548
O  O41  1  0.47993000  0.58617000  0.32970000  1.0 -0.5593275991
O  O42  1  0.20524000  0.32132000  0.27936000  1.0 -0.5893701133
O  O43  1  0.33029000  0.47562000  0.25191000  1.0 -0.653235082
O  O44  1  0.35976000  0.47204000  0.37720000  1.0 -0.6720825774
O  O45  1  0.81927000  0.05358000  0.39865000  1.0 -0.5423624856
O  O46  1  0.72152000  0.94431000  0.33283000  1.0 -0.618285202
O  O47  1  0.95919000  0.11729000  0.37048000  1.0 -0.5693131727
O  O48  1  0.76253000  0.03215000  0.23608000  1.0 -0.7397762803
O  O49  1  0.02411000  0.98086000  0.33857000  1.0 -0.5893701133
O  O50  1  0.86482000  0.81900000  0.28822000  1.0 -0.5805596229
O  O51  1  0.03834000  0.33744000  0.13818000  1.0 -0.618285202
O  O52  1  0.20778000  0.46092000  0.14410000  1.0 -0.5593275991
O  O53  1  0.54944000  0.71492000  0.52576000  1.0 -0.6020100382
O  O54  1  0.67401000  0.88409000  0.52470000  1.0 -0.5511713442
O  O55  1  0.86452000  0.75353000  0.63025000  1.0 -0.663528685
O  O56  1  0.48285000  0.33709000  0.73394000  1.0 -0.697783981
O  O57  1  0.39002000  0.31069000  0.74571000  1.0 -0.5423624856
O  O58  1  0.72676000  0.52762000  0.75638000  1.0 -0.6108071548
O  O59  1  0.25647000  0.15023000  0.67030000  1.0 -0.5593275991
O  O60  1  0.04196000  0.92588000  0.72064000  1.0 -0.5893701133
O  O61  1  0.22371000  0.07838000  0.74809000  1.0 -0.653235082
O  O62  1  0.09484000  0.98256000  0.62280000  1.0 -0.6720825774
O  O63  1  0.65493000  0.42062000  0.60135000  1.0 -0.5423624856
O  O64  1  0.61148000  0.38869000  0.66717000  1.0 -0.618285202
O  O65  1  0.74681000  0.58871000  0.62952000  1.0 -0.5693131727
O  O66  1  0.79607000  0.52645000  0.76392000  1.0 -0.7397762803
O  O67  1  0.64229000  0.68554000  0.66143000  1.0 -0.5893701133
O  O68  1  0.53078000  0.57660000  0.71178000  1.0 -0.5805596229
O  O69  1  0.19926000  0.90016000  0.86182000  1.0 -0.618285202
O  O70  1  0.31682000  0.06368000  0.85590000  1.0 -0.5593275991
O  O71  1  0.18916000  0.02368000  0.47424000  1.0 -0.6020100382
O  O72  1  0.35939000  0.14931000  0.47530000  1.0 -0.5511713442
O  O73  1  0.76573000  0.13548000  0.88901000  1.0 -0.663528685
O  O74  1  0.25109000  0.51715000  0.85424000  1.0 -0.697783981
O  O75  1  0.35569000  0.60998000  0.92067000  1.0 -0.5423624856
O  O76  1  0.02962000  0.27324000  0.80086000  1.0 -0.6108071548
O  O77  1  0.41383000  0.74353000  0.89376000  1.0 -0.5593275991
O  O78  1  0.67868000  0.95804000  0.88392000  1.0 -0.5893701133
O  O79  1  0.52438000  0.77629000  0.85467000  1.0 -0.653235082
O  O80  1  0.52796000  0.90516000  0.88772000  1.0 -0.6720825774
O  O81  1  0.94642000  0.34507000  0.76569000  1.0 -0.5423624856
O  O82  1  0.05569000  0.38852000  0.77721000  1.0 -0.618285202
O  O83  1  0.88271000  0.25319000  0.84190000  1.0 -0.5693131727
O  O84  1  0.96785000  0.20393000  0.73038000  1.0 -0.7397762803
O  O85  1  0.01914000  0.35771000  0.04325000  1.0 -0.5893701133
O  O86  1  0.18100000  0.46922000  0.04582000  1.0 -0.5805596229
O  O87  1  0.66256000  0.80074000  0.70090000  1.0 -0.618285202
O  O88  1  0.53908000  0.68318000  0.74686000  1.0 -0.5593275991
O  O89  1  0.28508000  0.81084000  0.83452000  1.0 -0.6020100382
O  O90  1  0.11591000  0.64061000  0.78992000  1.0 -0.5511713442
O  O91  1  0.24647000  0.87672000  0.11099000  1.0 -0.663528685
O  O92  1  0.66291000  0.39685000  0.14576000  1.0 -0.697783981
O  O93  1  0.68931000  0.43502000  0.07933000  1.0 -0.5423624856
O  O94  1  0.47238000  0.22876000  0.19914000  1.0 -0.6108071548
O  O95  1  0.84977000  0.52007000  0.10624000  1.0 -0.5593275991
O  O96  1  0.07412000  0.79476000  0.11608000  1.0 -0.5893701133
O  O97  1  0.92162000  0.66971000  0.14533000  1.0 -0.653235082
O  O98  1  0.01744000  0.64024000  0.11228000  1.0 -0.6720825774
O  O99  1  0.57938000  0.18073000  0.23431000  1.0 -0.5423624856
O  O100  1  0.61131000  0.27848000  0.22279000  1.0 -0.618285202
O  O101  1  0.41129000  0.04081000  0.15810000  1.0 -0.5693131727
O  O102  1  0.47355000  0.23747000  0.26962000  1.0 -0.7397762803
O  O103  1  0.31446000  0.97589000  0.95675000  1.0 -0.5893701133
O  O104  1  0.42340000  0.13518000  0.95418000  1.0 -0.5805596229
O  O105  1  0.09984000  0.96166000  0.29910000  1.0 -0.618285202
O  O106  1  0.93632000  0.79222000  0.25314000  1.0 -0.5593275991
O  O107  1  0.97632000  0.45056000  0.16548000  1.0 -0.6020100382
O  O108  1  0.85069000  0.32599000  0.21008000  1.0 -0.5511713442
O  O109  1  0.12672000  0.51573000  0.13025000  1.0 -0.663528685
O  O110  1  0.64685000  0.00109000  0.23394000  1.0 -0.697783981
O  O111  1  0.68502000  0.10569000  0.24571000  1.0 -0.5423624856
O  O112  1  0.47876000  0.77962000  0.25638000  1.0 -0.6108071548
O  O113  1  0.77007000  0.16383000  0.17030000  1.0 -0.5593275991
O  O114  1  0.04476000  0.42868000  0.22064000  1.0 -0.5893701133
O  O115  1  0.91971000  0.27438000  0.24809000  1.0 -0.653235082
O  O116  1  0.89024000  0.27796000  0.12280000  1.0 -0.6720825774
O  O117  1  0.43073000  0.69642000  0.10135000  1.0 -0.5423624856
O  O118  1  0.52848000  0.80569000  0.16717000  1.0 -0.618285202
O  O119  1  0.29081000  0.63271000  0.12952000  1.0 -0.5693131727
O  O120  1  0.48747000  0.71785000  0.26392000  1.0 -0.7397762803
O  O121  1  0.22589000  0.76914000  0.16143000  1.0 -0.5893701133
O  O122  1  0.38518000  0.93100000  0.21178000  1.0 -0.5805596229
O  O123  1  0.21166000  0.41256000  0.36182000  1.0 -0.618285202
O  O124  1  0.04222000  0.28908000  0.35590000  1.0 -0.5593275991
O  O125  1  0.70056000  0.03508000  0.97424000  1.0 -0.6020100382
O  O126  1  0.57599000  0.86591000  0.97530000  1.0 -0.5511713442
O  O127  1  0.38548000  0.99647000  0.86975000  1.0 -0.663528685
O  O128  1  0.76715000  0.41291000  0.76606000  1.0 -0.697783981
O  O129  1  0.85998000  0.43931000  0.75429000  1.0 -0.5423624856
O  O130  1  0.52324000  0.22238000  0.74362000  1.0 -0.6108071548
O  O131  1  0.99353000  0.59977000  0.82970000  1.0 -0.5593275991
O  O132  1  0.20804000  0.82412000  0.77936000  1.0 -0.5893701133
O  O133  1  0.02629000  0.67162000  0.75191000  1.0 -0.653235082
O  O134  1  0.15516000  0.76744000  0.87720000  1.0 -0.6720825774
O  O135  1  0.59507000  0.32938000  0.89865000  1.0 -0.5423624856
O  O136  1  0.63852000  0.36131000  0.83283000  1.0 -0.618285202
O  O137  1  0.50319000  0.16129000  0.87048000  1.0 -0.5693131727
O  O138  1  0.45393000  0.22355000  0.73608000  1.0 -0.7397762803
O  O139  1  0.60771000  0.06446000  0.83857000  1.0 -0.5893701133
O  O140  1  0.71922000  0.17340000  0.78822000  1.0 -0.5805596229
O  O141  1  0.05074000  0.84984000  0.63818000  1.0 -0.618285202
O  O142  1  0.93318000  0.68632000  0.64410000  1.0 -0.5593275991
O  O143  1  0.06084000  0.72632000  0.02576000  1.0 -0.6020100382
O  O144  1  0.89061000  0.60069000  0.02470000  1.0 -0.5511713442
