# DDEC6 charges by PACMAN v1.1 (https://github.com/mtap-research/PACMAN-charge/)
data_IZEVAN_ASR_pacman
_symmetry_space_group_name_H-M   'P 1'
_cell_length_a   31.51350000
_cell_length_b   31.51350000
_cell_length_c   31.51350000
_cell_angle_alpha   92.01070000
_cell_angle_beta   92.01070000
_cell_angle_gamma   158.40800000
_symmetry_Int_Tables_number   1
_chemical_formula_structural   Li4Co2H9(C3O2)9
_chemical_formula_sum   'Li32 Co16 H72 C216 O144'
_cell_volume   11312.94758780
_cell_formula_units_Z   8
loop_
 _symmetry_equiv_pos_site_id
 _symmetry_equiv_pos_as_xyz
  1  'x, y, z'
loop_
 _atom_site_type_symbol
 _atom_site_label
 _atom_site_symmetry_multiplicity
 _atom_site_fract_x
 _atom_site_fract_y
 _atom_site_fract_z
 _atom_site_occupancy
 _atom_site_charge
Li  Li1  1  0.17105000  0.50697000  0.91200000  1.0 0.8215761284
Li  Li2  1  0.12073000  0.51908000  0.84779000  1.0 0.8215761284
Li  Li3  1  0.37784000  0.63889000  0.67691000  1.0 0.8140332153
Li  Li4  1  0.60336000  0.82613000  0.70407000  1.0 0.8215761284
Li  Li5  1  0.59497000  0.25905000  0.08800000  1.0 0.8215761284
Li  Li6  1  0.67129000  0.27294000  0.15221000  1.0 0.8215761284
Li  Li7  1  0.96198000  0.70093000  0.32309000  1.0 0.8140332153
Li  Li8  1  0.12206000  0.89929000  0.29593000  1.0 0.8215761284
Li  Li9  1  0.50905000  0.92105000  0.16408000  1.0 0.8215761284
Li  Li10  1  0.52294000  0.87073000  0.10165000  1.0 0.8215761284
Li  Li11  1  0.95093000  0.12784000  0.23895000  1.0 0.8140332153
Li  Li12  1  0.14929000  0.35336000  0.27723000  1.0 0.8215761284
Li  Li13  1  0.75697000  0.34497000  0.83592000  1.0 0.8215761284
Li  Li14  1  0.76908000  0.42129000  0.89835000  1.0 0.8215761284
Li  Li15  1  0.88889000  0.71198000  0.76105000  1.0 0.8140332153
Li  Li16  1  0.07613000  0.87206000  0.72277000  1.0 0.8215761284
Li  Li17  1  0.07895000  0.24303000  0.58800000  1.0 0.8215761284
Li  Li18  1  0.12927000  0.23092000  0.65221000  1.0 0.8215761284
Li  Li19  1  0.87216000  0.11111000  0.82309000  1.0 0.8140332153
Li  Li20  1  0.64664000  0.92387000  0.79593000  1.0 0.8215761284
Li  Li21  1  0.65503000  0.49095000  0.41200000  1.0 0.8215761284
Li  Li22  1  0.57871000  0.47706000  0.34779000  1.0 0.8215761284
Li  Li23  1  0.28802000  0.04907000  0.17691000  1.0 0.8140332153
Li  Li24  1  0.12794000  0.85071000  0.20407000  1.0 0.8215761284
Li  Li25  1  0.74095000  0.82895000  0.33592000  1.0 0.8215761284
Li  Li26  1  0.72706000  0.87927000  0.39835000  1.0 0.8215761284
Li  Li27  1  0.29907000  0.62216000  0.26105000  1.0 0.8140332153
Li  Li28  1  0.10071000  0.39664000  0.22277000  1.0 0.8215761284
Li  Li29  1  0.49303000  0.40503000  0.66408000  1.0 0.8215761284
Li  Li30  1  0.48092000  0.32871000  0.60165000  1.0 0.8215761284
Li  Li31  1  0.36111000  0.03802000  0.73895000  1.0 0.8140332153
Li  Li32  1  0.17387000  0.87794000  0.77723000  1.0 0.8215761284
Co  Co1  1  0.00864000  0.28077000  0.91665000  1.0 1.0164039185
Co  Co2  1  0.29732000  0.69410000  0.78596000  1.0 1.0081416716
Co  Co3  1  0.36412000  0.09199000  0.08335000  1.0 1.0164039185
Co  Co4  1  0.90814000  0.51136000  0.21404000  1.0 1.0081416716
Co  Co5  1  0.34199000  0.75864000  0.22787000  1.0 1.0164039185
Co  Co6  1  0.76136000  0.04732000  0.10322000  1.0 1.0081416716
Co  Co7  1  0.53077000  0.11412000  0.77213000  1.0 1.0164039185
Co  Co8  1  0.94410000  0.65814000  0.89678000  1.0 1.0081416716
Co  Co9  1  0.24136000  0.46923000  0.58335000  1.0 1.0164039185
Co  Co10  1  0.95268000  0.05590000  0.71404000  1.0 1.0081416716
Co  Co11  1  0.88588000  0.65801000  0.41665000  1.0 1.0164039185
Co  Co12  1  0.34186000  0.23864000  0.28596000  1.0 1.0081416716
Co  Co13  1  0.90801000  0.99136000  0.27213000  1.0 1.0164039185
Co  Co14  1  0.48864000  0.70268000  0.39678000  1.0 1.0081416716
Co  Co15  1  0.71923000  0.63588000  0.72787000  1.0 1.0164039185
Co  Co16  1  0.30590000  0.09186000  0.60322000  1.0 1.0081416716
H  H1  1  0.55241000  0.86683000  0.85782000  1.0 0.1206212413
H  H2  1  0.32891000  0.59442000  0.82995000  1.0 0.1391989817
H  H3  1  0.40931000  0.75877000  0.96254000  1.0 0.1391989817
H  H4  1  0.06567000  0.26454000  0.79905000  1.0 0.1206212413
H  H5  1  0.31911000  0.50323000  0.72828000  1.0 0.1342510035
H  H6  1  0.73475000  0.01347000  0.97544000  1.0 0.1391989817
H  H7  1  0.02549000  0.30872000  0.04495000  1.0 0.1391989817
H  H8  1  0.26934000  0.62747000  0.05073000  1.0 0.1391989817
H  H9  1  0.16209000  0.49243000  0.15894000  1.0 0.1206212413
H  H10  1  0.00901000  0.69459000  0.14218000  1.0 0.1206212413
H  H11  1  0.76447000  0.49896000  0.17005000  1.0 0.1391989817
H  H12  1  0.79623000  0.44677000  0.03746000  1.0 0.1391989817
H  H13  1  0.46549000  0.26663000  0.20095000  1.0 0.1206212413
H  H14  1  0.77495000  0.59083000  0.27172000  1.0 0.1342510035
H  H15  1  0.03803000  0.75931000  0.02456000  1.0 0.1391989817
H  H16  1  0.26377000  0.98054000  0.95505000  1.0 0.1391989817
H  H17  1  0.57674000  0.21861000  0.94927000  1.0 0.1391989817
H  H18  1  0.33349000  0.00315000  0.84106000  1.0 0.1206212413
H  H19  1  0.94459000  0.30241000  0.18558000  1.0 0.1206212413
H  H20  1  0.74896000  0.07891000  0.23449000  1.0 0.1391989817
H  H21  1  0.69677000  0.15931000  0.15054000  1.0 0.1391989817
H  H22  1  0.51663000  0.81567000  0.30113000  1.0 0.1206212413
H  H23  1  0.84083000  0.06911000  0.31588000  1.0 0.1342510035
H  H24  1  0.00931000  0.48475000  0.22128000  1.0 0.1391989817
H  H25  1  0.23054000  0.77549000  0.21677000  1.0 0.1391989817
H  H26  1  0.46861000  0.01934000  0.14187000  1.0 0.1391989817
H  H27  1  0.25315000  0.91209000  0.16966000  1.0 0.1206212413
H  H28  1  0.11683000  0.75901000  0.81442000  1.0 0.1206212413
H  H29  1  0.84442000  0.51447000  0.76551000  1.0 0.1391989817
H  H30  1  0.00877000  0.54623000  0.84946000  1.0 0.1391989817
H  H31  1  0.51454000  0.21549000  0.69887000  1.0 0.1206212413
H  H32  1  0.75323000  0.52495000  0.68412000  1.0 0.1342510035
H  H33  1  0.26347000  0.78803000  0.77872000  1.0 0.1391989817
H  H34  1  0.55872000  0.01377000  0.78323000  1.0 0.1391989817
H  H35  1  0.87747000  0.32674000  0.85813000  1.0 0.1391989817
H  H36  1  0.74243000  0.08349000  0.83034000  1.0 0.1206212413
H  H37  1  0.69759000  0.88317000  0.64218000  1.0 0.1206212413
H  H38  1  0.92109000  0.15558000  0.67005000  1.0 0.1391989817
H  H39  1  0.84069000  0.99123000  0.53746000  1.0 0.1391989817
H  H40  1  0.18433000  0.48546000  0.70095000  1.0 0.1206212413
H  H41  1  0.93089000  0.24677000  0.77172000  1.0 0.1342510035
H  H42  1  0.51525000  0.73653000  0.52456000  1.0 0.1391989817
H  H43  1  0.22451000  0.44128000  0.45505000  1.0 0.1391989817
H  H44  1  0.98066000  0.12253000  0.44927000  1.0 0.1391989817
H  H45  1  0.08791000  0.25757000  0.34106000  1.0 0.1206212413
H  H46  1  0.24099000  0.05541000  0.35782000  1.0 0.1206212413
H  H47  1  0.48553000  0.25104000  0.32995000  1.0 0.1391989817
H  H48  1  0.45377000  0.30323000  0.46254000  1.0 0.1391989817
H  H49  1  0.78451000  0.48337000  0.29905000  1.0 0.1206212413
H  H50  1  0.47505000  0.15917000  0.22828000  1.0 0.1342510035
H  H51  1  0.21197000  0.99069000  0.47544000  1.0 0.1391989817
H  H52  1  0.98623000  0.76946000  0.54495000  1.0 0.1391989817
H  H53  1  0.67326000  0.53139000  0.55073000  1.0 0.1391989817
H  H54  1  0.91651000  0.74685000  0.65894000  1.0 0.1206212413
H  H55  1  0.30541000  0.44759000  0.31442000  1.0 0.1206212413
H  H56  1  0.50104000  0.67109000  0.26551000  1.0 0.1391989817
H  H57  1  0.55323000  0.59069000  0.34946000  1.0 0.1391989817
H  H58  1  0.73337000  0.93433000  0.19887000  1.0 0.1206212413
H  H59  1  0.40917000  0.68089000  0.18412000  1.0 0.1342510035
H  H60  1  0.24069000  0.26525000  0.27872000  1.0 0.1391989817
H  H61  1  0.01946000  0.97451000  0.28323000  1.0 0.1391989817
H  H62  1  0.78139000  0.73066000  0.35813000  1.0 0.1391989817
H  H63  1  0.99685000  0.83791000  0.33034000  1.0 0.1206212413
H  H64  1  0.13317000  0.99099000  0.68558000  1.0 0.1206212413
H  H65  1  0.40558000  0.23553000  0.73449000  1.0 0.1391989817
H  H66  1  0.24123000  0.20377000  0.65054000  1.0 0.1391989817
H  H67  1  0.73546000  0.53451000  0.80113000  1.0 0.1206212413
H  H68  1  0.49677000  0.22505000  0.81588000  1.0 0.1342510035
H  H69  1  0.98653000  0.96197000  0.72128000  1.0 0.1391989817
H  H70  1  0.69128000  0.73623000  0.71677000  1.0 0.1391989817
H  H71  1  0.37253000  0.42326000  0.64187000  1.0 0.1391989817
H  H72  1  0.50757000  0.66651000  0.66966000  1.0 0.1206212413
C  C1  1  0.36113000  0.72255000  0.87606000  1.0 0.6383070102
C  C2  1  0.12579000  0.38294000  0.85451000  1.0 0.6233798688
C  C3  1  0.65877000  0.95174000  0.91329000  1.0 -0.0177503759
C  C4  1  0.34150000  0.56764000  0.77812000  1.0 -0.0177503759
C  C5  1  0.18659000  0.42289000  0.81966000  1.0 -0.0266963364
C  C6  1  0.55822000  0.87285000  0.88765000  1.0 -0.0919236444
C  C7  1  0.46500000  0.80186000  0.90584000  1.0 -0.0266963364
C  C8  1  0.29204000  0.53802000  0.81224000  1.0 -0.0993206532
C  C9  1  0.47240000  0.80828000  0.95026000  1.0 -0.0993206532
C  C10  1  0.13486000  0.34070000  0.79374000  1.0 -0.1090311125
C  C11  1  0.13470000  0.45083000  0.99231000  1.0 0.6114955023
C  C12  1  0.28713000  0.48370000  0.75161000  1.0 -0.1090311125
C  C13  1  0.66695000  0.96003000  0.95796000  1.0 -0.0919236444
C  C14  1  0.07631000  0.37581000  0.06110000  1.0 -0.0993206532
C  C15  1  0.76070000  0.03007000  0.89395000  1.0 0.6548122814
C  C16  1  0.14512000  0.46573000  0.04083000  1.0 -0.0177503759
C  C17  1  0.45534000  0.69162000  0.76914000  1.0 0.6383070102
C  C18  1  0.22173000  0.56663000  0.06434000  1.0 -0.0993206532
C  C19  1  0.57419000  0.88876000  0.97653000  1.0 -0.0177503759
C  C20  1  0.58901000  0.90454000  0.02513000  1.0 0.6114955023
C  C21  1  0.18474000  0.37060000  0.76032000  1.0 -0.0058464069
C  C22  1  0.12663000  0.27934000  0.73335000  1.0 0.5970822474
C  C23  1  0.08400000  0.38682000  0.10540000  1.0 -0.0177503759
C  C24  1  0.22595000  0.57511000  0.10904000  1.0 -0.0177503759
C  C25  1  0.15800000  0.48583000  0.12921000  1.0 -0.1090311125
C  C26  1  0.30133000  0.67892000  0.13583000  1.0 0.6335018923
C  C27  1  0.00905000  0.28813000  0.12696000  1.0 0.6114955023
C  C28  1  0.84649000  0.48507000  0.12394000  1.0 0.6383070102
C  C29  1  0.52843000  0.27128000  0.14549000  1.0 0.6233798688
C  C30  1  0.03845000  0.74548000  0.08671000  1.0 -0.0177503759
C  C31  1  0.78952000  0.56338000  0.22188000  1.0 -0.0177503759
C  C32  1  0.60323000  0.36693000  0.18034000  1.0 -0.0266963364
C  C33  1  0.98520000  0.67057000  0.11235000  1.0 -0.0919236444
C  C34  1  0.89602000  0.55916000  0.09416000  1.0 -0.0266963364
C  C35  1  0.72578000  0.47980000  0.18776000  1.0 -0.0993206532
C  C36  1  0.85802000  0.52214000  0.04974000  1.0 -0.0993206532
C  C37  1  0.54696000  0.34112000  0.20626000  1.0 -0.1090311125
C  C38  1  0.45852000  0.14239000  0.00769000  1.0 0.6114955023
C  C39  1  0.73209000  0.53552000  0.24839000  1.0 -0.1090311125
C  C40  1  0.00207000  0.70899000  0.04204000  1.0 -0.0919236444
C  C41  1  0.31471000  0.01521000  0.93890000  1.0 -0.0993206532
C  C42  1  0.13612000  0.86675000  0.10605000  1.0 0.6548122814
C  C43  1  0.42490000  0.10429000  0.95917000  1.0 -0.0177503759
C  C44  1  0.92248000  0.68620000  0.23086000  1.0 0.6383070102
C  C45  1  0.50229000  0.15739000  0.93566000  1.0 -0.0993206532
C  C46  1  0.91223000  0.59766000  0.02347000  1.0 -0.0177503759
C  C47  1  0.87941000  0.56388000  0.97487000  1.0 0.6114955023
C  C48  1  0.61028000  0.42442000  0.23968000  1.0 -0.0058464069
C  C49  1  0.54599000  0.39328000  0.26665000  1.0 0.5970822474
C  C50  1  0.28142000  0.97860000  0.89460000  1.0 -0.0177503759
C  C51  1  0.46607000  0.11691000  0.89096000  1.0 -0.0177503759
C  C52  1  0.35662000  0.02879000  0.87079000  1.0 -0.1090311125
C  C53  1  0.54309000  0.16550000  0.86417000  1.0 0.6335018923
C  C54  1  0.16117000  0.88209000  0.87304000  1.0 0.6114955023
C  C55  1  0.73507000  0.11113000  0.13858000  1.0 0.6383070102
C  C56  1  0.52128000  0.87579000  0.24285000  1.0 0.6233798688
C  C57  1  0.99548000  0.40877000  0.20703000  1.0 -0.0177503759
C  C58  1  0.81338000  0.09150000  0.27386000  1.0 -0.0177503759
C  C59  1  0.61693000  0.93659000  0.26370000  1.0 -0.0266963364
C  C60  1  0.92057000  0.30822000  0.18537000  1.0 -0.0919236444
C  C61  1  0.80916000  0.21500000  0.16314000  1.0 -0.0266963364
C  C62  1  0.72980000  0.04204000  0.25402000  1.0 -0.0993206532
C  C63  1  0.77214000  0.22240000  0.16412000  1.0 -0.0993206532
C  C64  1  0.59112000  0.88486000  0.29416000  1.0 -0.1090311125
C  C65  1  0.39239000  0.88470000  0.18387000  1.0 0.6114955023
C  C66  1  0.78552000  0.03713000  0.30343000  1.0 -0.1090311125
C  C67  1  0.95899000  0.41695000  0.20692000  1.0 -0.0919236444
C  C68  1  0.26521000  0.82631000  0.20050000  1.0 -0.0993206532
C  C69  1  0.11675000  0.51070000  0.23063000  1.0 0.6548122814
C  C70  1  0.35429000  0.89512000  0.17939000  1.0 -0.0177503759
C  C71  1  0.93620000  0.20534000  0.26372000  1.0 0.6383070102
C  C72  1  0.40739000  0.97173000  0.15510000  1.0 -0.0993206532
C  C73  1  0.84766000  0.32419000  0.18543000  1.0 -0.0177503759
C  C74  1  0.81388000  0.33901000  0.18447000  1.0 0.6114955023
C  C75  1  0.67442000  0.93474000  0.31414000  1.0 -0.0058464069
C  C76  1  0.64328000  0.87663000  0.34729000  1.0 0.5970822474
C  C77  1  0.22860000  0.83400000  0.19718000  1.0 -0.0177503759
C  C78  1  0.36691000  0.97595000  0.15084000  1.0 -0.0177503759
C  C79  1  0.27879000  0.90800000  0.17217000  1.0 -0.1090311125
C  C80  1  0.41550000  0.05133000  0.12241000  1.0 0.6335018923
C  C81  1  0.13209000  0.75905000  0.22092000  1.0 0.6114955023
C  C82  1  0.97255000  0.59649000  0.86142000  1.0 0.6383070102
C  C83  1  0.63294000  0.27843000  0.75715000  1.0 0.6233798688
C  C84  1  0.20174000  0.78845000  0.79297000  1.0 -0.0177503759
C  C85  1  0.81764000  0.53952000  0.72614000  1.0 -0.0177503759
C  C86  1  0.67289000  0.35323000  0.73630000  1.0 -0.0266963364
C  C87  1  0.12285000  0.73520000  0.81463000  1.0 -0.0919236444
C  C88  1  0.05186000  0.64602000  0.83686000  1.0 -0.0266963364
C  C89  1  0.78802000  0.47578000  0.74598000  1.0 -0.0993206532
C  C90  1  0.05828000  0.60802000  0.83588000  1.0 -0.0993206532
C  C91  1  0.59070000  0.29696000  0.70584000  1.0 -0.1090311125
C  C92  1  0.70083000  0.20852000  0.81613000  1.0 0.6114955023
C  C93  1  0.73370000  0.48209000  0.69657000  1.0 -0.1090311125
C  C94  1  0.21003000  0.75207000  0.79308000  1.0 -0.0919236444
C  C95  1  0.62581000  0.06471000  0.79950000  1.0 -0.0993206532
C  C96  1  0.28007000  0.88612000  0.76937000  1.0 0.6548122814
C  C97  1  0.71573000  0.17490000  0.82061000  1.0 -0.0177503759
C  C98  1  0.94162000  0.67248000  0.73628000  1.0 0.6383070102
C  C99  1  0.81663000  0.25229000  0.84490000  1.0 -0.0993206532
C  C100  1  0.13876000  0.66223000  0.81457000  1.0 -0.0177503759
C  C101  1  0.15454000  0.62941000  0.81553000  1.0 0.6114955023
C  C102  1  0.62060000  0.36028000  0.68586000  1.0 -0.0058464069
C  C103  1  0.52934000  0.29599000  0.65271000  1.0 0.5970822474
C  C104  1  0.63682000  0.03142000  0.80282000  1.0 -0.0177503759
C  C105  1  0.82511000  0.21607000  0.84916000  1.0 -0.0177503759
C  C106  1  0.73583000  0.10662000  0.82783000  1.0 -0.1090311125
C  C107  1  0.92892000  0.29309000  0.87759000  1.0 0.6335018923
C  C108  1  0.53813000  0.91117000  0.77908000  1.0 0.6114955023
C  C109  1  0.88887000  0.02745000  0.62394000  1.0 0.6383070102
C  C110  1  0.12421000  0.36706000  0.64549000  1.0 0.6233798688
C  C111  1  0.59123000  0.79826000  0.58671000  1.0 -0.0177503759
C  C112  1  0.90850000  0.18236000  0.72188000  1.0 -0.0177503759
C  C113  1  0.06341000  0.32711000  0.68034000  1.0 -0.0266963364
C  C114  1  0.69178000  0.87715000  0.61235000  1.0 -0.0919236444
C  C115  1  0.78500000  0.94814000  0.59416000  1.0 -0.0266963364
C  C116  1  0.95796000  0.21198000  0.68776000  1.0 -0.0993206532
C  C117  1  0.77760000  0.94172000  0.54974000  1.0 -0.0993206532
C  C118  1  0.11514000  0.40930000  0.70626000  1.0 -0.1090311125
C  C119  1  0.11530000  0.29917000  0.50769000  1.0 0.6114955023
C  C120  1  0.96287000  0.26630000  0.74839000  1.0 -0.1090311125
C  C121  1  0.58305000  0.78997000  0.54204000  1.0 -0.0919236444
C  C122  1  0.17369000  0.37419000  0.43890000  1.0 -0.0993206532
C  C123  1  0.48930000  0.71993000  0.60605000  1.0 0.6548122814
C  C124  1  0.10488000  0.28427000  0.45917000  1.0 -0.0177503759
C  C125  1  0.79466000  0.05838000  0.73086000  1.0 0.6383070102
C  C126  1  0.02827000  0.18337000  0.43566000  1.0 -0.0993206532
C  C127  1  0.67581000  0.86124000  0.52347000  1.0 -0.0177503759
C  C128  1  0.66099000  0.84546000  0.47487000  1.0 0.6114955023
C  C129  1  0.06526000  0.37940000  0.73968000  1.0 -0.0058464069
C  C130  1  0.12337000  0.47066000  0.76665000  1.0 0.5970822474
C  C131  1  0.16600000  0.36318000  0.39460000  1.0 -0.0177503759
C  C132  1  0.02405000  0.17489000  0.39096000  1.0 -0.0177503759
C  C133  1  0.09200000  0.26417000  0.37079000  1.0 -0.1090311125
C  C134  1  0.94867000  0.07108000  0.36417000  1.0 0.6335018923
C  C135  1  0.24095000  0.46187000  0.37304000  1.0 0.6114955023
C  C136  1  0.40351000  0.26493000  0.37606000  1.0 0.6383070102
C  C137  1  0.72157000  0.47872000  0.35451000  1.0 0.6233798688
C  C138  1  0.21155000  0.00452000  0.41329000  1.0 -0.0177503759
C  C139  1  0.46048000  0.18662000  0.27812000  1.0 -0.0177503759
C  C140  1  0.64677000  0.38307000  0.31966000  1.0 -0.0266963364
C  C141  1  0.26480000  0.07943000  0.38765000  1.0 -0.0919236444
C  C142  1  0.35398000  0.19084000  0.40584000  1.0 -0.0266963364
C  C143  1  0.52422000  0.27020000  0.31224000  1.0 -0.0993206532
C  C144  1  0.39198000  0.22786000  0.45026000  1.0 -0.0993206532
C  C145  1  0.70304000  0.40888000  0.29374000  1.0 -0.1090311125
C  C146  1  0.79148000  0.60761000  0.49231000  1.0 0.6114955023
C  C147  1  0.51791000  0.21448000  0.25161000  1.0 -0.1090311125
C  C148  1  0.24793000  0.04101000  0.45796000  1.0 -0.0919236444
C  C149  1  0.93529000  0.73479000  0.56110000  1.0 -0.0993206532
C  C150  1  0.11388000  0.88325000  0.39395000  1.0 0.6548122814
C  C151  1  0.82510000  0.64571000  0.54083000  1.0 -0.0177503759
C  C152  1  0.32752000  0.06380000  0.26914000  1.0 0.6383070102
C  C153  1  0.74771000  0.59261000  0.56434000  1.0 -0.0993206532
C  C154  1  0.33777000  0.15234000  0.47653000  1.0 -0.0177503759
C  C155  1  0.37059000  0.18612000  0.52513000  1.0 0.6114955023
C  C156  1  0.63972000  0.32558000  0.26032000  1.0 -0.0058464069
C  C157  1  0.70401000  0.35672000  0.23335000  1.0 0.5970822474
C  C158  1  0.96858000  0.77140000  0.60540000  1.0 -0.0177503759
C  C159  1  0.78393000  0.63309000  0.60904000  1.0 -0.0177503759
C  C160  1  0.89338000  0.72121000  0.62921000  1.0 -0.1090311125
C  C161  1  0.70691000  0.58450000  0.63583000  1.0 0.6335018923
C  C162  1  0.08883000  0.86791000  0.62696000  1.0 0.6114955023
C  C163  1  0.51493000  0.63887000  0.36142000  1.0 0.6383070102
C  C164  1  0.72872000  0.87421000  0.25715000  1.0 0.6233798688
C  C165  1  0.25452000  0.34123000  0.29297000  1.0 -0.0177503759
C  C166  1  0.43662000  0.65850000  0.22614000  1.0 -0.0177503759
C  C167  1  0.63307000  0.81341000  0.23630000  1.0 -0.0266963364
C  C168  1  0.32943000  0.44178000  0.31463000  1.0 -0.0919236444
C  C169  1  0.44084000  0.53500000  0.33686000  1.0 -0.0266963364
C  C170  1  0.52020000  0.70796000  0.24598000  1.0 -0.0993206532
C  C171  1  0.47786000  0.52760000  0.33588000  1.0 -0.0993206532
C  C172  1  0.65888000  0.86514000  0.20584000  1.0 -0.1090311125
C  C173  1  0.85761000  0.86530000  0.31613000  1.0 0.6114955023
C  C174  1  0.46448000  0.71287000  0.19657000  1.0 -0.1090311125
C  C175  1  0.29101000  0.33305000  0.29308000  1.0 -0.0919236444
C  C176  1  0.98479000  0.92369000  0.29950000  1.0 -0.0993206532
C  C177  1  0.13325000  0.23930000  0.26937000  1.0 0.6548122814
C  C178  1  0.89571000  0.85488000  0.32061000  1.0 -0.0177503759
C  C179  1  0.31380000  0.54466000  0.23628000  1.0 0.6383070102
C  C180  1  0.84261000  0.77827000  0.34490000  1.0 -0.0993206532
C  C181  1  0.40234000  0.42581000  0.31457000  1.0 -0.0177503759
C  C182  1  0.43612000  0.41099000  0.31553000  1.0 0.6114955023
C  C183  1  0.57558000  0.81526000  0.18586000  1.0 -0.0058464069
C  C184  1  0.60672000  0.87337000  0.15271000  1.0 0.5970822474
C  C185  1  0.02140000  0.91600000  0.30282000  1.0 -0.0177503759
C  C186  1  0.88309000  0.77405000  0.34916000  1.0 -0.0177503759
C  C187  1  0.97121000  0.84200000  0.32783000  1.0 -0.1090311125
C  C188  1  0.83450000  0.69867000  0.37759000  1.0 0.6335018923
C  C189  1  0.11791000  0.99095000  0.27908000  1.0 0.6114955023
C  C190  1  0.27745000  0.15351000  0.63858000  1.0 0.6383070102
C  C191  1  0.61706000  0.47157000  0.74285000  1.0 0.6233798688
C  C192  1  0.04826000  0.96155000  0.70703000  1.0 -0.0177503759
C  C193  1  0.43236000  0.21048000  0.77386000  1.0 -0.0177503759
C  C194  1  0.57711000  0.39677000  0.76370000  1.0 -0.0266963364
C  C195  1  0.12715000  0.01480000  0.68537000  1.0 -0.0919236444
C  C196  1  0.19814000  0.10398000  0.66314000  1.0 -0.0266963364
C  C197  1  0.46198000  0.27422000  0.75402000  1.0 -0.0993206532
C  C198  1  0.19172000  0.14198000  0.66412000  1.0 -0.0993206532
C  C199  1  0.65930000  0.45304000  0.79416000  1.0 -0.1090311125
C  C200  1  0.54917000  0.54148000  0.68387000  1.0 0.6114955023
C  C201  1  0.51630000  0.26791000  0.80343000  1.0 -0.1090311125
C  C202  1  0.03997000  0.99793000  0.70692000  1.0 -0.0919236444
C  C203  1  0.62419000  0.68529000  0.70050000  1.0 -0.0993206532
C  C204  1  0.96993000  0.86388000  0.73063000  1.0 0.6548122814
C  C205  1  0.53427000  0.57510000  0.67939000  1.0 -0.0177503759
C  C206  1  0.30838000  0.07752000  0.76372000  1.0 0.6383070102
C  C207  1  0.43337000  0.49771000  0.65510000  1.0 -0.0993206532
C  C208  1  0.11124000  0.08777000  0.68543000  1.0 -0.0177503759
C  C209  1  0.09546000  0.12059000  0.68447000  1.0 0.6114955023
C  C210  1  0.62940000  0.38972000  0.81414000  1.0 -0.0058464069
C  C211  1  0.72066000  0.45401000  0.84729000  1.0 0.5970822474
C  C212  1  0.61318000  0.71858000  0.69718000  1.0 -0.0177503759
C  C213  1  0.42489000  0.53393000  0.65084000  1.0 -0.0177503759
C  C214  1  0.51417000  0.64338000  0.67217000  1.0 -0.1090311125
C  C215  1  0.32108000  0.45691000  0.62241000  1.0 0.6335018923
C  C216  1  0.71187000  0.83883000  0.72092000  1.0 0.6114955023
O  O1  1  0.26303000  0.63314000  0.88775000  1.0 -0.6760040844
O  O2  1  0.17547000  0.45523000  0.88348000  1.0 -0.6292492697
O  O3  1  0.02276000  0.27253000  0.85487000  1.0 -0.6706740359
O  O4  1  0.19077000  0.52687000  0.97302000  1.0 -0.5897873193
O  O5  1  0.38190000  0.75445000  0.84133000  1.0 -0.5577815423
O  O6  1  0.06707000  0.35855000  0.97460000  1.0 -0.5805095868
O  O7  1  0.53030000  0.77362000  0.80070000  1.0 -0.6106121838
O  O8  1  0.74858000  0.01454000  0.85370000  1.0 -0.6927223305
O  O9  1  0.46856000  0.70438000  0.73072000  1.0 -0.7263658593
O  O10  1  0.51752000  0.85765000  0.04235000  1.0 -0.5897873193
O  O11  1  0.67792000  0.96663000  0.04473000  1.0 -0.5897873193
O  O12  1  0.85385000  0.10777000  0.91980000  1.0 -0.5686075787
O  O13  1  0.16477000  0.30200000  0.70175000  1.0 -0.6106121838
O  O14  1  0.03878000  0.18216000  0.74652000  1.0 -0.5577815423
O  O15  1  0.26963000  0.66117000  0.17058000  1.0 -0.5805095868
O  O16  1  0.38887000  0.77525000  0.12310000  1.0 -0.652586023
O  O17  1  0.92965000  0.19248000  0.10171000  1.0 -0.5473391214
O  O18  1  0.02669000  0.30311000  0.16698000  1.0 -0.6106121838
O  O19  1  0.74539000  0.37528000  0.11225000  1.0 -0.6760040844
O  O20  1  0.57175000  0.29199000  0.11652000  1.0 -0.6292492697
O  O21  1  0.41766000  0.16789000  0.14513000  1.0 -0.6706740359
O  O22  1  0.55385000  0.21775000  0.02698000  1.0 -0.5897873193
O  O23  1  0.91312000  0.54057000  0.15867000  1.0 -0.5577815423
O  O24  1  0.38395000  0.09247000  0.02540000  1.0 -0.5805095868
O  O25  1  0.97292000  0.72960000  0.19930000  1.0 -0.6106121838
O  O26  1  0.16084000  0.89488000  0.14630000  1.0 -0.6927223305
O  O27  1  0.97366000  0.73784000  0.26928000  1.0 -0.7263658593
O  O28  1  0.81530000  0.47517000  0.95765000  1.0 -0.5897873193
O  O29  1  0.92190000  0.63319000  0.95527000  1.0 -0.5897873193
O  O30  1  0.18797000  0.93405000  0.08020000  1.0 -0.5686075787
O  O31  1  0.60025000  0.46302000  0.29825000  1.0 -0.6106121838
O  O32  1  0.43564000  0.29226000  0.25348000  1.0 -0.5577815423
O  O33  1  0.49059000  0.09905000  0.82942000  1.0 -0.5805095868
O  O34  1  0.65215000  0.26577000  0.87690000  1.0 -0.652586023
O  O35  1  0.09077000  0.82794000  0.89829000  1.0 -0.5473391214
O  O36  1  0.13613000  0.85971000  0.83302000  1.0 -0.6106121838
O  O37  1  0.62528000  0.01303000  0.12989000  1.0 -0.6760040844
O  O38  1  0.54199000  0.92547000  0.22024000  1.0 -0.6292492697
O  O39  1  0.41789000  0.77276000  0.25023000  1.0 -0.6706740359
O  O40  1  0.46775000  0.94077000  0.16390000  1.0 -0.5897873193
O  O41  1  0.79057000  0.13190000  0.12745000  1.0 -0.5577815423
O  O42  1  0.34247000  0.81707000  0.20852000  1.0 -0.5805095868
O  O43  1  0.97960000  0.28030000  0.25668000  1.0 -0.6106121838
O  O44  1  0.14488000  0.49858000  0.23404000  1.0 -0.6927223305
O  O45  1  0.98784000  0.21856000  0.26418000  1.0 -0.7263658593
O  O46  1  0.72517000  0.26752000  0.15987000  1.0 -0.5897873193
O  O47  1  0.88319000  0.42792000  0.21129000  1.0 -0.5897873193
O  O48  1  0.18405000  0.60385000  0.24608000  1.0 -0.5686075787
O  O49  1  0.71302000  0.91477000  0.36277000  1.0 -0.6106121838
O  O50  1  0.54226000  0.78878000  0.35662000  1.0 -0.5577815423
O  O51  1  0.34905000  0.01963000  0.10846000  1.0 -0.5805095868
O  O52  1  0.51577000  0.13887000  0.11362000  1.0 -0.652586023
O  O53  1  0.07794000  0.67965000  0.23717000  1.0 -0.5473391214
O  O54  1  0.10971000  0.77669000  0.22358000  1.0 -0.6106121838
O  O55  1  0.88314000  0.49539000  0.87011000  1.0 -0.6760040844
O  O56  1  0.70523000  0.32175000  0.77976000  1.0 -0.6292492697
O  O57  1  0.52253000  0.16766000  0.74977000  1.0 -0.6706740359
O  O58  1  0.77687000  0.30385000  0.83610000  1.0 -0.5897873193
O  O59  1  0.00445000  0.66312000  0.87255000  1.0 -0.5577815423
O  O60  1  0.60855000  0.13395000  0.79148000  1.0 -0.5805095868
O  O61  1  0.02362000  0.72292000  0.74332000  1.0 -0.6106121838
O  O62  1  0.26454000  0.91084000  0.76596000  1.0 -0.6927223305
O  O63  1  0.95438000  0.72366000  0.73582000  1.0 -0.7263658593
O  O64  1  0.10765000  0.56530000  0.84013000  1.0 -0.5897873193
O  O65  1  0.21663000  0.67190000  0.78871000  1.0 -0.5897873193
O  O66  1  0.35777000  0.93797000  0.75392000  1.0 -0.5686075787
O  O67  1  0.55200000  0.35025000  0.63723000  1.0 -0.6106121838
O  O68  1  0.43216000  0.18564000  0.64338000  1.0 -0.5577815423
O  O69  1  0.91117000  0.24059000  0.89154000  1.0 -0.5805095868
O  O70  1  0.02525000  0.40215000  0.88638000  1.0 -0.652586023
O  O71  1  0.44248000  0.84077000  0.76283000  1.0 -0.5473391214
O  O72  1  0.55311000  0.88613000  0.77642000  1.0 -0.6106121838
O  O73  1  0.98697000  0.11686000  0.61225000  1.0 -0.6760040844
O  O74  1  0.07453000  0.29477000  0.61652000  1.0 -0.6292492697
O  O75  1  0.22724000  0.47747000  0.64513000  1.0 -0.6706740359
O  O76  1  0.05923000  0.22313000  0.52698000  1.0 -0.5897873193
O  O77  1  0.86810000  0.99555000  0.65867000  1.0 -0.5577815423
O  O78  1  0.18293000  0.39145000  0.52540000  1.0 -0.5805095868
O  O79  1  0.71970000  0.97638000  0.69930000  1.0 -0.6106121838
O  O80  1  0.50142000  0.73546000  0.64630000  1.0 -0.6927223305
O  O81  1  0.78144000  0.04562000  0.76928000  1.0 -0.7263658593
O  O82  1  0.73248000  0.89235000  0.45765000  1.0 -0.5897873193
O  O83  1  0.57208000  0.78337000  0.45527000  1.0 -0.5897873193
O  O84  1  0.39615000  0.64223000  0.58020000  1.0 -0.5686075787
O  O85  1  0.08523000  0.44800000  0.79825000  1.0 -0.6106121838
O  O86  1  0.21122000  0.56784000  0.75348000  1.0 -0.5577815423
O  O87  1  0.98037000  0.08883000  0.32942000  1.0 -0.5805095868
O  O88  1  0.86113000  0.97475000  0.37690000  1.0 -0.652586023
O  O89  1  0.32035000  0.55752000  0.39829000  1.0 -0.5473391214
O  O90  1  0.22331000  0.44689000  0.33302000  1.0 -0.6106121838
O  O91  1  0.50461000  0.37472000  0.38775000  1.0 -0.6760040844
O  O92  1  0.67825000  0.45801000  0.38348000  1.0 -0.6292492697
O  O93  1  0.83234000  0.58211000  0.35487000  1.0 -0.6706740359
O  O94  1  0.69615000  0.53225000  0.47302000  1.0 -0.5897873193
O  O95  1  0.33688000  0.20943000  0.34133000  1.0 -0.5577815423
O  O96  1  0.86605000  0.65753000  0.47460000  1.0 -0.5805095868
O  O97  1  0.27708000  0.02040000  0.30070000  1.0 -0.6106121838
O  O98  1  0.08916000  0.85512000  0.35370000  1.0 -0.6927223305
O  O99  1  0.27634000  0.01216000  0.23072000  1.0 -0.7263658593
O  O100  1  0.43470000  0.27483000  0.54235000  1.0 -0.5897873193
O  O101  1  0.32810000  0.11681000  0.54473000  1.0 -0.5897873193
O  O102  1  0.06203000  0.81595000  0.41980000  1.0 -0.5686075787
O  O103  1  0.64975000  0.28698000  0.20175000  1.0 -0.6106121838
O  O104  1  0.81436000  0.45774000  0.24652000  1.0 -0.5577815423
O  O105  1  0.75941000  0.65095000  0.67058000  1.0 -0.5805095868
O  O106  1  0.59785000  0.48423000  0.62310000  1.0 -0.652586023
O  O107  1  0.15923000  0.92206000  0.60171000  1.0 -0.5473391214
O  O108  1  0.11387000  0.89029000  0.66698000  1.0 -0.6106121838
O  O109  1  0.62472000  0.73697000  0.37011000  1.0 -0.6760040844
O  O110  1  0.70801000  0.82453000  0.27976000  1.0 -0.6292492697
O  O111  1  0.83211000  0.97724000  0.24977000  1.0 -0.6706740359
O  O112  1  0.78225000  0.80923000  0.33610000  1.0 -0.5897873193
O  O113  1  0.45943000  0.61810000  0.37255000  1.0 -0.5577815423
O  O114  1  0.90753000  0.93293000  0.29148000  1.0 -0.5805095868
O  O115  1  0.27040000  0.46970000  0.24332000  1.0 -0.6106121838
O  O116  1  0.10512000  0.25142000  0.26596000  1.0 -0.6927223305
O  O117  1  0.26216000  0.53144000  0.23582000  1.0 -0.7263658593
O  O118  1  0.52483000  0.48248000  0.34013000  1.0 -0.5897873193
O  O119  1  0.36681000  0.32208000  0.28871000  1.0 -0.5897873193
O  O120  1  0.06595000  0.14615000  0.25392000  1.0 -0.5686075787
O  O121  1  0.53698000  0.83523000  0.13723000  1.0 -0.6106121838
O  O122  1  0.70774000  0.96122000  0.14338000  1.0 -0.5577815423
O  O123  1  0.90095000  0.73037000  0.39154000  1.0 -0.5805095868
O  O124  1  0.73423000  0.61113000  0.38638000  1.0 -0.652586023
O  O125  1  0.17206000  0.07035000  0.26283000  1.0 -0.5473391214
O  O126  1  0.14029000  0.97331000  0.27642000  1.0 -0.6106121838
O  O127  1  0.36686000  0.25461000  0.62989000  1.0 -0.6760040844
O  O128  1  0.54477000  0.42825000  0.72024000  1.0 -0.6292492697
O  O129  1  0.72747000  0.58234000  0.75023000  1.0 -0.6706740359
O  O130  1  0.47313000  0.44615000  0.66390000  1.0 -0.5897873193
O  O131  1  0.24555000  0.08688000  0.62745000  1.0 -0.5577815423
O  O132  1  0.64145000  0.61605000  0.70852000  1.0 -0.5805095868
O  O133  1  0.22638000  0.02708000  0.75668000  1.0 -0.6106121838
O  O134  1  0.98546000  0.83916000  0.73404000  1.0 -0.6927223305
O  O135  1  0.29562000  0.02634000  0.76418000  1.0 -0.7263658593
O  O136  1  0.14235000  0.18470000  0.65987000  1.0 -0.5897873193
O  O137  1  0.03337000  0.07810000  0.71129000  1.0 -0.5897873193
O  O138  1  0.89223000  0.81203000  0.74608000  1.0 -0.5686075787
O  O139  1  0.69800000  0.39975000  0.86277000  1.0 -0.6106121838
O  O140  1  0.81784000  0.56436000  0.85662000  1.0 -0.5577815423
O  O141  1  0.33883000  0.50941000  0.60846000  1.0 -0.5805095868
O  O142  1  0.22475000  0.34785000  0.61362000  1.0 -0.652586023
O  O143  1  0.80752000  0.90923000  0.73717000  1.0 -0.5473391214
O  O144  1  0.69689000  0.86387000  0.72358000  1.0 -0.6106121838
