# DDEC6 charges by PACMAN v1.1 (https://github.com/mtap-research/PACMAN-charge/)
data_IZEVER_ASR_pacman
_symmetry_space_group_name_H-M   'P 1'
_cell_length_a   31.45970000
_cell_length_b   31.45970000
_cell_length_c   31.45970000
_cell_angle_alpha   92.02640000
_cell_angle_beta   92.02640000
_cell_angle_gamma   158.32300000
_symmetry_Int_Tables_number   1
_chemical_formula_structural   Li4Co2H13C31(NO9)2
_chemical_formula_sum   'Li32 Co16 H104 C248 N16 O144'
_cell_volume   11295.67784341
_cell_formula_units_Z   8
loop_
 _symmetry_equiv_pos_site_id
 _symmetry_equiv_pos_as_xyz
  1  'x, y, z'
loop_
 _atom_site_type_symbol
 _atom_site_label
 _atom_site_symmetry_multiplicity
 _atom_site_fract_x
 _atom_site_fract_y
 _atom_site_fract_z
 _atom_site_occupancy
 _atom_site_charge
Li  Li1  1  0.63084000  0.73475000  0.65159000  1.0 0.8209776347
Li  Li2  1  0.57690000  0.74104000  0.58634000  1.0 0.8092251745
Li  Li3  1  0.10190000  0.32710000  0.70240000  1.0 0.8209776347
Li  Li4  1  0.37326000  0.61253000  0.82299000  1.0 0.8092251745
Li  Li5  1  0.08316000  0.97925000  0.34841000  1.0 0.8209776347
Li  Li6  1  0.15470000  0.99056000  0.41366000  1.0 0.8092251745
Li  Li7  1  0.62470000  0.39950000  0.29760000  1.0 0.8209776347
Li  Li8  1  0.78954000  0.55027000  0.17701000  1.0 0.8092251745
Li  Li9  1  0.22925000  0.38084000  0.39609000  1.0 0.8209776347
Li  Li10  1  0.24056000  0.32690000  0.33586000  1.0 0.8092251745
Li  Li11  1  0.64950000  0.85190000  0.27480000  1.0 0.8209776347
Li  Li12  1  0.80027000  0.12326000  0.26073000  1.0 0.8092251745
Li  Li13  1  0.98475000  0.83316000  0.60391000  1.0 0.8209776347
Li  Li14  1  0.99104000  0.90470000  0.66414000  1.0 0.8092251745
Li  Li15  1  0.57710000  0.37470000  0.72520000  1.0 0.8209776347
Li  Li16  1  0.86253000  0.53954000  0.73927000  1.0 0.8092251745
Li  Li17  1  0.61916000  0.01525000  0.84841000  1.0 0.8209776347
Li  Li18  1  0.67310000  0.00896000  0.91366000  1.0 0.8092251745
Li  Li19  1  0.14810000  0.42290000  0.79760000  1.0 0.8209776347
Li  Li20  1  0.87674000  0.13747000  0.67701000  1.0 0.8092251745
Li  Li21  1  0.16684000  0.77075000  0.15159000  1.0 0.8209776347
Li  Li22  1  0.09530000  0.75944000  0.08634000  1.0 0.8092251745
Li  Li23  1  0.62530000  0.35050000  0.20240000  1.0 0.8209776347
Li  Li24  1  0.46046000  0.19973000  0.32299000  1.0 0.8092251745
Li  Li25  1  0.02075000  0.36916000  0.10391000  1.0 0.8209776347
Li  Li26  1  0.00944000  0.42310000  0.16414000  1.0 0.8092251745
Li  Li27  1  0.60050000  0.89810000  0.22520000  1.0 0.8209776347
Li  Li28  1  0.44973000  0.62674000  0.23927000  1.0 0.8092251745
Li  Li29  1  0.26525000  0.91684000  0.89609000  1.0 0.8209776347
Li  Li30  1  0.25896000  0.84530000  0.83586000  1.0 0.8092251745
Li  Li31  1  0.67290000  0.37530000  0.77480000  1.0 0.8209776347
Li  Li32  1  0.38747000  0.21046000  0.76073000  1.0 0.8092251745
Co  Co1  1  0.44735000  0.55342000  0.71327000  1.0 1.0444780826
Co  Co2  1  0.73942000  0.96869000  0.58219000  1.0 0.9278042157
Co  Co3  1  0.84015000  0.73408000  0.28673000  1.0 1.0444780826
Co  Co4  1  0.38650000  0.15723000  0.41781000  1.0 0.9278042157
Co  Co5  1  0.98408000  0.19735000  0.39393000  1.0 1.0455046733
Co  Co6  1  0.40723000  0.48942000  0.27073000  1.0 0.9278042157
Co  Co7  1  0.80342000  0.59015000  0.60607000  1.0 1.0444780826
Co  Co8  1  0.21869000  0.13650000  0.72927000  1.0 0.9278042157
Co  Co9  1  0.80265000  0.19658000  0.78673000  1.0 1.0455046733
Co  Co10  1  0.51058000  0.78131000  0.91781000  1.0 0.9278042157
Co  Co11  1  0.40985000  0.01592000  0.21327000  1.0 1.0444780826
Co  Co12  1  0.86350000  0.59277000  0.08219000  1.0 0.9278042157
Co  Co13  1  0.26592000  0.55265000  0.10607000  1.0 1.0444780826
Co  Co14  1  0.84277000  0.26058000  0.22927000  1.0 0.9278042157
Co  Co15  1  0.44658000  0.15985000  0.89393000  1.0 1.0444780826
Co  Co16  1  0.03131000  0.61350000  0.77073000  1.0 0.9278042157
H  H1  1  0.19474000  0.38212000  0.64148000  1.0 0.118293935
H  H2  1  0.33875000  0.49327000  0.53594000  1.0 0.1387800567
H  H3  1  0.18240000  0.22874000  0.71930000  1.0 0.1387800567
H  H4  1  0.00242000  0.16296000  0.66876000  1.0 0.118293935
H  H5  1  0.86537000  0.91785000  0.64274000  1.0 0.1387800567
H  H6  1  0.01092000  0.23440000  0.52380000  1.0 0.1387800567
H  H7  1  0.50331000  0.78085000  0.53390000  1.0 0.1387800567
H  H8  1  0.41216000  0.75635000  0.50477000  1.0 0.1303536818
H  H9  1  0.75631000  0.08227000  0.59822000  1.0 0.1387800567
H  H10  1  0.66304000  0.05462000  0.58062000  1.0 0.1303536818
H  H11  1  0.68292000  0.98363000  0.70011000  1.0 0.118293935
H  H12  1  0.41917000  0.65401000  0.66914000  1.0 0.1387800567
H  H13  1  0.43070000  0.74565000  0.77163000  1.0 0.1303536818
H  H14  1  0.74064000  0.55326000  0.35852000  1.0 0.118293935
H  H15  1  0.95733000  0.80281000  0.46406000  1.0 0.1387800567
H  H16  1  0.50944000  0.46310000  0.28070000  1.0 0.1387800567
H  H17  1  0.49420000  0.33366000  0.33124000  1.0 0.118293935
H  H18  1  0.27511000  0.22263000  0.35726000  1.0 0.1387800567
H  H19  1  0.71060000  0.48712000  0.47620000  1.0 0.1387800567
H  H20  1  0.24695000  0.96941000  0.46610000  1.0 0.1387800567
H  H21  1  0.25158000  0.90739000  0.49523000  1.0 0.1303536818
H  H22  1  0.48405000  0.15809000  0.40178000  1.0 0.1387800567
H  H23  1  0.47400000  0.08242000  0.41938000  1.0 0.1303536818
H  H24  1  0.28352000  0.98281000  0.29989000  1.0 0.118293935
H  H25  1  0.98487000  0.75003000  0.33086000  1.0 0.1387800567
H  H26  1  0.97402000  0.65907000  0.22837000  1.0 0.1303536818
H  H27  1  0.80326000  0.94474000  0.31262000  1.0 0.118293935
H  H28  1  0.05281000  0.08875000  0.34548000  1.0 0.1387800567
H  H29  1  0.71310000  0.93240000  0.45366000  1.0 0.1387800567
H  H30  1  0.58366000  0.75242000  0.33946000  1.0 0.118293935
H  H31  1  0.47263000  0.61537000  0.44752000  1.0 0.1387800567
H  H32  1  0.73712000  0.76092000  0.27652000  1.0 0.1387800567
H  H33  1  0.21941000  0.25331000  0.22246000  1.0 0.1387800567
H  H34  1  0.15739000  0.16216000  0.15581000  1.0 0.1303536818
H  H35  1  0.40809000  0.50631000  0.17404000  1.0 0.1387800567
H  H36  1  0.33242000  0.41304000  0.10842000  1.0 0.1303536818
H  H37  1  0.23281000  0.43292000  0.19929000  1.0 0.118293935
H  H38  1  0.00003000  0.16917000  0.26516000  1.0 0.1387800567
H  H39  1  0.90907000  0.18070000  0.18505000  1.0 0.1303536818
H  H40  1  0.63212000  0.49064000  0.68738000  1.0 0.118293935
H  H41  1  0.74327000  0.70733000  0.65452000  1.0 0.1387800567
H  H42  1  0.47874000  0.25944000  0.54634000  1.0 0.1387800567
H  H43  1  0.41296000  0.24420000  0.66054000  1.0 0.118293935
H  H44  1  0.16785000  0.02511000  0.55248000  1.0 0.1387800567
H  H45  1  0.48440000  0.46060000  0.72348000  1.0 0.1387800567
H  H46  1  0.03085000  0.99695000  0.77754000  1.0 0.1387800567
H  H47  1  0.00635000  0.00158000  0.84419000  1.0 0.1303536818
H  H48  1  0.33227000  0.23405000  0.82596000  1.0 0.1387800567
H  H49  1  0.30462000  0.22400000  0.89158000  1.0 0.1303536818
H  H50  1  0.23363000  0.03352000  0.80071000  1.0 0.118293935
H  H51  1  0.90401000  0.73487000  0.73484000  1.0 0.1387800567
H  H52  1  0.99565000  0.72402000  0.81495000  1.0 0.1303536818
H  H53  1  0.05526000  0.36788000  0.85852000  1.0 0.118293935
H  H54  1  0.91125000  0.25673000  0.96406000  1.0 0.1387800567
H  H55  1  0.06760000  0.52126000  0.78070000  1.0 0.1387800567
H  H56  1  0.24758000  0.58704000  0.83124000  1.0 0.118293935
H  H57  1  0.38463000  0.83215000  0.85726000  1.0 0.1387800567
H  H58  1  0.23908000  0.51560000  0.97620000  1.0 0.1387800567
H  H59  1  0.74669000  0.96915000  0.96610000  1.0 0.1387800567
H  H60  1  0.83784000  0.99365000  0.99523000  1.0 0.1303536818
H  H61  1  0.49369000  0.66773000  0.90178000  1.0 0.1387800567
H  H62  1  0.58696000  0.69538000  0.91938000  1.0 0.1303536818
H  H63  1  0.56708000  0.76637000  0.79989000  1.0 0.118293935
H  H64  1  0.83083000  0.09599000  0.83086000  1.0 0.1387800567
H  H65  1  0.81930000  0.00435000  0.72837000  1.0 0.1303536818
H  H66  1  0.50936000  0.19674000  0.14148000  1.0 0.118293935
H  H67  1  0.29267000  0.94719000  0.03594000  1.0 0.1387800567
H  H68  1  0.74056000  0.28690000  0.21930000  1.0 0.1303536818
H  H69  1  0.75580000  0.41634000  0.16876000  1.0 0.118293935
H  H70  1  0.97489000  0.52737000  0.14274000  1.0 0.1387800567
H  H71  1  0.53940000  0.26288000  0.02380000  1.0 0.1387800567
H  H72  1  0.00305000  0.78059000  0.03390000  1.0 0.1387800567
H  H73  1  0.99842000  0.84261000  0.00477000  1.0 0.1303536818
H  H74  1  0.76595000  0.59191000  0.09822000  1.0 0.1387800567
H  H75  1  0.77600000  0.66758000  0.08062000  1.0 0.1303536818
H  H76  1  0.96648000  0.76719000  0.20011000  1.0 0.118293935
H  H77  1  0.26513000  0.99997000  0.16914000  1.0 0.1387800567
H  H78  1  0.27598000  0.09093000  0.27163000  1.0 0.1303536818
H  H79  1  0.44674000  0.80526000  0.18738000  1.0 0.118293935
H  H80  1  0.19719000  0.66125000  0.15452000  1.0 0.1387800567
H  H81  1  0.53690000  0.81760000  0.04634000  1.0 0.1387800567
H  H82  1  0.66634000  0.99758000  0.16054000  1.0 0.118293935
H  H83  1  0.77737000  0.13463000  0.05248000  1.0 0.1387800567
H  H84  1  0.51288000  0.98908000  0.22348000  1.0 0.1387800567
H  H85  1  0.03059000  0.49669000  0.27754000  1.0 0.1387800567
H  H86  1  0.09261000  0.58784000  0.34419000  1.0 0.1303536818
H  H87  1  0.84191000  0.24369000  0.32596000  1.0 0.1387800567
H  H88  1  0.91758000  0.33696000  0.39158000  1.0 0.1303536818
H  H89  1  0.01719000  0.31708000  0.30071000  1.0 0.118293935
H  H90  1  0.24997000  0.58083000  0.23484000  1.0 0.1387800567
H  H91  1  0.34093000  0.56930000  0.31495000  1.0 0.1303536818
H  H92  1  0.61788000  0.25936000  0.81262000  1.0 0.118293935
H  H93  1  0.50673000  0.04267000  0.84548000  1.0 0.1387800567
H  H94  1  0.77126000  0.49056000  0.95366000  1.0 0.1303536818
H  H95  1  0.83704000  0.50580000  0.83946000  1.0 0.118293935
H  H96  1  0.08215000  0.72489000  0.94752000  1.0 0.1387800567
H  H97  1  0.76560000  0.28940000  0.77652000  1.0 0.1387800567
H  H98  1  0.21915000  0.75305000  0.72246000  1.0 0.1387800567
H  H99  1  0.24365000  0.74842000  0.65581000  1.0 0.1303536818
H  H100  1  0.91773000  0.51595000  0.67404000  1.0 0.1387800567
H  H101  1  0.94538000  0.52600000  0.60842000  1.0 0.1303536818
H  H102  1  0.01637000  0.71648000  0.69929000  1.0 0.118293935
H  H103  1  0.34599000  0.01513000  0.76516000  1.0 0.1387800567
H  H104  1  0.25435000  0.02598000  0.68505000  1.0 0.1303536818
C  C1  1  0.38541000  0.52628000  0.62189000  1.0 0.6374747333
C  C2  1  0.18855000  0.37624000  0.61159000  1.0 -0.0891585016
C  C3  1  0.08726000  0.29685000  0.58551000  1.0 -0.0266941566
C  C4  1  0.62098000  0.86331000  0.64449000  1.0 0.6107606319
C  C5  1  0.28137000  0.44741000  0.59218000  1.0 -0.0266941566
C  C6  1  0.91968000  0.02933000  0.65041000  1.0 -0.0171615466
C  C7  1  0.81674000  0.95277000  0.62071000  1.0 0.6296880682
C  C8  1  0.27514000  0.44252000  0.54826000  1.0 -0.0973308146
C  C9  1  0.11620000  0.17848000  0.70228000  1.0 -0.109724709
C  C10  1  0.00898000  0.13982000  0.67180000  1.0 -0.109724709
C  C11  1  0.02636000  0.06798000  0.68154000  1.0 -0.0171615466
C  C12  1  0.10711000  0.21402000  0.69753000  1.0 -0.0115609354
C  C13  1  0.20687000  0.33533000  0.71960000  1.0 0.5983556813
C  C14  1  0.98607000  0.21789000  0.60536000  1.0 0.6374747333
C  C15  1  0.92662000  0.99252000  0.65594000  1.0 -0.109724709
C  C16  1  0.07912000  0.28851000  0.54123000  1.0 -0.0973308146
C  C17  1  0.54030000  0.84150000  0.54040000  1.0 0.0341488853
C  C18  1  0.47980000  0.82140000  0.52580000  1.0 0.0013660955
C  C19  1  0.68530000  0.01449000  0.57899000  1.0 0.0095370139
C  C20  1  0.62760000  0.99630000  0.56890000  1.0 -0.0171615466
C  C21  1  0.56168000  0.82481000  0.67989000  1.0 -0.0266941566
C  C22  1  0.15563000  0.34255000  0.47338000  1.0 0.6107606319
C  C23  1  0.61407000  0.90784000  0.70571000  1.0 -0.1155116121
C  C24  1  0.45694000  0.71086000  0.68720000  1.0 -0.0973308146
C  C25  1  0.62460000  0.97033000  0.76713000  1.0 0.5983556813
C  C26  1  0.04201000  0.03551000  0.68632000  1.0 0.5947856148
C  C27  1  0.17185000  0.36016000  0.52221000  1.0 -0.0171615466
C  C28  1  0.56517000  0.87904000  0.73941000  1.0 -0.0115609354
C  C29  1  0.40848000  0.68197000  0.72185000  1.0 -0.0171615466
C  C30  1  0.29514000  0.55897000  0.73051000  1.0 0.648179016
C  C31  1  0.46243000  0.76511000  0.74814000  1.0 -0.109724709
C  C32  1  0.90439000  0.76352000  0.37811000  1.0 0.6374747333
C  C33  1  0.76465000  0.57696000  0.38841000  1.0 -0.0891585016
C  C34  1  0.71134000  0.50175000  0.41449000  1.0 -0.0266941566
C  C35  1  0.21882000  0.97649000  0.35551000  1.0 0.6107606319
C  C36  1  0.85523000  0.68919000  0.40782000  1.0 -0.0266941566
C  C37  1  0.37892000  0.26927000  0.34959000  1.0 -0.0171615466
C  C38  1  0.33206000  0.19603000  0.37929000  1.0 0.6296880682
C  C39  1  0.89426000  0.72688000  0.45174000  1.0 -0.0973308146
C  C40  1  0.47620000  0.41392000  0.29772000  1.0 -0.109724709
C  C41  1  0.46802000  0.33718000  0.32820000  1.0 -0.109724709
C  C42  1  0.38644000  0.34482000  0.31846000  1.0 -0.0171615466
C  C43  1  0.51649000  0.40958000  0.30247000  1.0 -0.0115609354
C  C44  1  0.61573000  0.48727000  0.28040000  1.0 0.5983556813
C  C45  1  0.61253000  0.38071000  0.39464000  1.0 0.6374747333
C  C46  1  0.33658000  0.27068000  0.34406000  1.0 -0.109724709
C  C47  1  0.74728000  0.53789000  0.45877000  1.0 -0.0973308146
C  C48  1  0.30110000  0.99990000  0.45960000  1.0 0.0341488853
C  C49  1  0.29560000  0.95400000  0.47420000  1.0 0.0013660955
C  C50  1  0.43550000  0.10631000  0.42101000  1.0 0.0095370139
C  C51  1  0.42740000  0.05870000  0.43110000  1.0 -0.0171615466
C  C52  1  0.14492000  0.88179000  0.32011000  1.0 -0.0266941566
C  C53  1  0.86917000  0.68225000  0.52662000  1.0 0.6107606319
C  C54  1  0.20213000  0.90836000  0.29429000  1.0 -0.1155116121
C  C55  1  0.02366000  0.76974000  0.31280000  1.0 -0.0973308146
C  C56  1  0.20320000  0.85747000  0.23287000  1.0 0.5983556813
C  C57  1  0.34919000  0.35569000  0.31368000  1.0 0.5983556813
C  C58  1  0.83795000  0.64964000  0.47779000  1.0 -0.0171615466
C  C59  1  0.13963000  0.82576000  0.26059000  1.0 -0.0115609354
C  C60  1  0.96012000  0.68663000  0.27815000  1.0 -0.0171615466
C  C61  1  0.82846000  0.56463000  0.26949000  1.0 0.648179016
C  C62  1  0.01697000  0.71429000  0.25186000  1.0 -0.109724709
C  C63  1  0.01352000  0.13541000  0.35913000  1.0 0.6374747333
C  C64  1  0.82696000  0.93855000  0.31231000  1.0 -0.0891585016
C  C65  1  0.75175000  0.83726000  0.29041000  1.0 -0.0266941566
C  C66  1  0.22649000  0.37098000  0.25767000  1.0 0.6107606319
C  C67  1  0.93919000  0.03137000  0.33396000  1.0 -0.0266941566
C  C68  1  0.51927000  0.66968000  0.39035000  1.0 -0.0171615466
C  C69  1  0.44603000  0.56674000  0.36397000  1.0 0.6296880682
C  C70  1  0.97688000  0.02514000  0.33262000  1.0 -0.0973308146
C  C71  1  0.66392000  0.86620000  0.43772000  1.0 -0.109724709
C  C72  1  0.58718000  0.75898000  0.36916000  1.0 -0.109724709
C  C73  1  0.59482000  0.77636000  0.45838000  1.0 -0.0171615466
C  C74  1  0.65958000  0.85711000  0.39309000  1.0 -0.0115609354
C  C75  1  0.73727000  0.95687000  0.37154000  1.0 0.5983556813
C  C76  1  0.63071000  0.73607000  0.26818000  1.0 0.6374747333
C  C77  1  0.52068000  0.67662000  0.43410000  1.0 -0.109724709
C  C78  1  0.78789000  0.82912000  0.29061000  1.0 -0.0973308146
C  C79  1  0.24990000  0.29030000  0.19880000  1.0 0.0341488853
C  C80  1  0.20400000  0.22980000  0.15840000  1.0 0.0013660955
C  C81  1  0.35631000  0.43530000  0.17081000  1.0 0.0095370139
C  C82  1  0.30870000  0.37760000  0.13130000  1.0 -0.0115609354
C  C83  1  0.13179000  0.31168000  0.23687000  1.0 -0.0266941566
C  C84  1  0.93225000  0.90563000  0.31308000  1.0 0.6107606319
C  C85  1  0.15836000  0.36407000  0.20623000  1.0 -0.1155116121
C  C86  1  0.01974000  0.20694000  0.24608000  1.0 -0.0973308146
C  C87  1  0.10747000  0.37460000  0.15427000  1.0 0.5983556813
C  C88  1  0.60569000  0.79201000  0.50650000  1.0 0.5947856148
C  C89  1  0.89964000  0.92185000  0.31169000  1.0 -0.0171615466
C  C90  1  0.07576000  0.31517000  0.18613000  1.0 -0.0115609354
C  C91  1  0.93663000  0.15848000  0.22651000  1.0 -0.0171615466
C  C92  1  0.81463000  0.04514000  0.23617000  1.0 0.648179016
C  C93  1  0.96429000  0.21243000  0.19732000  1.0 -0.109724709
C  C94  1  0.77628000  0.65439000  0.64087000  1.0 0.6374747333
C  C95  1  0.62624000  0.51465000  0.68769000  1.0 -0.0891585016
C  C96  1  0.54685000  0.46134000  0.70959000  1.0 -0.0266941566
C  C97  1  0.11331000  0.96882000  0.74233000  1.0 0.6107606319
C  C98  1  0.69741000  0.60523000  0.66604000  1.0 -0.0266941566
C  C99  1  0.27933000  0.12892000  0.60965000  1.0 -0.0171615466
C  C100  1  0.20277000  0.08206000  0.63603000  1.0 0.6296880682
C  C101  1  0.69252000  0.64426000  0.66738000  1.0 -0.0973308146
C  C102  1  0.42848000  0.22620000  0.56228000  1.0 -0.109724709
C  C103  1  0.38982000  0.21802000  0.63084000  1.0 -0.109724709
C  C104  1  0.31798000  0.13644000  0.54162000  1.0 -0.0171615466
C  C105  1  0.46402000  0.26649000  0.60691000  1.0 -0.0115609354
C  C106  1  0.58533000  0.36573000  0.62846000  1.0 0.5983556813
C  C107  1  0.46789000  0.36253000  0.73182000  1.0 0.6374747333
C  C108  1  0.24252000  0.08658000  0.56590000  1.0 -0.109724709
C  C109  1  0.53851000  0.49728000  0.70939000  1.0 -0.0973308146
C  C110  1  0.09150000  0.05110000  0.80120000  1.0 0.0341488853
C  C111  1  0.07140000  0.04560000  0.84160000  1.0 0.0013660955
C  C112  1  0.26449000  0.18550000  0.82919000  1.0 0.0095370139
C  C113  1  0.24630000  0.17740000  0.86870000  1.0 -0.0171615466
C  C114  1  0.07481000  0.89492000  0.76313000  1.0 -0.0266941566
C  C115  1  0.59255000  0.61917000  0.68692000  1.0 0.6107606319
C  C116  1  0.15784000  0.95213000  0.79377000  1.0 -0.1155116121
C  C117  1  0.96086000  0.77366000  0.75392000  1.0 -0.0973308146
C  C118  1  0.22033000  0.95320000  0.84573000  1.0 0.5983556813
C  C119  1  0.28551000  0.09919000  0.49350000  1.0 0.5947856148
C  C120  1  0.61016000  0.58795000  0.68831000  1.0 -0.0171615466
C  C121  1  0.12904000  0.88963000  0.81387000  1.0 -0.0115609354
C  C122  1  0.93197000  0.71012000  0.77349000  1.0 -0.0171615466
C  C123  1  0.80897000  0.57846000  0.76383000  1.0 0.648179016
C  C124  1  0.01511000  0.76697000  0.80268000  1.0 -0.109724709
C  C125  1  0.86459000  0.22372000  0.87811000  1.0 0.6374747333
C  C126  1  0.06145000  0.37376000  0.88841000  1.0 -0.0891585016
C  C127  1  0.16274000  0.45315000  0.91449000  1.0 -0.0266941566
C  C128  1  0.62902000  0.88669000  0.85551000  1.0 0.6107606319
C  C129  1  0.96863000  0.30259000  0.90782000  1.0 -0.0266941566
C  C130  1  0.33032000  0.72067000  0.84959000  1.0 -0.0171615466
C  C131  1  0.43326000  0.79723000  0.87929000  1.0 0.6296880682
C  C132  1  0.97486000  0.30748000  0.95174000  1.0 -0.0973308146
C  C133  1  0.13380000  0.57152000  0.79772000  1.0 -0.109724709
C  C134  1  0.24102000  0.61018000  0.82820000  1.0 -0.109724709
C  C135  1  0.22364000  0.68202000  0.81846000  1.0 -0.0171615466
C  C136  1  0.14289000  0.53598000  0.80247000  1.0 -0.0115609354
C  C137  1  0.04313000  0.41467000  0.78040000  1.0 0.5983556813
C  C138  1  0.26393000  0.53211000  0.89464000  1.0 0.6374747333
C  C139  1  0.32338000  0.75748000  0.84406000  1.0 -0.109724709
C  C140  1  0.17088000  0.46149000  0.95877000  1.0 -0.0973308146
C  C141  1  0.70970000  0.90850000  0.95960000  1.0 0.0341488853
C  C142  1  0.77020000  0.92860000  0.97420000  1.0 0.0013660955
C  C143  1  0.56470000  0.73551000  0.92101000  1.0 0.0095370139
C  C144  1  0.62240000  0.75370000  0.93110000  1.0 -0.0171615466
C  C145  1  0.68832000  0.92519000  0.82011000  1.0 -0.0266941566
C  C146  1  0.09437000  0.40745000  0.02662000  1.0 0.6107606319
C  C147  1  0.63593000  0.84216000  0.79429000  1.0 -0.1155116121
C  C148  1  0.79306000  0.03914000  0.81280000  1.0 -0.0973308146
C  C149  1  0.62540000  0.77967000  0.73287000  1.0 0.5983556813
C  C150  1  0.20799000  0.71449000  0.81368000  1.0 0.5947856148
C  C151  1  0.07815000  0.38984000  0.97779000  1.0 -0.0171615466
C  C152  1  0.68483000  0.87096000  0.76059000  1.0 -0.0115609354
C  C153  1  0.84152000  0.06803000  0.77815000  1.0 -0.0171615466
C  C154  1  0.95486000  0.19103000  0.76949000  1.0 0.648179016
C  C155  1  0.78757000  0.98489000  0.75186000  1.0 -0.109724709
C  C156  1  0.34561000  0.98648000  0.12189000  1.0 0.6374747333
C  C157  1  0.48535000  0.17304000  0.11159000  1.0 -0.0891585016
C  C158  1  0.53866000  0.24825000  0.08551000  1.0 -0.0266941566
C  C159  1  0.03118000  0.77351000  0.14449000  1.0 0.6107606319
C  C160  1  0.39477000  0.06081000  0.09218000  1.0 -0.0266941566
C  C161  1  0.87108000  0.48073000  0.15041000  1.0 -0.0171615466
C  C162  1  0.91794000  0.55397000  0.12071000  1.0 0.6296880682
C  C163  1  0.35574000  0.02312000  0.04826000  1.0 -0.0973308146
C  C164  1  0.77380000  0.33608000  0.20228000  1.0 -0.109724709
C  C165  1  0.78198000  0.41282000  0.17180000  1.0 -0.109724709
C  C166  1  0.86356000  0.40518000  0.18154000  1.0 -0.0171615466
C  C167  1  0.73351000  0.34042000  0.19753000  1.0 -0.0115609354
C  C168  1  0.63427000  0.26273000  0.21960000  1.0 0.5983556813
C  C169  1  0.63747000  0.36929000  0.10536000  1.0 0.6374747333
C  C170  1  0.91342000  0.47932000  0.15594000  1.0 -0.109724709
C  C171  1  0.50272000  0.21211000  0.04123000  1.0 -0.0973308146
C  C172  1  0.94890000  0.75010000  0.04040000  1.0 0.0341488853
C  C173  1  0.95440000  0.79600000  0.02580000  1.0 0.0013660955
C  C174  1  0.81450000  0.64369000  0.07899000  1.0 0.0095370139
C  C175  1  0.82260000  0.69130000  0.06890000  1.0 -0.0115609354
C  C176  1  0.10508000  0.86821000  0.17989000  1.0 -0.0266941566
C  C177  1  0.38083000  0.06775000  0.97338000  1.0 0.6107606319
C  C178  1  0.04787000  0.84164000  0.20571000  1.0 -0.1155116121
C  C179  1  0.22634000  0.98026000  0.18720000  1.0 -0.0973308146
C  C180  1  0.04680000  0.89253000  0.26713000  1.0 0.5983556813
C  C181  1  0.90081000  0.39431000  0.18632000  1.0 0.5947856148
C  C182  1  0.41205000  0.10036000  0.02221000  1.0 -0.0171615466
C  C183  1  0.11037000  0.92424000  0.23941000  1.0 -0.0115609354
C  C184  1  0.28988000  0.06337000  0.22185000  1.0 -0.0171615466
C  C185  1  0.42154000  0.18537000  0.23051000  1.0 0.648179016
C  C186  1  0.23303000  0.03571000  0.24814000  1.0 -0.109724709
C  C187  1  0.23648000  0.61459000  0.14087000  1.0 0.6374747333
C  C188  1  0.42304000  0.81145000  0.18769000  1.0 -0.0891585016
C  C189  1  0.49825000  0.91274000  0.20959000  1.0 -0.0266941566
C  C190  1  0.02351000  0.37902000  0.24233000  1.0 0.6107606319
C  C191  1  0.31081000  0.71863000  0.16604000  1.0 -0.0266941566
C  C192  1  0.73073000  0.08032000  0.10965000  1.0 -0.0171615466
C  C193  1  0.80397000  0.18326000  0.13603000  1.0 0.6296880682
C  C194  1  0.27312000  0.72486000  0.16738000  1.0 -0.0973308146
C  C195  1  0.58608000  0.88380000  0.06228000  1.0 -0.109724709
C  C196  1  0.66282000  0.99102000  0.13084000  1.0 -0.109724709
C  C197  1  0.65518000  0.97364000  0.04162000  1.0 -0.0171615466
C  C198  1  0.59042000  0.89289000  0.10691000  1.0 -0.0115609354
C  C199  1  0.51273000  0.79313000  0.12846000  1.0 0.5983556813
C  C200  1  0.61929000  0.01393000  0.23182000  1.0 0.6374747333
C  C201  1  0.72932000  0.07338000  0.06590000  1.0 -0.109724709
C  C202  1  0.46211000  0.92088000  0.20939000  1.0 -0.0973308146
C  C203  1  0.00010000  0.45970000  0.30120000  1.0 0.0341488853
C  C204  1  0.04600000  0.52020000  0.34160000  1.0 0.0013660955
C  C205  1  0.89369000  0.31470000  0.32919000  1.0 0.0095370139
C  C206  1  0.94130000  0.37240000  0.36870000  1.0 -0.0115609354
C  C207  1  0.11821000  0.43832000  0.26313000  1.0 -0.0266941566
C  C208  1  0.31775000  0.84437000  0.18692000  1.0 0.6107606319
C  C209  1  0.09164000  0.38593000  0.29377000  1.0 -0.1155116121
C  C210  1  0.23026000  0.54306000  0.25392000  1.0 -0.0973308146
C  C211  1  0.14253000  0.37540000  0.34573000  1.0 0.5983556813
C  C212  1  0.64431000  0.95799000  0.99350000  1.0 0.5983556813
C  C213  1  0.35036000  0.82815000  0.18831000  1.0 -0.0171615466
C  C214  1  0.17424000  0.43483000  0.31387000  1.0 -0.0115609354
C  C215  1  0.31337000  0.59152000  0.27349000  1.0 -0.0171615466
C  C216  1  0.43537000  0.70486000  0.26383000  1.0 0.648179016
C  C217  1  0.28571000  0.53757000  0.30268000  1.0 -0.109724709
C  C218  1  0.47372000  0.09561000  0.85913000  1.0 0.6374747333
C  C219  1  0.62376000  0.23535000  0.81231000  1.0 -0.0891585016
C  C220  1  0.70315000  0.28866000  0.79041000  1.0 -0.0266941566
C  C221  1  0.13669000  0.78118000  0.75767000  1.0 0.6107606319
C  C222  1  0.55259000  0.14477000  0.83396000  1.0 -0.0266941566
C  C223  1  0.97067000  0.62108000  0.89035000  1.0 -0.0171615466
C  C224  1  0.04723000  0.66794000  0.86397000  1.0 0.6296880682
C  C225  1  0.55748000  0.10574000  0.83262000  1.0 -0.0973308146
C  C226  1  0.82152000  0.52380000  0.93772000  1.0 -0.109724709
C  C227  1  0.86018000  0.53198000  0.86916000  1.0 -0.109724709
C  C228  1  0.93202000  0.61356000  0.95838000  1.0 -0.0171615466
C  C229  1  0.78598000  0.48351000  0.89309000  1.0 -0.0115609354
C  C230  1  0.66467000  0.38427000  0.87154000  1.0 0.5983556813
C  C231  1  0.78211000  0.38747000  0.76818000  1.0 0.6374747333
C  C232  1  0.00748000  0.66342000  0.93410000  1.0 -0.109724709
C  C233  1  0.71149000  0.25272000  0.79061000  1.0 -0.0973308146
C  C234  1  0.15850000  0.69890000  0.69880000  1.0 0.0341488853
C  C235  1  0.17860000  0.70440000  0.65840000  1.0 0.0013660955
C  C236  1  0.98551000  0.56450000  0.67081000  1.0 0.0095370139
C  C237  1  0.00370000  0.57260000  0.63130000  1.0 -0.0171615466
C  C238  1  0.17519000  0.85508000  0.73687000  1.0 -0.0266941566
C  C239  1  0.65745000  0.13083000  0.81308000  1.0 0.6107606319
C  C240  1  0.09216000  0.79787000  0.70623000  1.0 -0.1155116121
C  C241  1  0.28914000  0.97634000  0.74608000  1.0 -0.0973308146
C  C242  1  0.02967000  0.79680000  0.65427000  1.0 0.5983556813
C  C243  1  0.96449000  0.65081000  0.00650000  1.0 0.5947856148
C  C244  1  0.63984000  0.16205000  0.81169000  1.0 -0.0171615466
C  C245  1  0.12096000  0.86037000  0.68613000  1.0 -0.0115609354
C  C246  1  0.31803000  0.03988000  0.72651000  1.0 -0.0171615466
C  C247  1  0.44103000  0.17154000  0.73617000  1.0 0.648179016
C  C248  1  0.23489000  0.98303000  0.69732000  1.0 -0.109724709
N  N1  1  0.64746000  0.94194000  0.56320000  1.0 -0.1977274764
N  N2  1  0.52170000  0.90040000  0.54310000  1.0 -0.1776176329
N  N3  1  0.37874000  0.08426000  0.43680000  1.0 -0.1977274764
N  N4  1  0.35730000  0.97860000  0.45690000  1.0 -0.1776176329
N  N5  1  0.33426000  0.39746000  0.20552000  1.0 -0.1977274764
N  N6  1  0.22860000  0.27170000  0.12130000  1.0 -0.1776176329
N  N7  1  0.19194000  0.12874000  0.79448000  1.0 -0.1977274764
N  N8  1  0.15040000  0.10730000  0.87870000  1.0 -0.1776176329
N  N9  1  0.60254000  0.80806000  0.93680000  1.0 -0.1977274764
N  N10  1  0.72830000  0.84960000  0.95690000  1.0 -0.1776176329
N  N11  1  0.87126000  0.66574000  0.06320000  1.0 -0.1977274764
N  N12  1  0.89270000  0.77140000  0.04310000  1.0 -0.1776176329
N  N13  1  0.91574000  0.35254000  0.29448000  1.0 -0.1977274764
N  N14  1  0.02140000  0.47830000  0.37870000  1.0 -0.1776176329
N  N15  1  0.05806000  0.62126000  0.70552000  1.0 -0.1977274764
N  N16  1  0.09960000  0.64270000  0.62130000  1.0 -0.1776176329
O  O1  1  0.48239000  0.61324000  0.61023000  1.0 -0.6628201949
O  O2  1  0.99817000  0.23252000  0.64549000  1.0 -0.6978509585
O  O3  1  0.72126000  0.84452000  0.61238000  1.0 -0.6628201949
O  O4  1  0.89184000  0.13884000  0.57928000  1.0 -0.5592030175
O  O5  1  0.83670000  0.00690000  0.60560000  1.0 -0.5592030175
O  O6  1  0.30287000  0.40497000  0.73444000  1.0 -0.5592030175
O  O7  1  0.72635000  0.97492000  0.64507000  1.0 -0.6705558608
O  O8  1  0.57108000  0.79224000  0.61532000  1.0 -0.5945031653
O  O9  1  0.19388000  0.36157000  0.72225000  1.0 -0.5795161517
O  O10  1  0.36531000  0.49567000  0.65778000  1.0 -0.5739791979
O  O11  1  0.59009000  0.95091000  0.79980000  1.0 -0.6246186654
O  O12  1  0.22761000  0.38957000  0.45558000  1.0 -0.6086484428
O  O13  1  0.06366000  0.27540000  0.45366000  1.0 -0.5795161517
O  O14  1  0.13422000  0.11030000  0.71112000  1.0 -0.5739791979
O  O15  1  0.71181000  0.06794000  0.75295000  1.0 -0.5795161517
O  O16  1  0.21991000  0.47686000  0.69857000  1.0 -0.6246186654
O  O17  1  0.28272000  0.54583000  0.76935000  1.0 -0.742449538
O  O18  1  0.96426000  0.93881000  0.66647000  1.0 -0.6086484428
O  O19  1  0.00301000  0.87216000  0.38977000  1.0 -0.6628201949
O  O20  1  0.58703000  0.35268000  0.35451000  1.0 -0.6978509585
O  O21  1  0.23214000  0.10888000  0.38762000  1.0 -0.6628201949
O  O22  1  0.55956000  0.31256000  0.42072000  1.0 -0.5592030175
O  O23  1  0.40130000  0.23110000  0.39440000  1.0 -0.5592030175
O  O24  1  0.67053000  0.56843000  0.26556000  1.0 -0.5592030175
O  O25  1  0.32985000  0.08128000  0.35493000  1.0 -0.6705558608
O  O26  1  0.17692000  0.95576000  0.38468000  1.0 -0.5945031653
O  O27  1  0.63932000  0.47163000  0.27775000  1.0 -0.5795161517
O  O28  1  0.83789000  0.70753000  0.34222000  1.0 -0.5739791979
O  O29  1  0.15111000  0.79029000  0.20020000  1.0 -0.6246186654
O  O30  1  0.93399000  0.77203000  0.54442000  1.0 -0.6086484428
O  O31  1  0.82174000  0.61000000  0.54634000  1.0 -0.5795161517
O  O32  1  0.39918000  0.42310000  0.28888000  1.0 -0.5739791979
O  O33  1  0.31499000  0.95886000  0.24705000  1.0 -0.5795161517
O  O34  1  0.77829000  0.52134000  0.30143000  1.0 -0.6252225201
O  O35  1  0.77648000  0.51337000  0.23065000  1.0 -0.742449538
O  O36  1  0.27234000  0.29779000  0.33353000  1.0 -0.6086484428
O  O37  1  0.12216000  0.23239000  0.36915000  1.0 -0.6628201949
O  O38  1  0.60268000  0.74817000  0.26565000  1.0 -0.6978509585
O  O39  1  0.35888000  0.47126000  0.37674000  1.0 -0.6628201949
O  O40  1  0.56256000  0.64184000  0.25300000  1.0 -0.5592030175
O  O41  1  0.48110000  0.58670000  0.32980000  1.0 -0.5592030175
O  O42  1  0.81843000  0.05287000  0.39790000  1.0 -0.5592030175
O  O43  1  0.33128000  0.47635000  0.25143000  1.0 -0.6705558608
O  O44  1  0.20576000  0.32108000  0.27884000  1.0 -0.5945031653
O  O45  1  0.72163000  0.94388000  0.33231000  1.0 -0.5795161517
O  O46  1  0.95753000  0.11531000  0.36964000  1.0 -0.5739791979
O  O47  1  0.04029000  0.34009000  0.13918000  1.0 -0.6246186654
O  O48  1  0.02203000  0.97761000  0.33804000  1.0 -0.6086484428
O  O49  1  0.86000000  0.81366000  0.28826000  1.0 -0.5795161517
O  O50  1  0.67310000  0.88422000  0.52392000  1.0 -0.5795161517
O  O51  1  0.20886000  0.46181000  0.14387000  1.0 -0.5795161517
O  O52  1  0.77134000  0.96991000  0.24305000  1.0 -0.6252225201
O  O53  1  0.76337000  0.03272000  0.23689000  1.0 -0.742449538
O  O54  1  0.54779000  0.71426000  0.52545000  1.0 -0.6086484428
O  O55  1  0.86324000  0.75301000  0.63085000  1.0 -0.6628201949
O  O56  1  0.48252000  0.33703000  0.73435000  1.0 -0.6978509585
O  O57  1  0.09452000  0.98214000  0.62326000  1.0 -0.6628201949
O  O58  1  0.38884000  0.30956000  0.74700000  1.0 -0.5592030175
O  O59  1  0.25690000  0.15130000  0.67020000  1.0 -0.5592030175
O  O60  1  0.65497000  0.42053000  0.60210000  1.0 -0.5592030175
O  O61  1  0.22492000  0.07985000  0.74857000  1.0 -0.6705558608
O  O62  1  0.04224000  0.92692000  0.72116000  1.0 -0.5945031653
O  O63  1  0.61157000  0.38932000  0.66769000  1.0 -0.5795161517
O  O64  1  0.74567000  0.58789000  0.63036000  1.0 -0.5739791979
O  O65  1  0.20091000  0.90111000  0.86082000  1.0 -0.6246186654
O  O66  1  0.63957000  0.68399000  0.66196000  1.0 -0.6086484428
O  O67  1  0.52540000  0.57174000  0.71174000  1.0 -0.5795161517
O  O68  1  0.36030000  0.14918000  0.47608000  1.0 -0.5739791979
O  O69  1  0.31794000  0.06499000  0.85613000  1.0 -0.5795161517
O  O70  1  0.72686000  0.52829000  0.75695000  1.0 -0.6246186654
O  O71  1  0.79583000  0.52648000  0.76311000  1.0 -0.742449538
O  O72  1  0.18881000  0.02234000  0.47455000  1.0 -0.6086484428
O  O73  1  0.76761000  0.13676000  0.88977000  1.0 -0.6628201949
O  O74  1  0.25183000  0.51748000  0.85451000  1.0 -0.6978509585
O  O75  1  0.52874000  0.90548000  0.88762000  1.0 -0.6628201949
O  O76  1  0.35816000  0.61116000  0.92072000  1.0 -0.5592030175
O  O77  1  0.41330000  0.74310000  0.89440000  1.0 -0.5592030175
O  O78  1  0.94713000  0.34503000  0.76556000  1.0 -0.5592030175
O  O79  1  0.52365000  0.77508000  0.85493000  1.0 -0.6705558608
O  O80  1  0.67892000  0.95776000  0.88468000  1.0 -0.5945031653
O  O81  1  0.05612000  0.38843000  0.77775000  1.0 -0.5795161517
O  O82  1  0.88469000  0.25433000  0.84222000  1.0 -0.5739791979
O  O83  1  0.65991000  0.79909000  0.70020000  1.0 -0.6246186654
O  O84  1  0.02239000  0.36043000  0.04442000  1.0 -0.6086484428
O  O85  1  0.18634000  0.47460000  0.04634000  1.0 -0.5795161517
O  O86  1  0.11578000  0.63970000  0.78888000  1.0 -0.5739791979
O  O87  1  0.53819000  0.68206000  0.74705000  1.0 -0.5795161517
O  O88  1  0.03009000  0.27314000  0.80143000  1.0 -0.6246186654
O  O89  1  0.96728000  0.20417000  0.73065000  1.0 -0.742449538
O  O90  1  0.28574000  0.81119000  0.83353000  1.0 -0.6086484428
O  O91  1  0.24699000  0.87784000  0.11023000  1.0 -0.6628201949
O  O92  1  0.66297000  0.39732000  0.14549000  1.0 -0.6978509585
O  O93  1  0.01786000  0.64112000  0.11238000  1.0 -0.6628201949
O  O94  1  0.69044000  0.43744000  0.07928000  1.0 -0.5592030175
O  O95  1  0.84870000  0.51890000  0.10560000  1.0 -0.5592030175
O  O96  1  0.57947000  0.18157000  0.23444000  1.0 -0.5549688499
O  O97  1  0.92015000  0.66872000  0.14507000  1.0 -0.6705558608
O  O98  1  0.07308000  0.79424000  0.11532000  1.0 -0.5945031653
O  O99  1  0.61068000  0.27837000  0.22225000  1.0 -0.5795161517
O  O100  1  0.41211000  0.04247000  0.15778000  1.0 -0.5739791979
O  O101  1  0.09889000  0.95971000  0.29980000  1.0 -0.6246186654
O  O102  1  0.31601000  0.97797000  0.95558000  1.0 -0.6086484428
O  O103  1  0.42826000  0.14000000  0.95366000  1.0 -0.5795161517
O  O104  1  0.85082000  0.32690000  0.21112000  1.0 -0.5739791979
O  O105  1  0.93501000  0.79114000  0.25295000  1.0 -0.5795161517
O  O106  1  0.47171000  0.22866000  0.19857000  1.0 -0.6246186654
O  O107  1  0.47352000  0.23663000  0.26935000  1.0 -0.742449538
O  O108  1  0.97766000  0.45221000  0.16647000  1.0 -0.6086484428
O  O109  1  0.12784000  0.51761000  0.13085000  1.0 -0.6628201949
O  O110  1  0.64732000  0.00183000  0.23435000  1.0 -0.6978509585
O  O111  1  0.89112000  0.27874000  0.12326000  1.0 -0.6628201949
O  O112  1  0.68744000  0.10816000  0.24700000  1.0 -0.5592030175
O  O113  1  0.76890000  0.16330000  0.17020000  1.0 -0.5592030175
O  O114  1  0.43157000  0.69713000  0.10210000  1.0 -0.5549688499
O  O115  1  0.91872000  0.27365000  0.24857000  1.0 -0.6705558608
O  O116  1  0.04424000  0.42892000  0.22116000  1.0 -0.5945031653
O  O117  1  0.52837000  0.80612000  0.16769000  1.0 -0.5795161517
O  O118  1  0.29247000  0.63469000  0.13036000  1.0 -0.5739791979
O  O119  1  0.20971000  0.40991000  0.36082000  1.0 -0.6246186654
O  O120  1  0.22797000  0.77239000  0.16196000  1.0 -0.6086484428
O  O121  1  0.39000000  0.93634000  0.21174000  1.0 -0.5795161517
O  O122  1  0.57690000  0.86578000  0.97608000  1.0 -0.5795161517
O  O123  1  0.04114000  0.28819000  0.35613000  1.0 -0.5795161517
O  O124  1  0.47866000  0.78009000  0.25695000  1.0 -0.6252225201
O  O125  1  0.48663000  0.71728000  0.26311000  1.0 -0.742449538
O  O126  1  0.70221000  0.03574000  0.97455000  1.0 -0.6086484428
O  O127  1  0.38676000  0.99699000  0.86915000  1.0 -0.6628201949
O  O128  1  0.76748000  0.41297000  0.76565000  1.0 -0.6978509585
O  O129  1  0.15548000  0.76786000  0.87674000  1.0 -0.6628201949
O  O130  1  0.86116000  0.44044000  0.75300000  1.0 -0.5592030175
O  O131  1  0.99310000  0.59870000  0.82980000  1.0 -0.5592030175
O  O132  1  0.59503000  0.32947000  0.89790000  1.0 -0.5592030175
O  O133  1  0.02508000  0.67015000  0.75143000  1.0 -0.6705558608
O  O134  1  0.20776000  0.82308000  0.77884000  1.0 -0.5945031653
O  O135  1  0.63843000  0.36068000  0.83231000  1.0 -0.5795161517
O  O136  1  0.50433000  0.16211000  0.86964000  1.0 -0.5739791979
O  O137  1  0.04909000  0.84889000  0.63918000  1.0 -0.6246186654
O  O138  1  0.61043000  0.06601000  0.83804000  1.0 -0.6086484428
O  O139  1  0.72460000  0.17826000  0.78826000  1.0 -0.5795161517
O  O140  1  0.88970000  0.60082000  0.02392000  1.0 -0.5739791979
O  O141  1  0.93206000  0.68501000  0.64387000  1.0 -0.5795161517
O  O142  1  0.52314000  0.22171000  0.74305000  1.0 -0.6246186654
O  O143  1  0.45417000  0.22352000  0.73689000  1.0 -0.742449538
O  O144  1  0.06119000  0.72766000  0.02545000  1.0 -0.6086484428
