# DDEC6 charges by PACMAN v1.1 (https://github.com/mtap-research/PACMAN-charge/)
data_IZIGUV_ion_pacman
_symmetry_space_group_name_H-M   'P 1'
_cell_length_a   21.03800000
_cell_length_b   12.51120000
_cell_length_c   53.18400000
_cell_angle_alpha   90.00000000
_cell_angle_beta   94.50900000
_cell_angle_gamma   90.00000000
_symmetry_Int_Tables_number   1
_chemical_formula_structural   In2H71C84N11O15
_chemical_formula_sum   'In8 H284 C336 N44 O60'
_cell_volume   13955.26822327
_cell_formula_units_Z   4
loop_
 _symmetry_equiv_pos_site_id
 _symmetry_equiv_pos_as_xyz
  1  'x, y, z'
loop_
 _atom_site_type_symbol
 _atom_site_label
 _atom_site_symmetry_multiplicity
 _atom_site_fract_x
 _atom_site_fract_y
 _atom_site_fract_z
 _atom_site_occupancy
 _atom_site_charge
In  In1  1  0.87053000  0.12675000  0.30228000  1.0 0.8819151938
In  In2  1  0.87053000  0.37325000  0.80228000  1.0 0.8819151938
In  In3  1  0.38881000  0.81330000  0.05366000  1.0 1.2079761446
In  In4  1  0.38881000  0.68670000  0.55366000  1.0 1.2079761446
In  In5  1  0.12947000  0.62675000  0.19772000  1.0 0.8929523051
In  In6  1  0.12947000  0.87325000  0.69772000  1.0 0.8929523051
In  In7  1  0.61119000  0.31330000  0.44634000  1.0 1.2079761446
In  In8  1  0.61119000  0.18670000  0.94634000  1.0 1.2079761446
H  H1  1  0.46600000  0.99270000  0.08260000  1.0 0.383250092
H  H2  1  0.46600000  0.50730000  0.58260000  1.0 0.383250092
H  H3  1  0.50560000  0.96500000  0.06120000  1.0 0.3591628492
H  H4  1  0.50560000  0.53500000  0.56120000  1.0 0.3591628492
H  H5  1  0.64680000  0.47090000  0.18410000  1.0 0.2704410672
H  H6  1  0.64680000  0.02910000  0.68410000  1.0 0.2640624762
H  H7  1  0.65350000  0.56810000  0.92500000  1.0 0.2704410672
H  H8  1  0.65350000  0.93190000  0.42500000  1.0 0.2704410672
H  H9  1  0.15470000  0.93270000  0.20080000  1.0 0.2914764702
H  H10  1  0.15470000  0.56730000  0.70080000  1.0 0.2914764702
H  H11  1  0.12590000  0.13070000  0.92230000  1.0 0.2433907609
H  H12  1  0.12590000  0.36930000  0.42230000  1.0 0.2451825559
H  H13  1  0.24580000  0.29020000  0.96990000  1.0 0.1102950252
H  H14  1  0.24580000  0.20980000  0.46990000  1.0 0.1102950252
H  H15  1  0.45990000  0.68010000  0.14360000  1.0 0.11977736
H  H16  1  0.45990000  0.81990000  0.64360000  1.0 0.11977736
H  H17  1  0.02320000  0.21300000  0.24570000  1.0 0.1102950252
H  H18  1  0.02320000  0.28700000  0.74570000  1.0 0.1102950252
H  H19  1  0.58500000  0.56240000  0.06460000  1.0 0.11977736
H  H20  1  0.58500000  0.93760000  0.56460000  1.0 0.11977736
H  H21  1  0.23650000  0.80640000  0.13530000  1.0 0.11977736
H  H22  1  0.23650000  0.69360000  0.63530000  1.0 0.11977736
H  H23  1  0.58510000  0.62860000  0.02060000  1.0 0.11977736
H  H24  1  0.58510000  0.87140000  0.52060000  1.0 0.11977736
H  H25  1  0.55890000  0.90620000  0.97940000  1.0 0.11977736
H  H26  1  0.55890000  0.59380000  0.47940000  1.0 0.11977736
H  H27  1  0.71920000  0.36780000  0.86190000  1.0 0.1102950252
H  H28  1  0.71920000  0.13220000  0.36190000  1.0 0.1102950252
H  H29  1  0.08010000  0.86640000  0.22670000  1.0 0.1285290265
H  H30  1  0.08010000  0.63360000  0.72670000  1.0 0.1285290265
H  H31  1  0.31760000  0.08800000  0.13000000  1.0 0.1285290265
H  H32  1  0.31760000  0.41200000  0.63000000  1.0 0.1285290265
H  H33  1  0.26450000  0.15000000  0.16280000  1.0 0.11977736
H  H34  1  0.26450000  0.35000000  0.66280000  1.0 0.11977736
H  H35  1  0.00220000  0.90020000  0.25410000  1.0 0.11977736
H  H36  1  0.00220000  0.59980000  0.75410000  1.0 0.11977736
H  H37  1  0.18190000  0.86540000  0.16880000  1.0 0.1285290265
H  H38  1  0.18190000  0.63460000  0.66880000  1.0 0.1285290265
H  H39  1  0.76100000  0.41650000  0.25570000  1.0 0.11977736
H  H40  1  0.76100000  0.08350000  0.75570000  1.0 0.11977736
H  H41  1  0.34880000  0.00250000  0.96690000  1.0 0.1102950252
H  H42  1  0.34880000  0.49750000  0.46690000  1.0 0.1102950252
H  H43  1  0.21300000  0.04660000  0.08980000  1.0 0.1285290265
H  H44  1  0.21300000  0.45340000  0.58980000  1.0 0.1285290265
H  H45  1  0.10710000  0.18290000  0.22020000  1.0 0.1410018325
H  H46  1  0.10710000  0.31710000  0.72020000  1.0 0.1410018325
H  H47  1  0.43870000  0.89450000  0.96160000  1.0 0.1102950252
H  H48  1  0.43870000  0.60550000  0.46160000  1.0 0.1102950252
H  H49  1  0.77580000  0.66030000  0.84770000  1.0 0.1285290265
H  H50  1  0.77580000  0.83970000  0.34770000  1.0 0.1285290265
H  H51  1  0.70300000  0.48730000  0.22080000  1.0 0.1285290265
H  H52  1  0.70300000  0.01270000  0.72080000  1.0 0.1285290265
H  H53  1  0.71930000  0.72900000  0.88000000  1.0 0.11977736
H  H54  1  0.71930000  0.77100000  0.38000000  1.0 0.11977736
H  H55  1  0.20160000  0.08220000  0.04490000  1.0 0.1102950252
H  H56  1  0.20160000  0.41780000  0.54490000  1.0 0.1102950252
H  H57  1  0.66250000  0.42820000  0.89430000  1.0 0.1285290265
H  H58  1  0.66250000  0.07180000  0.39430000  1.0 0.1285290265
H  H59  1  0.72240000  0.12340000  0.22910000  1.0 0.1102950252
H  H60  1  0.72240000  0.37660000  0.72910000  1.0 0.1102950252
H  H61  1  0.60910000  0.87820000  0.94340000  1.0 0.11977736
H  H62  1  0.60910000  0.62180000  0.44340000  1.0 0.11977736
H  H63  1  0.56520000  0.57120000  0.94370000  1.0 0.11977736
H  H64  1  0.56520000  0.92880000  0.44370000  1.0 0.11977736
H  H65  1  0.02230000  0.41510000  0.87100000  1.0 0.1285290265
H  H66  1  0.02230000  0.08490000  0.37100000  1.0 0.1285290265
H  H67  1  0.51130000  0.59530000  0.97990000  1.0 0.11977736
H  H68  1  0.51130000  0.90470000  0.47990000  1.0 0.11977736
H  H69  1  0.59650000  0.67390000  0.12120000  1.0 0.11977736
H  H70  1  0.59650000  0.82610000  0.62120000  1.0 0.11977736
H  H71  1  0.28840000  0.56320000  0.03450000  1.0 0.0987977309
H  H72  1  0.28840000  0.93680000  0.53450000  1.0 0.0987977309
H  H73  1  0.66390000  0.19520000  0.19450000  1.0 0.1285290265
H  H74  1  0.66390000  0.30480000  0.69450000  1.0 0.1285290265
H  H75  1  0.37250000  0.80610000  0.15030000  1.0 0.1285290265
H  H76  1  0.37250000  0.69390000  0.65030000  1.0 0.1285290265
H  H77  1  0.65120000  0.55800000  0.14880000  1.0 0.1102950252
H  H78  1  0.65120000  0.94200000  0.64880000  1.0 0.1102950252
H  H79  1  0.12650000  0.03720000  0.96400000  1.0 0.11977736
H  H80  1  0.12650000  0.46280000  0.46400000  1.0 0.1102950252
H  H81  1  0.46740000  0.45290000  0.10300000  1.0 0.11977736
H  H82  1  0.46740000  0.04710000  0.60300000  1.0 0.11977736
H  H83  1  0.96820000  0.11330000  0.86120000  1.0 0.11977736
H  H84  1  0.96820000  0.38670000  0.36120000  1.0 0.11977736
H  H85  1  0.08130000  0.37250000  0.90810000  1.0 0.1285290265
H  H86  1  0.08130000  0.12750000  0.40810000  1.0 0.1285290265
H  H87  1  0.51390000  0.33760000  0.13280000  1.0 0.1285290265
H  H88  1  0.51390000  0.16240000  0.63280000  1.0 0.1285290265
H  H89  1  0.29710000  0.19680000  0.00410000  1.0 0.11977736
H  H90  1  0.29710000  0.30320000  0.50410000  1.0 0.11977736
H  H91  1  0.18900000  0.94860000  0.99280000  1.0 0.11977736
H  H92  1  0.18900000  0.55140000  0.49280000  1.0 0.11977736
H  H93  1  0.03650000  0.07020000  0.89700000  1.0 0.11977736
H  H94  1  0.03650000  0.42980000  0.39700000  1.0 0.11977736
H  H95  1  0.53400000  0.49270000  0.41740000  1.0 0.383250092
H  H96  1  0.53400000  0.00730000  0.91740000  1.0 0.383250092
H  H97  1  0.49440000  0.46500000  0.43880000  1.0 0.3591628492
H  H98  1  0.49440000  0.03500000  0.93880000  1.0 0.3591628492
H  H99  1  0.35320000  0.97090000  0.31590000  1.0 0.2704410672
H  H100  1  0.35320000  0.52910000  0.81590000  1.0 0.2640624762
H  H101  1  0.34650000  0.06810000  0.57500000  1.0 0.2704410672
H  H102  1  0.34650000  0.43190000  0.07500000  1.0 0.2704410672
H  H103  1  0.84530000  0.43270000  0.29920000  1.0 0.2914764702
H  H104  1  0.84530000  0.06730000  0.79920000  1.0 0.2914764702
H  H105  1  0.87410000  0.63070000  0.57770000  1.0 0.2451825559
H  H106  1  0.87410000  0.86930000  0.07770000  1.0 0.2433907609
H  H107  1  0.75420000  0.79020000  0.53010000  1.0 0.1102950252
H  H108  1  0.75420000  0.70980000  0.03010000  1.0 0.1102950252
H  H109  1  0.54010000  0.18010000  0.35640000  1.0 0.11977736
H  H110  1  0.54010000  0.31990000  0.85640000  1.0 0.11977736
H  H111  1  0.97680000  0.71300000  0.25430000  1.0 0.1102950252
H  H112  1  0.97680000  0.78700000  0.75430000  1.0 0.1102950252
H  H113  1  0.41500000  0.06240000  0.43540000  1.0 0.11977736
H  H114  1  0.41500000  0.43760000  0.93540000  1.0 0.11977736
H  H115  1  0.76350000  0.30640000  0.36470000  1.0 0.11977736
H  H116  1  0.76350000  0.19360000  0.86470000  1.0 0.11977736
H  H117  1  0.41490000  0.12860000  0.47940000  1.0 0.11977736
H  H118  1  0.41490000  0.37140000  0.97940000  1.0 0.11977736
H  H119  1  0.44110000  0.40620000  0.52060000  1.0 0.11977736
H  H120  1  0.44110000  0.09380000  0.02060000  1.0 0.11977736
H  H121  1  0.28080000  0.86780000  0.63810000  1.0 0.1102950252
H  H122  1  0.28080000  0.63220000  0.13810000  1.0 0.1102950252
H  H123  1  0.91990000  0.36640000  0.27330000  1.0 0.1285290265
H  H124  1  0.91990000  0.13360000  0.77330000  1.0 0.1285290265
H  H125  1  0.68240000  0.58800000  0.37000000  1.0 0.1285290265
H  H126  1  0.68240000  0.91200000  0.87000000  1.0 0.1285290265
H  H127  1  0.73550000  0.65000000  0.33720000  1.0 0.11977736
H  H128  1  0.73550000  0.85000000  0.83720000  1.0 0.11977736
H  H129  1  0.99780000  0.40020000  0.24590000  1.0 0.11977736
H  H130  1  0.99780000  0.09980000  0.74590000  1.0 0.11977736
H  H131  1  0.81810000  0.36540000  0.33120000  1.0 0.1285290265
H  H132  1  0.81810000  0.13460000  0.83120000  1.0 0.1285290265
H  H133  1  0.23900000  0.91650000  0.24430000  1.0 0.11977736
H  H134  1  0.23900000  0.58350000  0.74430000  1.0 0.11977736
H  H135  1  0.65120000  0.50250000  0.53310000  1.0 0.1102950252
H  H136  1  0.65120000  0.99750000  0.03310000  1.0 0.1102950252
H  H137  1  0.78700000  0.54660000  0.41020000  1.0 0.1285290265
H  H138  1  0.78700000  0.95340000  0.91020000  1.0 0.1285290265
H  H139  1  0.89290000  0.68290000  0.27980000  1.0 0.1410018325
H  H140  1  0.89290000  0.81710000  0.77980000  1.0 0.1410018325
H  H141  1  0.56130000  0.39450000  0.53840000  1.0 0.1102950252
H  H142  1  0.56130000  0.10550000  0.03840000  1.0 0.1102950252
H  H143  1  0.22420000  0.16030000  0.65230000  1.0 0.1285290265
H  H144  1  0.22420000  0.33970000  0.15230000  1.0 0.1285290265
H  H145  1  0.29700000  0.98730000  0.27920000  1.0 0.1285290265
H  H146  1  0.29700000  0.51270000  0.77920000  1.0 0.1285290265
H  H147  1  0.28070000  0.22900000  0.62000000  1.0 0.11977736
H  H148  1  0.28070000  0.27100000  0.12000000  1.0 0.11977736
H  H149  1  0.79840000  0.58220000  0.45510000  1.0 0.1102950252
H  H150  1  0.79840000  0.91780000  0.95510000  1.0 0.1102950252
H  H151  1  0.33750000  0.92820000  0.60570000  1.0 0.1285290265
H  H152  1  0.33750000  0.57180000  0.10570000  1.0 0.1285290265
H  H153  1  0.27760000  0.62340000  0.27090000  1.0 0.1102950252
H  H154  1  0.27760000  0.87660000  0.77090000  1.0 0.1102950252
H  H155  1  0.39090000  0.37820000  0.55660000  1.0 0.11977736
H  H156  1  0.39090000  0.12180000  0.05660000  1.0 0.11977736
H  H157  1  0.43480000  0.07120000  0.55630000  1.0 0.11977736
H  H158  1  0.43480000  0.42880000  0.05630000  1.0 0.11977736
H  H159  1  0.97770000  0.91510000  0.62900000  1.0 0.1285290265
H  H160  1  0.97770000  0.58490000  0.12900000  1.0 0.1285290265
H  H161  1  0.48870000  0.09530000  0.52010000  1.0 0.11977736
H  H162  1  0.48870000  0.40470000  0.02010000  1.0 0.11977736
H  H163  1  0.40350000  0.17390000  0.37880000  1.0 0.11977736
H  H164  1  0.40350000  0.32610000  0.87880000  1.0 0.11977736
H  H165  1  0.71160000  0.06320000  0.46550000  1.0 0.0987977309
H  H166  1  0.71160000  0.43680000  0.96550000  1.0 0.0987977309
H  H167  1  0.33610000  0.69520000  0.30550000  1.0 0.1285290265
H  H168  1  0.33610000  0.80480000  0.80550000  1.0 0.1285290265
H  H169  1  0.62750000  0.30610000  0.34970000  1.0 0.1285290265
H  H170  1  0.62750000  0.19390000  0.84970000  1.0 0.1285290265
H  H171  1  0.34880000  0.05800000  0.35120000  1.0 0.1102950252
H  H172  1  0.34880000  0.44200000  0.85120000  1.0 0.1102950252
H  H173  1  0.87350000  0.53720000  0.53600000  1.0 0.1102950252
H  H174  1  0.87350000  0.96280000  0.03600000  1.0 0.1102950252
H  H175  1  0.53260000  0.95290000  0.39700000  1.0 0.11977736
H  H176  1  0.53260000  0.54710000  0.89700000  1.0 0.11977736
H  H177  1  0.03180000  0.61330000  0.63880000  1.0 0.11977736
H  H178  1  0.03180000  0.88670000  0.13880000  1.0 0.11977736
H  H179  1  0.91870000  0.87250000  0.59190000  1.0 0.1285290265
H  H180  1  0.91870000  0.62750000  0.09190000  1.0 0.1285290265
H  H181  1  0.48610000  0.83760000  0.36720000  1.0 0.1285290265
H  H182  1  0.48610000  0.66240000  0.86720000  1.0 0.1285290265
H  H183  1  0.70290000  0.69680000  0.49590000  1.0 0.11977736
H  H184  1  0.70290000  0.80320000  0.99590000  1.0 0.11977736
H  H185  1  0.81100000  0.44860000  0.50720000  1.0 0.11977736
H  H186  1  0.81100000  0.05140000  0.00720000  1.0 0.11977736
H  H187  1  0.96350000  0.57020000  0.60300000  1.0 0.11977736
H  H188  1  0.96350000  0.92980000  0.10300000  1.0 0.11977736
H  H189  1  0.84390000  0.73010000  0.92330000  1.0 0.1102950252
H  H190  1  0.91760000  0.74980000  0.92740000  1.0 0.0987977309
H  H191  1  0.86990000  0.83610000  0.93610000  1.0 0.0885896661
H  H192  1  0.90750000  0.75710000  0.96500000  1.0 0.2004625938
H  H193  1  0.84170000  0.74230000  0.96160000  1.0 0.16986648
H  H194  1  0.84250000  0.65510000  0.98780000  1.0 0.0885896661
H  H195  1  0.91690000  0.66640000  0.99060000  1.0 0.0784327954
H  H196  1  0.88510000  0.57310000  0.97440000  1.0 0.0987977309
H  H197  1  0.15610000  0.23010000  0.57670000  1.0 0.1102950252
H  H198  1  0.08240000  0.24980000  0.57260000  1.0 0.0987977309
H  H199  1  0.13010000  0.33610000  0.56390000  1.0 0.0885896661
H  H200  1  0.09250000  0.25710000  0.53500000  1.0 0.2004625938
H  H201  1  0.15830000  0.24230000  0.53840000  1.0 0.16986648
H  H202  1  0.15750000  0.15510000  0.51220000  1.0 0.0885896661
H  H203  1  0.08310000  0.16640000  0.50940000  1.0 0.0784327954
H  H204  1  0.11490000  0.07310000  0.52560000  1.0 0.0987977309
H  H205  1  0.15610000  0.26990000  0.07670000  1.0 0.1102950252
H  H206  1  0.08240000  0.25020000  0.07260000  1.0 0.0987977309
H  H207  1  0.13010000  0.16390000  0.06390000  1.0 0.0784327954
H  H208  1  0.09250000  0.24290000  0.03500000  1.0 0.1873293489
H  H209  1  0.15830000  0.25770000  0.03840000  1.0 0.16986648
H  H210  1  0.15750000  0.34490000  0.01220000  1.0 0.0885896661
H  H211  1  0.08310000  0.33360000  0.00940000  1.0 0.0784327954
H  H212  1  0.11490000  0.42690000  0.02560000  1.0 0.0987977309
H  H213  1  0.84390000  0.76990000  0.42330000  1.0 0.1102950252
H  H214  1  0.91760000  0.75020000  0.42740000  1.0 0.0987977309
H  H215  1  0.86990000  0.66390000  0.43610000  1.0 0.0784327954
H  H216  1  0.90750000  0.74290000  0.46500000  1.0 0.2004625938
H  H217  1  0.84170000  0.75770000  0.46160000  1.0 0.16986648
H  H218  1  0.84250000  0.84490000  0.48780000  1.0 0.0885896661
H  H219  1  0.91690000  0.83360000  0.49060000  1.0 0.0784327954
H  H220  1  0.88510000  0.92690000  0.47440000  1.0 0.0987977309
H  H221  1  0.60920000  0.90600000  0.09550000  1.0 0.1285290265
H  H222  1  0.59000000  0.84600000  0.07020000  1.0 0.1285290265
H  H223  1  0.62150000  0.95940000  0.06970000  1.0 0.0987977309
H  H224  1  0.74840000  0.78280000  0.10310000  1.0 0.11977736
H  H225  1  0.74610000  0.73370000  0.07590000  1.0 0.1102950252
H  H226  1  0.69420000  0.70200000  0.09420000  1.0 0.1285290265
H  H227  1  0.68770000  0.84000000  0.06330000  1.0 0.2213684875
H  H228  1  0.70640000  0.89980000  0.08500000  1.0 0.2213684875
H  H229  1  0.39080000  0.40600000  0.40450000  1.0 0.1285290265
H  H230  1  0.41000000  0.34600000  0.42980000  1.0 0.1285290265
H  H231  1  0.37850000  0.45940000  0.43030000  1.0 0.0987977309
H  H232  1  0.25160000  0.28280000  0.39690000  1.0 0.11977736
H  H233  1  0.25390000  0.23370000  0.42410000  1.0 0.1102950252
H  H234  1  0.30580000  0.20200000  0.40580000  1.0 0.1285290265
H  H235  1  0.31230000  0.34000000  0.43670000  1.0 0.2213684875
H  H236  1  0.29360000  0.39980000  0.41500000  1.0 0.2213684875
H  H237  1  0.39080000  0.09400000  0.90450000  1.0 0.1285290265
H  H238  1  0.41000000  0.15400000  0.92980000  1.0 0.1285290265
H  H239  1  0.37850000  0.04060000  0.93030000  1.0 0.0987977309
H  H240  1  0.25160000  0.21720000  0.89690000  1.0 0.11977736
H  H241  1  0.25390000  0.26630000  0.92410000  1.0 0.1102950252
H  H242  1  0.30580000  0.29800000  0.90580000  1.0 0.1285290265
H  H243  1  0.31230000  0.16000000  0.93670000  1.0 0.2213684875
H  H244  1  0.29360000  0.10020000  0.91500000  1.0 0.2213684875
H  H245  1  0.60920000  0.59400000  0.59550000  1.0 0.1285290265
H  H246  1  0.59000000  0.65400000  0.57020000  1.0 0.1285290265
H  H247  1  0.62150000  0.54060000  0.56970000  1.0 0.0987977309
H  H248  1  0.74840000  0.71720000  0.60310000  1.0 0.11977736
H  H249  1  0.74610000  0.76630000  0.57590000  1.0 0.1102950252
H  H250  1  0.69420000  0.79800000  0.59420000  1.0 0.1285290265
H  H251  1  0.68770000  0.66000000  0.56330000  1.0 0.2213684875
H  H252  1  0.70640000  0.60020000  0.58500000  1.0 0.2213684875
H  H253  1  0.81220000  0.15860000  0.19690000  1.0 0.2106673227
H  H254  1  0.86460000  0.13100000  0.18330000  1.0 0.2252253674
H  H255  1  0.85020000  0.01870000  0.22270000  1.0 0.1285290265
H  H256  1  0.87370000  0.98570000  0.19650000  1.0 0.11977736
H  H257  1  0.80120000  0.00770000  0.19910000  1.0 0.0987977309
H  H258  1  0.89330000  0.24300000  0.22710000  1.0 0.1285290265
H  H259  1  0.86510000  0.30480000  0.20310000  1.0 0.11977736
H  H260  1  0.93100000  0.24650000  0.20290000  1.0 0.1285290265
H  H261  1  0.18780000  0.65860000  0.30310000  1.0 0.2106673227
H  H262  1  0.13540000  0.63100000  0.31670000  1.0 0.2252253674
H  H263  1  0.14980000  0.51870000  0.27730000  1.0 0.1285290265
H  H264  1  0.12630000  0.48570000  0.30350000  1.0 0.11977736
H  H265  1  0.19880000  0.50770000  0.30090000  1.0 0.0987977309
H  H266  1  0.10670000  0.74300000  0.27290000  1.0 0.1285290265
H  H267  1  0.13490000  0.80480000  0.29690000  1.0 0.11977736
H  H268  1  0.06900000  0.74650000  0.29710000  1.0 0.1285290265
H  H269  1  0.18780000  0.84140000  0.80310000  1.0 0.2106673227
H  H270  1  0.13540000  0.86900000  0.81670000  1.0 0.2252253674
H  H271  1  0.14980000  0.98130000  0.77730000  1.0 0.1285290265
H  H272  1  0.12630000  0.01430000  0.80350000  1.0 0.11977736
H  H273  1  0.19880000  0.99230000  0.80090000  1.0 0.0987977309
H  H274  1  0.10670000  0.75700000  0.77290000  1.0 0.1285290265
H  H275  1  0.13490000  0.69520000  0.79690000  1.0 0.11977736
H  H276  1  0.06900000  0.75350000  0.79710000  1.0 0.1285290265
H  H277  1  0.81220000  0.34140000  0.69690000  1.0 0.2106673227
H  H278  1  0.86460000  0.36900000  0.68330000  1.0 0.2252253674
H  H279  1  0.85020000  0.48130000  0.72270000  1.0 0.1285290265
H  H280  1  0.87370000  0.51430000  0.69650000  1.0 0.11977736
H  H281  1  0.80120000  0.49230000  0.69910000  1.0 0.0987977309
H  H282  1  0.89330000  0.25700000  0.72710000  1.0 0.1285290265
H  H283  1  0.86510000  0.19520000  0.70310000  1.0 0.11977736
H  H284  1  0.93100000  0.25350000  0.70290000  1.0 0.1285290265
C  C1  1  0.95410000  0.07860000  0.27174000  1.0 0.506969732
C  C2  1  0.95410000  0.42140000  0.77174000  1.0 0.506969732
C  C3  1  0.59900000  0.71700000  0.94200000  1.0 -0.0182559889
C  C4  1  0.59900000  0.78300000  0.44200000  1.0 -0.0182559889
C  C5  1  0.44040000  0.71300000  0.10423000  1.0 0.1873293489
C  C6  1  0.44040000  0.78700000  0.60423000  1.0 0.1873293489
C  C7  1  0.68600000  0.58650000  0.89120000  1.0 0.2433907609
C  C8  1  0.68600000  0.91350000  0.39120000  1.0 0.2433907609
C  C9  1  0.78980000  0.21450000  0.26659000  1.0 0.4073644201
C  C10  1  0.78980000  0.28550000  0.76659000  1.0 0.4158277035
C  C11  1  0.23200000  0.22400000  0.97510000  1.0 -0.1582596689
C  C12  1  0.23200000  0.27600000  0.47510000  1.0 -0.1582596689
C  C13  1  0.79210000  0.46190000  0.83159000  1.0 0.5362358511
C  C14  1  0.79210000  0.03810000  0.33159000  1.0 0.5362358511
C  C15  1  0.29230000  0.94970000  0.08320000  1.0 0.16986648
C  C16  1  0.29230000  0.55030000  0.58320000  1.0 0.16986648
C  C17  1  0.43880000  0.84840000  0.00030000  1.0 0.16986648
C  C18  1  0.43880000  0.65160000  0.50030000  1.0 0.16986648
C  C19  1  0.09700000  0.02140000  0.21930000  1.0 0.2213684875
C  C20  1  0.09700000  0.47860000  0.71930000  1.0 0.2213684875
C  C21  1  0.48620000  0.77410000  0.00480000  1.0 -0.099697767
C  C22  1  0.48620000  0.72590000  0.50480000  1.0 -0.099697767
C  C23  1  0.50310000  0.66400000  0.06711000  1.0 0.16986648
C  C24  1  0.50310000  0.83600000  0.56711000  1.0 0.16986648
C  C25  1  0.62880000  0.71250000  0.91640000  1.0 0.4562338412
C  C26  1  0.62880000  0.78750000  0.41640000  1.0 0.4562338412
C  C27  1  0.94680000  0.30250000  0.84090000  1.0 0.5471270502
C  C28  1  0.94680000  0.19750000  0.34090000  1.0 0.5471270502
C  C29  1  0.43530000  0.71750000  0.13123000  1.0 -0.2015745736
C  C30  1  0.43530000  0.78250000  0.63123000  1.0 -0.2015745736
C  C31  1  0.35000000  0.94530000  0.00590000  1.0 0.2004625938
C  C32  1  0.35000000  0.55470000  0.50590000  1.0 0.2004625938
C  C33  1  0.03600000  0.14350000  0.24250000  1.0 -0.1097732523
C  C34  1  0.03600000  0.35650000  0.74250000  1.0 -0.1097732523
C  C35  1  0.28130000  0.94220000  0.12870000  1.0 0.0784327954
C  C36  1  0.28130000  0.55780000  0.62870000  1.0 0.0784327954
C  C37  1  0.55660000  0.61060000  0.05660000  1.0 -0.2116924405
C  C38  1  0.55660000  0.88940000  0.55660000  1.0 -0.2116924405
C  C39  1  0.24160000  0.87680000  0.14070000  1.0 -0.1389993149
C  C40  1  0.24160000  0.62320000  0.64070000  1.0 -0.1389993149
C  C41  1  0.55600000  0.64670000  0.03220000  1.0 -0.2294570748
C  C42  1  0.55600000  0.85330000  0.53220000  1.0 -0.2294570748
C  C43  1  0.55930000  0.83850000  0.97220000  1.0 -0.1495690407
C  C44  1  0.55930000  0.66150000  0.47220000  1.0 -0.1495690407
C  C45  1  0.71950000  0.44040000  0.86560000  1.0 -0.0902581654
C  C46  1  0.71950000  0.05960000  0.36560000  1.0 -0.0902581654
C  C47  1  0.06880000  0.93630000  0.23040000  1.0 -0.1911754869
C  C48  1  0.06880000  0.56370000  0.73040000  1.0 -0.1911754869
C  C49  1  0.28950000  0.04280000  0.13750000  1.0 -0.1389993149
C  C50  1  0.28950000  0.45720000  0.63750000  1.0 -0.1389993149
C  C51  1  0.25740000  0.08020000  0.15720000  1.0 -0.099697767
C  C52  1  0.25740000  0.41980000  0.65720000  1.0 -0.099697767
C  C53  1  0.02300000  0.95740000  0.24720000  1.0 -0.1097732523
C  C54  1  0.02300000  0.54260000  0.74720000  1.0 -0.1097732523
C  C55  1  0.28450000  0.98740000  0.04200000  1.0 0.1807263076
C  C56  1  0.28450000  0.51260000  0.54200000  1.0 0.1807263076
C  C57  1  0.52720000  0.57810000  0.10942000  1.0 0.0885896661
C  C58  1  0.52720000  0.92190000  0.60942000  1.0 0.0885896661
C  C59  1  0.29910000  0.99640000  0.01620000  1.0 -0.099697767
C  C60  1  0.29910000  0.50360000  0.51620000  1.0 -0.099697767
C  C61  1  0.20840000  0.91180000  0.16080000  1.0 -0.1097732523
C  C62  1  0.20840000  0.58820000  0.66080000  1.0 -0.1097732523
C  C63  1  0.74270000  0.37110000  0.24330000  1.0 -0.099697767
C  C64  1  0.74270000  0.12890000  0.74330000  1.0 -0.099697767
C  C65  1  0.21550000  0.01730000  0.16880000  1.0 -0.0303544758
C  C66  1  0.21550000  0.48270000  0.66880000  1.0 -0.0303544758
C  C67  1  0.36930000  0.95920000  0.97920000  1.0 -0.1808208685
C  C68  1  0.36930000  0.54080000  0.47920000  1.0 -0.1808208685
C  C69  1  0.17830000  0.06500000  0.18910000  1.0 0.4509274458
C  C70  1  0.17830000  0.43500000  0.68910000  1.0 0.4509274458
C  C71  1  0.23920000  0.01990000  0.07800000  1.0 -0.1808208685
C  C72  1  0.23920000  0.48010000  0.57800000  1.0 -0.1808208685
C  C73  1  0.08430000  0.12600000  0.22620000  1.0 -0.1911754869
C  C74  1  0.08430000  0.37400000  0.72620000  1.0 -0.1911754869
C  C75  1  0.41870000  0.90150000  0.97650000  1.0 -0.1808208685
C  C76  1  0.41870000  0.59850000  0.47650000  1.0 -0.1808208685
C  C77  1  0.00720000  0.05850000  0.25390000  1.0 -0.0182559889
C  C78  1  0.00720000  0.44150000  0.75390000  1.0 -0.0182559889
C  C79  1  0.98690000  0.27250000  0.86340000  1.0 -0.0505826862
C  C80  1  0.98690000  0.22750000  0.36340000  1.0 -0.0505826862
C  C81  1  0.75070000  0.26050000  0.24580000  1.0 -0.0592801228
C  C82  1  0.75070000  0.23950000  0.74580000  1.0 -0.0592801228
C  C83  1  0.68010000  0.34870000  0.20400000  1.0 0.2213684875
C  C84  1  0.68010000  0.15130000  0.70400000  1.0 0.2106673227
C  C85  1  0.75300000  0.61320000  0.85710000  1.0 -0.0902581654
C  C86  1  0.75300000  0.88680000  0.35710000  1.0 -0.0902581654
C  C87  1  0.70770000  0.41360000  0.22230000  1.0 -0.2015745736
C  C88  1  0.70770000  0.08640000  0.72230000  1.0 -0.2015745736
C  C89  1  0.75430000  0.50900000  0.85130000  1.0 -0.0303544758
C  C90  1  0.75430000  0.99100000  0.35130000  1.0 -0.0303544758
C  C91  1  0.59130000  0.43700000  0.14350000  1.0 -0.0303544758
C  C92  1  0.59130000  0.06300000  0.64350000  1.0 -0.0303544758
C  C93  1  0.71920000  0.65590000  0.87680000  1.0 -0.2015745736
C  C94  1  0.71920000  0.84410000  0.37680000  1.0 -0.2015745736
C  C95  1  0.23330000  0.04070000  0.05330000  1.0 -0.2116924405
C  C96  1  0.23330000  0.45930000  0.55330000  1.0 -0.2116924405
C  C97  1  0.68550000  0.47600000  0.88520000  1.0 -0.1911754869
C  C98  1  0.68550000  0.02400000  0.38520000  1.0 -0.1911754869
C  C99  1  0.25420000  0.05960000  0.99910000  1.0 0.0719925434
C  C100  1  0.25420000  0.44040000  0.49910000  1.0 0.0719925434
C  C101  1  0.71960000  0.19730000  0.22750000  1.0 -0.099697767
C  C102  1  0.71960000  0.30270000  0.72750000  1.0 -0.099697767
C  C103  1  0.59160000  0.82070000  0.95150000  1.0 -0.1178393841
C  C104  1  0.59160000  0.67930000  0.45150000  1.0 -0.1178393841
C  C105  1  0.61920000  0.35540000  0.16190000  1.0 0.4509274458
C  C106  1  0.61920000  0.14460000  0.66190000  1.0 0.4509274458
C  C107  1  0.56560000  0.63790000  0.95140000  1.0 -0.1097732523
C  C108  1  0.56560000  0.86210000  0.45140000  1.0 -0.1097732523
C  C109  1  0.02220000  0.34490000  0.87670000  1.0 -0.0675035642
C  C110  1  0.02220000  0.15510000  0.37670000  1.0 -0.0675035642
C  C111  1  0.53100000  0.65290000  0.97265000  1.0 -0.1495690407
C  C112  1  0.53100000  0.84710000  0.47265000  1.0 -0.1495690407
C  C113  1  0.58050000  0.60530000  0.12300000  1.0 -0.1495690407
C  C114  1  0.58050000  0.89470000  0.62300000  1.0 -0.1582596689
C  C115  1  0.52670000  0.75390000  0.98255000  1.0 0.0987977309
C  C116  1  0.52670000  0.74610000  0.48255000  1.0 0.0987977309
C  C117  1  0.13660000  0.23700000  0.94460000  1.0 0.4371812463
C  C118  1  0.13660000  0.26300000  0.44460000  1.0 0.4371812463
C  C119  1  0.50260000  0.71700000  0.02770000  1.0 0.16986648
C  C120  1  0.50260000  0.78300000  0.52770000  1.0 0.16986648
C  C121  1  0.31690000  0.60930000  0.04320000  1.0 0.4509274458
C  C122  1  0.31690000  0.89070000  0.54320000  1.0 0.4509274458
C  C123  1  0.48910000  0.65630000  0.09260000  1.0 -0.0781953467
C  C124  1  0.48910000  0.84370000  0.59260000  1.0 -0.0781953467
C  C125  1  0.68430000  0.24000000  0.20660000  1.0 -0.1911754869
C  C126  1  0.68430000  0.26000000  0.70660000  1.0 -0.1911754869
C  C127  1  0.38740000  0.78770000  0.13484000  1.0 -0.1911754869
C  C128  1  0.38740000  0.71230000  0.63484000  1.0 -0.1911754869
C  C129  1  0.61360000  0.53570000  0.14000000  1.0 -0.1294031215
C  C130  1  0.61360000  0.96430000  0.64000000  1.0 -0.1294031215
C  C131  1  0.31400000  0.90320000  0.10637000  1.0 -0.0505826862
C  C132  1  0.31400000  0.59680000  0.60637000  1.0 -0.0505826862
C  C133  1  0.16260000  0.07100000  0.97140000  1.0 -0.1389993149
C  C134  1  0.16260000  0.42900000  0.47140000  1.0 -0.1389993149
C  C135  1  0.36430000  0.82740000  0.11097000  1.0 0.1473501742
C  C136  1  0.36430000  0.67260000  0.61097000  1.0 0.1473501742
C  C137  1  0.50370000  0.47450000  0.11280000  1.0 -0.1495690407
C  C138  1  0.50370000  0.02550000  0.61280000  1.0 -0.1495690407
C  C139  1  0.99070000  0.16610000  0.87040000  1.0 -0.0781953467
C  C140  1  0.99070000  0.33390000  0.37040000  1.0 -0.0781953467
C  C141  1  0.05890000  0.31960000  0.89890000  1.0 -0.2015745736
C  C142  1  0.05890000  0.18040000  0.39890000  1.0 -0.2015745736
C  C143  1  0.53200000  0.40390000  0.12990000  1.0 -0.099697767
C  C144  1  0.53200000  0.09610000  0.62990000  1.0 -0.099697767
C  C145  1  0.06130000  0.21480000  0.90700000  1.0 0.2106673227
C  C146  1  0.06130000  0.28520000  0.40700000  1.0 0.2106673227
C  C147  1  0.26500000  0.16270000  0.99410000  1.0 -0.1808208685
C  C148  1  0.26500000  0.33730000  0.49410000  1.0 -0.1808208685
C  C149  1  0.17430000  0.17240000  0.96450000  1.0 -0.0430760292
C  C150  1  0.17430000  0.32760000  0.46450000  1.0 -0.0430760292
C  C151  1  0.20050000  0.01700000  0.98830000  1.0 -0.1294031215
C  C152  1  0.20050000  0.48300000  0.48830000  1.0 -0.1294031215
C  C153  1  0.03110000  0.14160000  0.89250000  1.0 -0.2294570748
C  C154  1  0.03110000  0.35840000  0.39250000  1.0 -0.2249414652
C  C155  1  0.84870000  0.12080000  0.29520000  1.0 0.1285290265
C  C156  1  0.84870000  0.37920000  0.79520000  1.0 0.1285290265
C  C157  1  0.04590000  0.57860000  0.22826000  1.0 0.506969732
C  C158  1  0.04590000  0.92140000  0.72826000  1.0 0.506969732
C  C159  1  0.40100000  0.21700000  0.55800000  1.0 -0.0182559889
C  C160  1  0.40100000  0.28300000  0.05800000  1.0 -0.0182559889
C  C161  1  0.55960000  0.21300000  0.39577000  1.0 0.1807263076
C  C162  1  0.55960000  0.28700000  0.89577000  1.0 0.1873293489
C  C163  1  0.31400000  0.08650000  0.60880000  1.0 0.2433907609
C  C164  1  0.31400000  0.41350000  0.10880000  1.0 0.2433907609
C  C165  1  0.21020000  0.71450000  0.23341000  1.0 0.4073644201
C  C166  1  0.21020000  0.78550000  0.73341000  1.0 0.4073644201
C  C167  1  0.76800000  0.72400000  0.52490000  1.0 -0.1582596689
C  C168  1  0.76800000  0.77600000  0.02490000  1.0 -0.1582596689
C  C169  1  0.20790000  0.96190000  0.66841000  1.0 0.5362358511
C  C170  1  0.20790000  0.53810000  0.16841000  1.0 0.5362358511
C  C171  1  0.70770000  0.44970000  0.41680000  1.0 0.16986648
C  C172  1  0.70770000  0.05030000  0.91680000  1.0 0.16986648
C  C173  1  0.56120000  0.34840000  0.49970000  1.0 0.16986648
C  C174  1  0.56120000  0.15160000  0.99970000  1.0 0.16986648
C  C175  1  0.90300000  0.52140000  0.28070000  1.0 0.2213684875
C  C176  1  0.90300000  0.97860000  0.78070000  1.0 0.2213684875
C  C177  1  0.51380000  0.27410000  0.49520000  1.0 -0.099697767
C  C178  1  0.51380000  0.22590000  0.99520000  1.0 -0.099697767
C  C179  1  0.49690000  0.16400000  0.43289000  1.0 0.16986648
C  C180  1  0.49690000  0.33600000  0.93289000  1.0 0.16986648
C  C181  1  0.37120000  0.21250000  0.58360000  1.0 0.4562338412
C  C182  1  0.37120000  0.28750000  0.08360000  1.0 0.4562338412
C  C183  1  0.05320000  0.80250000  0.65910000  1.0 0.5471270502
C  C184  1  0.05320000  0.69750000  0.15910000  1.0 0.5471270502
C  C185  1  0.56470000  0.21750000  0.36877000  1.0 -0.2015745736
C  C186  1  0.56470000  0.28250000  0.86877000  1.0 -0.2015745736
C  C187  1  0.65000000  0.44530000  0.49410000  1.0 0.2004625938
C  C188  1  0.65000000  0.05470000  0.99410000  1.0 0.2004625938
C  C189  1  0.96400000  0.64350000  0.25750000  1.0 -0.1097732523
C  C190  1  0.96400000  0.85650000  0.75750000  1.0 -0.1097732523
C  C191  1  0.71870000  0.44220000  0.37130000  1.0 0.0784327954
C  C192  1  0.71870000  0.05780000  0.87130000  1.0 0.0784327954
C  C193  1  0.44340000  0.11060000  0.44340000  1.0 -0.2116924405
C  C194  1  0.44340000  0.38940000  0.94340000  1.0 -0.2116924405
C  C195  1  0.75840000  0.37680000  0.35930000  1.0 -0.1389993149
C  C196  1  0.75840000  0.12320000  0.85930000  1.0 -0.1389993149
C  C197  1  0.44400000  0.14670000  0.46780000  1.0 -0.2294570748
C  C198  1  0.44400000  0.35330000  0.96780000  1.0 -0.2294570748
C  C199  1  0.44070000  0.33850000  0.52780000  1.0 -0.1495690407
C  C200  1  0.44070000  0.16150000  0.02780000  1.0 -0.1495690407
C  C201  1  0.28050000  0.94040000  0.63440000  1.0 -0.0902581654
C  C202  1  0.28050000  0.55960000  0.13440000  1.0 -0.0902581654
C  C203  1  0.93120000  0.43630000  0.26960000  1.0 -0.1911754869
C  C204  1  0.93120000  0.06370000  0.76960000  1.0 -0.1911754869
C  C205  1  0.71050000  0.54280000  0.36250000  1.0 -0.1389993149
C  C206  1  0.71050000  0.95720000  0.86250000  1.0 -0.1389993149
C  C207  1  0.74260000  0.58020000  0.34280000  1.0 -0.099697767
C  C208  1  0.74260000  0.91980000  0.84280000  1.0 -0.099697767
C  C209  1  0.97700000  0.45740000  0.25280000  1.0 -0.1097732523
C  C210  1  0.97700000  0.04260000  0.75280000  1.0 -0.1097732523
C  C211  1  0.71550000  0.48740000  0.45800000  1.0 0.1807263076
C  C212  1  0.71550000  0.01260000  0.95800000  1.0 0.1807263076
C  C213  1  0.47280000  0.07810000  0.39058000  1.0 0.0885896661
C  C214  1  0.47280000  0.42190000  0.89058000  1.0 0.0885896661
C  C215  1  0.70090000  0.49640000  0.48380000  1.0 -0.099697767
C  C216  1  0.70090000  0.00360000  0.98380000  1.0 -0.099697767
C  C217  1  0.79160000  0.41180000  0.33920000  1.0 -0.1097732523
C  C218  1  0.79160000  0.08820000  0.83920000  1.0 -0.1097732523
C  C219  1  0.25730000  0.87110000  0.25670000  1.0 -0.099697767
C  C220  1  0.25730000  0.62890000  0.75670000  1.0 -0.099697767
C  C221  1  0.78450000  0.51730000  0.33120000  1.0 -0.0303544758
C  C222  1  0.78450000  0.98270000  0.83120000  1.0 -0.0303544758
C  C223  1  0.63070000  0.45920000  0.52080000  1.0 -0.1808208685
C  C224  1  0.63070000  0.04080000  0.02080000  1.0 -0.1808208685
C  C225  1  0.82170000  0.56500000  0.31090000  1.0 0.4509274458
C  C226  1  0.82170000  0.93500000  0.81090000  1.0 0.4509274458
C  C227  1  0.76080000  0.51990000  0.42200000  1.0 -0.1808208685
C  C228  1  0.76080000  0.98010000  0.92200000  1.0 -0.1808208685
C  C229  1  0.91570000  0.62600000  0.27380000  1.0 -0.1911754869
C  C230  1  0.91570000  0.87400000  0.77380000  1.0 -0.1911754869
C  C231  1  0.58130000  0.40150000  0.52350000  1.0 -0.1808208685
C  C232  1  0.58130000  0.09850000  0.02350000  1.0 -0.1808208685
C  C233  1  0.99280000  0.55850000  0.24610000  1.0 -0.0182559889
C  C234  1  0.99280000  0.94150000  0.74610000  1.0 -0.0182559889
C  C235  1  0.01310000  0.77250000  0.63660000  1.0 -0.0505826862
C  C236  1  0.01310000  0.72750000  0.13660000  1.0 -0.0505826862
C  C237  1  0.24930000  0.76050000  0.25420000  1.0 -0.0592801228
C  C238  1  0.24930000  0.73950000  0.75420000  1.0 -0.0592801228
C  C239  1  0.31990000  0.84870000  0.29600000  1.0 0.2106673227
C  C240  1  0.31990000  0.65130000  0.79600000  1.0 0.2106673227
C  C241  1  0.24700000  0.11320000  0.64290000  1.0 -0.0902581654
C  C242  1  0.24700000  0.38680000  0.14290000  1.0 -0.0902581654
C  C243  1  0.29230000  0.91360000  0.27770000  1.0 -0.2015745736
C  C244  1  0.29230000  0.58640000  0.77770000  1.0 -0.2015745736
C  C245  1  0.24570000  0.00900000  0.64870000  1.0 -0.0303544758
C  C246  1  0.24570000  0.49100000  0.14870000  1.0 -0.0303544758
C  C247  1  0.40870000  0.93700000  0.35650000  1.0 -0.0303544758
C  C248  1  0.40870000  0.56300000  0.85650000  1.0 -0.0303544758
C  C249  1  0.28080000  0.15590000  0.62320000  1.0 -0.2015745736
C  C250  1  0.28080000  0.34410000  0.12320000  1.0 -0.2015745736
C  C251  1  0.76670000  0.54070000  0.44670000  1.0 -0.2015745736
C  C252  1  0.76670000  0.95930000  0.94670000  1.0 -0.2015745736
C  C253  1  0.31450000  0.97600000  0.61480000  1.0 -0.1911754869
C  C254  1  0.31450000  0.52400000  0.11480000  1.0 -0.1911754869
C  C255  1  0.74580000  0.55960000  0.50090000  1.0 0.0719925434
C  C256  1  0.74580000  0.94040000  0.00090000  1.0 0.0719925434
C  C257  1  0.28040000  0.69730000  0.27250000  1.0 -0.099697767
C  C258  1  0.28040000  0.80270000  0.77250000  1.0 -0.099697767
C  C259  1  0.40840000  0.32070000  0.54850000  1.0 -0.1178393841
C  C260  1  0.40840000  0.17930000  0.04850000  1.0 -0.1178393841
C  C261  1  0.38080000  0.85540000  0.33810000  1.0 0.4509274458
C  C262  1  0.38080000  0.64460000  0.83810000  1.0 0.4509274458
C  C263  1  0.43440000  0.13790000  0.54860000  1.0 -0.1097732523
C  C264  1  0.43440000  0.36210000  0.04860000  1.0 -0.1097732523
C  C265  1  0.97780000  0.84490000  0.62330000  1.0 -0.0675035642
C  C266  1  0.97780000  0.65510000  0.12330000  1.0 -0.0675035642
C  C267  1  0.46900000  0.15290000  0.52735000  1.0 -0.1495690407
C  C268  1  0.46900000  0.34710000  0.02735000  1.0 -0.1495690407
C  C269  1  0.41950000  0.10530000  0.37700000  1.0 -0.1495690407
C  C270  1  0.41950000  0.39470000  0.87700000  1.0 -0.1495690407
C  C271  1  0.47330000  0.25390000  0.51745000  1.0 0.0987977309
C  C272  1  0.47330000  0.24610000  0.01745000  1.0 0.0987977309
C  C273  1  0.86340000  0.73700000  0.55540000  1.0 0.4371812463
C  C274  1  0.86340000  0.76300000  0.05540000  1.0 0.4371812463
C  C275  1  0.49740000  0.21700000  0.47230000  1.0 0.16986648
C  C276  1  0.49740000  0.28300000  0.97230000  1.0 0.16986648
C  C277  1  0.68310000  0.10930000  0.45680000  1.0 0.4509274458
C  C278  1  0.68310000  0.39070000  0.95680000  1.0 0.4509274458
C  C279  1  0.51090000  0.15630000  0.40740000  1.0 -0.0781953467
C  C280  1  0.51090000  0.34370000  0.90740000  1.0 -0.0781953467
C  C281  1  0.31570000  0.74000000  0.29340000  1.0 -0.1911754869
C  C282  1  0.31570000  0.76000000  0.79340000  1.0 -0.1911754869
C  C283  1  0.61260000  0.28770000  0.36516000  1.0 -0.1911754869
C  C284  1  0.61260000  0.21230000  0.86516000  1.0 -0.1911754869
C  C285  1  0.38640000  0.03570000  0.36000000  1.0 -0.1294031215
C  C286  1  0.38640000  0.46430000  0.86000000  1.0 -0.1294031215
C  C287  1  0.68600000  0.40320000  0.39363000  1.0 -0.0505826862
C  C288  1  0.68600000  0.09680000  0.89363000  1.0 -0.0505826862
C  C289  1  0.83740000  0.57100000  0.52860000  1.0 -0.1389993149
C  C290  1  0.83740000  0.92900000  0.02860000  1.0 -0.1389993149
C  C291  1  0.63570000  0.32740000  0.38903000  1.0 0.1473501742
C  C292  1  0.63570000  0.17260000  0.88903000  1.0 0.1473501742
C  C293  1  0.49630000  0.97450000  0.38720000  1.0 -0.1495690407
C  C294  1  0.49630000  0.52550000  0.88720000  1.0 -0.1495690407
C  C295  1  0.00930000  0.66610000  0.62960000  1.0 -0.0781953467
C  C296  1  0.00930000  0.83390000  0.12960000  1.0 -0.0781953467
C  C297  1  0.94110000  0.81960000  0.60110000  1.0 -0.2015745736
C  C298  1  0.94110000  0.68040000  0.10110000  1.0 -0.2015745736
C  C299  1  0.46800000  0.90390000  0.37010000  1.0 -0.099697767
C  C300  1  0.46800000  0.59610000  0.87010000  1.0 -0.099697767
C  C301  1  0.93870000  0.71480000  0.59300000  1.0 0.2106673227
C  C302  1  0.93870000  0.78520000  0.09300000  1.0 0.2106673227
C  C303  1  0.73500000  0.66270000  0.50590000  1.0 -0.1808208685
C  C304  1  0.73500000  0.83730000  0.00590000  1.0 -0.1808208685
C  C305  1  0.82570000  0.67240000  0.53550000  1.0 -0.0430760292
C  C306  1  0.82570000  0.82760000  0.03550000  1.0 -0.0430760292
C  C307  1  0.79950000  0.51700000  0.51170000  1.0 -0.1294031215
C  C308  1  0.79950000  0.98300000  0.01170000  1.0 -0.1294031215
C  C309  1  0.96890000  0.64160000  0.60750000  1.0 -0.2294570748
C  C310  1  0.96890000  0.85840000  0.10750000  1.0 -0.2294570748
C  C311  1  0.15130000  0.62080000  0.20480000  1.0 0.11977736
C  C312  1  0.15130000  0.87920000  0.70480000  1.0 0.1285290265
C  C313  1  0.87700000  0.76100000  0.93440000  1.0 -0.2844404459
C  C314  1  0.88100000  0.64600000  0.97940000  1.0 -0.2700909667
C  C315  1  0.12300000  0.26100000  0.56560000  1.0 -0.2844404459
C  C316  1  0.11900000  0.14600000  0.52060000  1.0 -0.2700909667
C  C317  1  0.12300000  0.23900000  0.06560000  1.0 -0.2844404459
C  C318  1  0.11900000  0.35400000  0.02060000  1.0 -0.2700909667
C  C319  1  0.87700000  0.73900000  0.43440000  1.0 -0.2844404459
C  C320  1  0.88100000  0.85400000  0.47940000  1.0 -0.2700909667
C  C321  1  0.62100000  0.89300000  0.07870000  1.0 -0.3192895383
C  C322  1  0.72100000  0.75900000  0.08900000  1.0 -0.300590019
C  C323  1  0.37900000  0.39300000  0.42130000  1.0 -0.3192895383
C  C324  1  0.27900000  0.25900000  0.41100000  1.0 -0.300590019
C  C325  1  0.37900000  0.10700000  0.92130000  1.0 -0.3192895383
C  C326  1  0.27900000  0.24100000  0.91100000  1.0 -0.300590019
C  C327  1  0.62100000  0.60700000  0.57870000  1.0 -0.3192895383
C  C328  1  0.72100000  0.74100000  0.58900000  1.0 -0.300590019
C  C329  1  0.84400000  0.02900000  0.20470000  1.0 -0.2700909667
C  C330  1  0.88900000  0.24300000  0.20900000  1.0 -0.3504441602
C  C331  1  0.15600000  0.52900000  0.29530000  1.0 -0.2700909667
C  C332  1  0.11100000  0.74300000  0.29100000  1.0 -0.3504441602
C  C333  1  0.15600000  0.97100000  0.79530000  1.0 -0.2700909667
C  C334  1  0.11100000  0.75700000  0.79100000  1.0 -0.3504441602
C  C335  1  0.84400000  0.47100000  0.70470000  1.0 -0.2700909667
C  C336  1  0.88900000  0.25700000  0.70900000  1.0 -0.3448564291
N  N1  1  0.47210000  0.72400000  0.04888000  1.0 -0.4119739771
N  N2  1  0.47210000  0.77600000  0.54888000  1.0 -0.4119739771
N  N3  1  0.39380000  0.87820000  0.01716000  1.0 -0.4181048565
N  N4  1  0.39380000  0.62180000  0.51716000  1.0 -0.4181048565
N  N5  1  0.31950000  0.93160000  0.06050000  1.0 -0.4391068026
N  N6  1  0.31950000  0.56840000  0.56050000  1.0 -0.4391068026
N  N7  1  0.39820000  0.77920000  0.09301000  1.0 -0.4017486623
N  N8  1  0.39820000  0.72080000  0.59301000  1.0 -0.4017486623
N  N9  1  0.64870000  0.40250000  0.18310000  1.0 -0.3713656962
N  N10  1  0.64870000  0.09750000  0.68310000  1.0 -0.3713656962
N  N11  1  0.65520000  0.61470000  0.91310000  1.0 -0.4017486623
N  N12  1  0.65520000  0.88530000  0.41310000  1.0 -0.4017486623
N  N13  1  0.14530000  0.99930000  0.20220000  1.0 -0.3504441602
N  N14  1  0.14530000  0.50070000  0.70220000  1.0 -0.3504441602
N  N15  1  0.10020000  0.17680000  0.92790000  1.0 -0.3644285678
N  N16  1  0.10020000  0.32320000  0.42790000  1.0 -0.3713656962
N  N17  1  0.52790000  0.22400000  0.45112000  1.0 -0.4119739771
N  N18  1  0.52790000  0.27600000  0.95112000  1.0 -0.4119739771
N  N19  1  0.60620000  0.37820000  0.48284000  1.0 -0.4181048565
N  N20  1  0.60620000  0.12180000  0.98284000  1.0 -0.4181048565
N  N21  1  0.68050000  0.43160000  0.43950000  1.0 -0.4391068026
N  N22  1  0.68050000  0.06840000  0.93950000  1.0 -0.4391068026
N  N23  1  0.60180000  0.27920000  0.40699000  1.0 -0.4119739771
N  N24  1  0.60180000  0.22080000  0.90699000  1.0 -0.4017486623
N  N25  1  0.35130000  0.90250000  0.31690000  1.0 -0.3713656962
N  N26  1  0.35130000  0.59750000  0.81690000  1.0 -0.3713656962
N  N27  1  0.34480000  0.11470000  0.58690000  1.0 -0.4017486623
N  N28  1  0.34480000  0.38530000  0.08690000  1.0 -0.4017486623
N  N29  1  0.85470000  0.49930000  0.29780000  1.0 -0.3504441602
N  N30  1  0.85470000  0.00070000  0.79780000  1.0 -0.3504441602
N  N31  1  0.89980000  0.67680000  0.57210000  1.0 -0.3644285678
N  N32  1  0.89980000  0.82320000  0.07210000  1.0 -0.3644285678
N  N33  1  0.87800000  0.71200000  0.95810000  1.0 -0.1495690407
N  N34  1  0.12200000  0.21200000  0.54190000  1.0 -0.1495690407
N  N35  1  0.12200000  0.28800000  0.04190000  1.0 -0.1495690407
N  N36  1  0.87800000  0.78800000  0.45810000  1.0 -0.1495690407
N  N37  1  0.68200000  0.84500000  0.07970000  1.0 -0.1294031215
N  N38  1  0.31800000  0.34500000  0.42030000  1.0 -0.1294031215
N  N39  1  0.31800000  0.15500000  0.92030000  1.0 -0.1294031215
N  N40  1  0.68200000  0.65500000  0.57970000  1.0 -0.1294031215
N  N41  1  0.85200000  0.13600000  0.19890000  1.0 -0.1294031215
N  N42  1  0.14800000  0.63600000  0.30110000  1.0 -0.1294031215
N  N43  1  0.14800000  0.86400000  0.80110000  1.0 -0.1294031215
N  N44  1  0.85200000  0.36400000  0.69890000  1.0 -0.1294031215
O  O1  1  0.94470000  0.17370000  0.27654000  1.0 -0.4568617225
O  O2  1  0.94470000  0.32630000  0.77654000  1.0 -0.4568617225
O  O3  1  0.81660000  0.27320000  0.28424000  1.0 -0.4525673072
O  O4  1  0.81660000  0.22680000  0.78424000  1.0 -0.4568617225
O  O5  1  0.79520000  0.36260000  0.82954000  1.0 -0.4391068026
O  O6  1  0.79520000  0.13740000  0.32954000  1.0 -0.4391068026
O  O7  1  0.92780000  0.00330000  0.28106000  1.0 -0.4391068026
O  O8  1  0.92780000  0.49670000  0.78106000  1.0 -0.4391068026
O  O9  1  0.82290000  0.52200000  0.81858000  1.0 -0.4181048565
O  O10  1  0.82290000  0.97800000  0.31858000  1.0 -0.4181048565
O  O11  1  0.94130000  0.39960000  0.83479000  1.0 -0.468277964
O  O12  1  0.94130000  0.10040000  0.33479000  1.0 -0.468277964
O  O13  1  0.79900000  0.11550000  0.26791000  1.0 -0.2589647055
O  O14  1  0.79900000  0.38450000  0.76791000  1.0 -0.2589647055
O  O15  1  0.91640000  0.23450000  0.82699000  1.0 -0.4985330284
O  O16  1  0.91640000  0.26550000  0.32699000  1.0 -0.4985330284
O  O17  1  0.63660000  0.78740000  0.90297000  1.0 -0.4525673072
O  O18  1  0.63660000  0.71260000  0.40297000  1.0 -0.4525673072
O  O19  1  0.17760000  0.16220000  0.19130000  1.0 -0.4525673072
O  O20  1  0.17760000  0.33780000  0.69130000  1.0 -0.4525673072
O  O21  1  0.46850000  0.94960000  0.06865000  1.0 -0.749072361
O  O22  1  0.46850000  0.55040000  0.56865000  1.0 -0.749072361
O  O23  1  0.35520000  0.57290000  0.05901000  1.0 -0.4985330284
O  O24  1  0.35520000  0.92710000  0.55901000  1.0 -0.4985330284
O  O25  1  0.31410000  0.71090000  0.03810000  1.0 -0.5329463661
O  O26  1  0.31410000  0.78910000  0.53810000  1.0 -0.5329463661
O  O27  1  0.61310000  0.25880000  0.15810000  1.0 -0.4568617225
O  O28  1  0.61310000  0.24120000  0.65810000  1.0 -0.4525673072
O  O29  1  0.13260000  0.33400000  0.94600000  1.0 -0.4525673072
O  O30  1  0.13260000  0.16600000  0.44600000  1.0 -0.4525673072
O  O31  1  0.05530000  0.67370000  0.22346000  1.0 -0.4568617225
O  O32  1  0.05530000  0.82630000  0.72346000  1.0 -0.4568617225
O  O33  1  0.18340000  0.77320000  0.21576000  1.0 -0.4525673072
O  O34  1  0.18340000  0.72680000  0.71576000  1.0 -0.4525673072
O  O35  1  0.20480000  0.86260000  0.67046000  1.0 -0.4391068026
O  O36  1  0.20480000  0.63740000  0.17046000  1.0 -0.4391068026
O  O37  1  0.07220000  0.50330000  0.21894000  1.0 -0.4391068026
O  O38  1  0.07220000  0.99670000  0.71894000  1.0 -0.4391068026
O  O39  1  0.17710000  0.02200000  0.68142000  1.0 -0.4181048565
O  O40  1  0.17710000  0.47800000  0.18142000  1.0 -0.4181048565
O  O41  1  0.05870000  0.89960000  0.66521000  1.0 -0.468277964
O  O42  1  0.05870000  0.60040000  0.16521000  1.0 -0.468277964
O  O43  1  0.20100000  0.61550000  0.23209000  1.0 -0.2589647055
O  O44  1  0.20100000  0.88450000  0.73209000  1.0 -0.2589647055
O  O45  1  0.08360000  0.73450000  0.67301000  1.0 -0.4985330284
O  O46  1  0.08360000  0.76550000  0.17301000  1.0 -0.4985330284
O  O47  1  0.36340000  0.28740000  0.59703000  1.0 -0.4525673072
O  O48  1  0.36340000  0.21260000  0.09703000  1.0 -0.4525673072
O  O49  1  0.82240000  0.66220000  0.30870000  1.0 -0.4568617225
O  O50  1  0.82240000  0.83780000  0.80870000  1.0 -0.4568617225
O  O51  1  0.53150000  0.44960000  0.43135000  1.0 -0.749072361
O  O52  1  0.53150000  0.05040000  0.93135000  1.0 -0.749072361
O  O53  1  0.64480000  0.07290000  0.44099000  1.0 -0.4985330284
O  O54  1  0.64480000  0.42710000  0.94099000  1.0 -0.4985330284
O  O55  1  0.68590000  0.21090000  0.46190000  1.0 -0.5329463661
O  O56  1  0.68590000  0.28910000  0.96190000  1.0 -0.5329463661
O  O57  1  0.38690000  0.75880000  0.34190000  1.0 -0.4525673072
O  O58  1  0.38690000  0.74120000  0.84190000  1.0 -0.4568617225
O  O59  1  0.86740000  0.83400000  0.55400000  1.0 -0.4525673072
O  O60  1  0.86740000  0.66600000  0.05400000  1.0 -0.4525673072
