# DDEC6 charges by PACMAN v1.1 (https://github.com/mtap-research/PACMAN-charge/)
data_JADMIN_ASR_pacman
_symmetry_space_group_name_H-M   'P 1'
_cell_length_a   11.12500000
_cell_length_b   23.85900000
_cell_length_c   24.14400000
_cell_angle_alpha   98.24470000
_cell_angle_beta   90.00000000
_cell_angle_gamma   103.48200000
_symmetry_Int_Tables_number   1
_chemical_formula_structural   Cd2H38C53(N2O7)2
_chemical_formula_sum   'Cd8 H152 C212 N16 O56'
_cell_volume   6163.84314367
_cell_formula_units_Z   4
loop_
 _symmetry_equiv_pos_site_id
 _symmetry_equiv_pos_as_xyz
  1  'x, y, z'
loop_
 _atom_site_type_symbol
 _atom_site_label
 _atom_site_symmetry_multiplicity
 _atom_site_fract_x
 _atom_site_fract_y
 _atom_site_fract_z
 _atom_site_occupancy
 _atom_site_charge
Cd  Cd1  1  0.37342000  0.02784000  0.56219000  1.0 0.8500297422
Cd  Cd2  1  0.62658000  0.97216000  0.43781000  1.0 0.8500297422
Cd  Cd3  1  0.34558000  0.97216000  0.93781000  1.0 0.8500297422
Cd  Cd4  1  0.65442000  0.02784000  0.06219000  1.0 0.8500297422
Cd  Cd5  1  0.85212000  0.43956000  0.58063000  1.0 0.8500297422
Cd  Cd6  1  0.14788000  0.56044000  0.41937000  1.0 0.8500297422
Cd  Cd7  1  0.41256000  0.56044000  0.91937000  1.0 0.8500297422
Cd  Cd8  1  0.58744000  0.43956000  0.08063000  1.0 0.8500297422
H  H1  1  0.77324000  0.23162000  0.97910000  1.0 0.1396615564
H  H2  1  0.22676000  0.76838000  0.02090000  1.0 0.1396615564
H  H3  1  0.54162000  0.76838000  0.52090000  1.0 0.1396615564
H  H4  1  0.45838000  0.23162000  0.47910000  1.0 0.1396615564
H  H5  1  0.25544000  0.58270000  0.59496000  1.0 0.1211664834
H  H6  1  0.74456000  0.41730000  0.40504000  1.0 0.1211664834
H  H7  1  0.67274000  0.41730000  0.90504000  1.0 0.1211664834
H  H8  1  0.32726000  0.58270000  0.09496000  1.0 0.1211664834
H  H9  1  0.24220000  0.76234000  0.64036000  1.0 0.1090078472
H  H10  1  0.75780000  0.23766000  0.35964000  1.0 0.1090078472
H  H11  1  0.47986000  0.23766000  0.85964000  1.0 0.1090078472
H  H12  1  0.52014000  0.76234000  0.14036000  1.0 0.1090078472
H  H13  1  0.55450000  0.93101000  0.74330000  1.0 0.1211664834
H  H14  1  0.44550000  0.06899000  0.25670000  1.0 0.1211664834
H  H15  1  0.62349000  0.06899000  0.75670000  1.0 0.1211664834
H  H16  1  0.37651000  0.93101000  0.24330000  1.0 0.1211664834
H  H17  1  0.43123000  0.12681000  0.67107000  1.0 0.0898210736
H  H18  1  0.56877000  0.87319000  0.32893000  1.0 0.0898210736
H  H19  1  0.30443000  0.87319000  0.82893000  1.0 0.0898210736
H  H20  1  0.69557000  0.12681000  0.17107000  1.0 0.0898210736
H  H21  1  0.29397000  0.85880000  0.60510000  1.0 0.1090078472
H  H22  1  0.70603000  0.14120000  0.39490000  1.0 0.1090078472
H  H23  1  0.43517000  0.14120000  0.89490000  1.0 0.1090078472
H  H24  1  0.56483000  0.85880000  0.10510000  1.0 0.1090078472
H  H25  1  0.91403000  0.22852000  0.75707000  1.0 0.0823527075
H  H26  1  0.08597000  0.77148000  0.24293000  1.0 0.0823527075
H  H27  1  0.68551000  0.77148000  0.74293000  1.0 0.0823527075
H  H28  1  0.31449000  0.22852000  0.25707000  1.0 0.0823527075
H  H29  1  0.89801000  0.27871000  0.81868000  1.0 0.0823527075
H  H30  1  0.10199000  0.72129000  0.18132000  1.0 0.0823527075
H  H31  1  0.61930000  0.72129000  0.68132000  1.0 0.0823527075
H  H32  1  0.38070000  0.27871000  0.31868000  1.0 0.0823527075
H  H33  1  0.97669000  0.09484000  0.65558000  1.0 0.1396615564
H  H34  1  0.02331000  0.90516000  0.34442000  1.0 0.1396615564
H  H35  1  0.88186000  0.90516000  0.84442000  1.0 0.1396615564
H  H36  1  0.11814000  0.09484000  0.15558000  1.0 0.1396615564
H  H37  1  0.11516000  0.70084000  0.75941000  1.0 0.1090078472
H  H38  1  0.88484000  0.29916000  0.24059000  1.0 0.1090078472
H  H39  1  0.41432000  0.29916000  0.74059000  1.0 0.1090078472
H  H40  1  0.58568000  0.70084000  0.25941000  1.0 0.1090078472
H  H41  1  0.32820000  0.18082000  0.74375000  1.0 0.1293050058
H  H42  1  0.67180000  0.81918000  0.25625000  1.0 0.1293050058
H  H43  1  0.14738000  0.81918000  0.75625000  1.0 0.1293050058
H  H44  1  0.85262000  0.18082000  0.24375000  1.0 0.1293050058
H  H45  1  0.91133000  0.15050000  0.81461000  1.0 0.0823527075
H  H46  1  0.08867000  0.84950000  0.18539000  1.0 0.0823527075
H  H47  1  0.76083000  0.84950000  0.68539000  1.0 0.0823527075
H  H48  1  0.23917000  0.15050000  0.31461000  1.0 0.0823527075
H  H49  1  0.03061000  0.15891000  0.86815000  1.0 0.0823527075
H  H50  1  0.96939000  0.84109000  0.13185000  1.0 0.0823527075
H  H51  1  0.87170000  0.84109000  0.63185000  1.0 0.0823527075
H  H52  1  0.12830000  0.15891000  0.36815000  1.0 0.0823527075
H  H53  1  0.86730000  0.08224000  0.87719000  1.0 0.1396615564
H  H54  1  0.13270000  0.91776000  0.12281000  1.0 0.1396615564
H  H55  1  0.78506000  0.91776000  0.62281000  1.0 0.1396615564
H  H56  1  0.21494000  0.08224000  0.37719000  1.0 0.1396615564
H  H57  1  0.40193000  0.67153000  0.64595000  1.0 0.1211664834
H  H58  1  0.59807000  0.32847000  0.35405000  1.0 0.1211664834
H  H59  1  0.73040000  0.32847000  0.85405000  1.0 0.1211664834
H  H60  1  0.26960000  0.67153000  0.14595000  1.0 0.1211664834
H  H61  1  0.50622000  0.83466000  0.77922000  1.0 0.1211664834
H  H62  1  0.49378000  0.16534000  0.22078000  1.0 0.1211664834
H  H63  1  0.67156000  0.16534000  0.72078000  1.0 0.1211664834
H  H64  1  0.32844000  0.83466000  0.27922000  1.0 0.1211664834
H  H65  1  0.36229000  0.23042000  0.96346000  1.0 0.1396615564
H  H66  1  0.63771000  0.76958000  0.03654000  1.0 0.1396615564
H  H67  1  0.13187000  0.76958000  0.53654000  1.0 0.1396615564
H  H68  1  0.86813000  0.23042000  0.46346000  1.0 0.1396615564
H  H69  1  0.16864000  0.31862000  0.85130000  1.0 0.0823527075
H  H70  1  0.83136000  0.68138000  0.14870000  1.0 0.0823527075
H  H71  1  0.85002000  0.68138000  0.64870000  1.0 0.0823527075
H  H72  1  0.14998000  0.31862000  0.35130000  1.0 0.0823527075
H  H73  1  0.04869000  0.29654000  0.89977000  1.0 0.0898210736
H  H74  1  0.95131000  0.70346000  0.10023000  1.0 0.0898210736
H  H75  1  0.75215000  0.70346000  0.60023000  1.0 0.0898210736
H  H76  1  0.24785000  0.29654000  0.39977000  1.0 0.0898210736
H  H77  1  0.74015000  0.35123000  0.66658000  1.0 0.0898210736
H  H78  1  0.25985000  0.64877000  0.33342000  1.0 0.0898210736
H  H79  1  0.38892000  0.64877000  0.83342000  1.0 0.0898210736
H  H80  1  0.61108000  0.35123000  0.16658000  1.0 0.0898210736
H  H81  1  0.75775000  0.02080000  0.94448000  1.0 0.1020812288
H  H82  1  0.24225000  0.97920000  0.05552000  1.0 0.1020812288
H  H83  1  0.73695000  0.97920000  0.55552000  1.0 0.1020812288
H  H84  1  0.26305000  0.02080000  0.44448000  1.0 0.1020812288
H  H85  1  0.96854000  0.61162000  0.70843000  1.0 0.1090078472
H  H86  1  0.03146000  0.38838000  0.29157000  1.0 0.1090078472
H  H87  1  0.35692000  0.38838000  0.79157000  1.0 0.1090078472
H  H88  1  0.64308000  0.61162000  0.20843000  1.0 0.1090078472
H  H89  1  0.09736000  0.04350000  0.58518000  1.0 0.1090078472
H  H90  1  0.90264000  0.95650000  0.41482000  1.0 0.1090078472
H  H91  1  0.05386000  0.95650000  0.91482000  1.0 0.1090078472
H  H92  1  0.94614000  0.04350000  0.08518000  1.0 0.1090078472
H  H93  1  0.20178000  0.24908000  0.76940000  1.0 0.0823527075
H  H94  1  0.79822000  0.75092000  0.23060000  1.0 0.0823527075
H  H95  1  0.95270000  0.75092000  0.73060000  1.0 0.0823527075
H  H96  1  0.04730000  0.24908000  0.26940000  1.0 0.0823527075
H  H97  1  0.19989000  0.19115000  0.81052000  1.0 0.0823527075
H  H98  1  0.80011000  0.80885000  0.18948000  1.0 0.0823527075
H  H99  1  0.00875000  0.80885000  0.68948000  1.0 0.0823527075
H  H100  1  0.99125000  0.19115000  0.31052000  1.0 0.0823527075
H  H101  1  0.51924000  0.30266000  0.02921000  1.0 0.0898210736
H  H102  1  0.48076000  0.69734000  0.97079000  1.0 0.0898210736
H  H103  1  0.21658000  0.69734000  0.47079000  1.0 0.0898210736
H  H104  1  0.78342000  0.30266000  0.52921000  1.0 0.0898210736
H  H105  1  0.66621000  0.16263000  0.04249000  1.0 0.0898210736
H  H106  1  0.33379000  0.83737000  0.95751000  1.0 0.0898210736
H  H107  1  0.50358000  0.83737000  0.45751000  1.0 0.0898210736
H  H108  1  0.49642000  0.16263000  0.54249000  1.0 0.0898210736
H  H109  1  0.18424000  0.38617000  0.71713000  1.0 0.1396615564
H  H110  1  0.81576000  0.61383000  0.28287000  1.0 0.1396615564
H  H111  1  0.79807000  0.61383000  0.78287000  1.0 0.1396615564
H  H112  1  0.20193000  0.38617000  0.21713000  1.0 0.1396615564
H  H113  1  0.80190000  0.29402000  0.73600000  1.0 0.1293050058
H  H114  1  0.19810000  0.70598000  0.26400000  1.0 0.1293050058
H  H115  1  0.50788000  0.70598000  0.76400000  1.0 0.1293050058
H  H116  1  0.49212000  0.29402000  0.23600000  1.0 0.1293050058
H  H117  1  0.21731000  0.37728000  0.92821000  1.0 0.1396615564
H  H118  1  0.78269000  0.62272000  0.07179000  1.0 0.1396615564
H  H119  1  0.84004000  0.62272000  0.57179000  1.0 0.1396615564
H  H120  1  0.15996000  0.37728000  0.42821000  1.0 0.1396615564
H  H121  1  0.10439000  0.43784000  0.64632000  1.0 0.0898210736
H  H122  1  0.89561000  0.56216000  0.35368000  1.0 0.0898210736
H  H123  1  0.66656000  0.56216000  0.85368000  1.0 0.0898210736
H  H124  1  0.33344000  0.43784000  0.14632000  1.0 0.0898210736
H  H125  1  0.37135000  0.44078000  0.99854000  1.0 0.1090078472
H  H126  1  0.62865000  0.55922000  0.00146000  1.0 0.1090078472
H  H127  1  0.93056000  0.55922000  0.50146000  1.0 0.1090078472
H  H128  1  0.06944000  0.44078000  0.49854000  1.0 0.1090078472
H  H129  1  0.81610000  0.80283000  0.46476000  1.0 0.1293050058
H  H130  1  0.18390000  0.19717000  0.53524000  1.0 0.1293050058
H  H131  1  0.01326000  0.19717000  0.03524000  1.0 0.1293050058
H  H132  1  0.98674000  0.80283000  0.96476000  1.0 0.1293050058
H  H133  1  0.11690000  0.77557000  0.35511000  1.0 0.1293050058
H  H134  1  0.88310000  0.22443000  0.64489000  1.0 0.1293050058
H  H135  1  0.34133000  0.22443000  0.14489000  1.0 0.1293050058
H  H136  1  0.65867000  0.77557000  0.85511000  1.0 0.1293050058
H  H137  1  0.44698000  0.68654000  0.37038000  1.0 0.1020812288
H  H138  1  0.55302000  0.31346000  0.62962000  1.0 0.1020812288
H  H139  1  0.76044000  0.31346000  0.12962000  1.0 0.1020812288
H  H140  1  0.23956000  0.68654000  0.87038000  1.0 0.1020812288
H  H141  1  0.64467000  0.74508000  0.33610000  1.0 0.1090078472
H  H142  1  0.35533000  0.25492000  0.66390000  1.0 0.1090078472
H  H143  1  0.89959000  0.25492000  0.16390000  1.0 0.1090078472
H  H144  1  0.10041000  0.74508000  0.83610000  1.0 0.1090078472
H  H145  1  0.85411000  0.67360000  0.44681000  1.0 0.1090078472
H  H146  1  0.14589000  0.32640000  0.55319000  1.0 0.1090078472
H  H147  1  0.18051000  0.32640000  0.05319000  1.0 0.1090078472
H  H148  1  0.81949000  0.67360000  0.94681000  1.0 0.1090078472
H  H149  1  0.65465000  0.61895000  0.48441000  1.0 0.1090078472
H  H150  1  0.34535000  0.38105000  0.51559000  1.0 0.1090078472
H  H151  1  0.03570000  0.38105000  0.01559000  1.0 0.1090078472
H  H152  1  0.96430000  0.61895000  0.98441000  1.0 0.1090078472
C  C1  1  0.13706000  0.84538000  0.42531000  1.0 0.0481650381
C  C2  1  0.86294000  0.15462000  0.57469000  1.0 0.0481650381
C  C3  1  0.29168000  0.15462000  0.07469000  1.0 0.0481650381
C  C4  1  0.70832000  0.84538000  0.92531000  1.0 0.0481650381
C  C5  1  0.12430000  0.88452000  0.47069000  1.0 -0.0801158326
C  C6  1  0.87570000  0.11548000  0.52931000  1.0 -0.0801158326
C  C7  1  0.23978000  0.11548000  0.02931000  1.0 -0.0801158326
C  C8  1  0.76022000  0.88452000  0.97069000  1.0 -0.0801158326
C  C9  1  0.26518000  0.69174000  0.70441000  1.0 0.2452217208
C  C10  1  0.73482000  0.30826000  0.29559000  1.0 0.2452217208
C  C11  1  0.57344000  0.30826000  0.79559000  1.0 0.2452217208
C  C12  1  0.42656000  0.69174000  0.20441000  1.0 0.2452217208
C  C13  1  0.10232000  0.59300000  0.64807000  1.0 -0.0483854396
C  C14  1  0.89768000  0.40700000  0.35193000  1.0 -0.0483854396
C  C15  1  0.50932000  0.40700000  0.85193000  1.0 -0.0483854396
C  C16  1  0.49068000  0.59300000  0.14807000  1.0 -0.0483854396
C  C17  1  0.77108000  0.18502000  0.97007000  1.0 -0.2495053953
C  C18  1  0.22892000  0.81498000  0.02993000  1.0 -0.2495053953
C  C19  1  0.58606000  0.81498000  0.52993000  1.0 -0.2495053953
C  C20  1  0.41394000  0.18502000  0.47007000  1.0 -0.2495053953
C  C21  1  0.22497000  0.60886000  0.63095000  1.0 -0.0612540322
C  C22  1  0.77503000  0.39114000  0.36905000  1.0 -0.0612540322
C  C23  1  0.61611000  0.39114000  0.86905000  1.0 -0.0612540322
C  C24  1  0.38389000  0.60886000  0.13095000  1.0 -0.0612540322
C  C25  1  0.37274000  0.79269000  0.71121000  1.0 0.2452217208
C  C26  1  0.62726000  0.20731000  0.28879000  1.0 0.2452217208
C  C27  1  0.58005000  0.20731000  0.78879000  1.0 0.2452217208
C  C28  1  0.41995000  0.79269000  0.21121000  1.0 0.2452217208
C  C29  1  0.43015000  0.90024000  0.67104000  1.0 -0.0397478405
C  C30  1  0.56985000  0.09976000  0.32896000  1.0 -0.0397478405
C  C31  1  0.52991000  0.09976000  0.82896000  1.0 -0.0397478405
C  C32  1  0.47009000  0.90024000  0.17104000  1.0 -0.0397478405
C  C33  1  0.31157000  0.79903000  0.66257000  1.0 -0.2331332574
C  C34  1  0.68843000  0.20097000  0.33743000  1.0 -0.2331332574
C  C35  1  0.51254000  0.20097000  0.83743000  1.0 -0.2331332574
C  C36  1  0.48746000  0.79903000  0.16257000  1.0 -0.2331332574
C  C37  1  0.48918000  0.89312000  0.72017000  1.0 -0.0612540322
C  C38  1  0.51082000  0.10688000  0.27983000  1.0 -0.0612540322
C  C39  1  0.59606000  0.10688000  0.77983000  1.0 -0.0612540322
C  C40  1  0.40394000  0.89312000  0.22017000  1.0 -0.0612540322
C  C41  1  0.33065000  0.12175000  0.66807000  1.0 0.1211664834
C  C42  1  0.66935000  0.87825000  0.33193000  1.0 0.1211664834
C  C43  1  0.20891000  0.87825000  0.83193000  1.0 0.1211664834
C  C44  1  0.79109000  0.12175000  0.16807000  1.0 0.1211664834
C  C45  1  0.00305000  0.85726000  0.47455000  1.0 0.0416181598
C  C46  1  0.99695000  0.14274000  0.52545000  1.0 0.0416181598
C  C47  1  0.14580000  0.14274000  0.02545000  1.0 0.0416181598
C  C48  1  0.85420000  0.85726000  0.97455000  1.0 0.0416181598
C  C49  1  0.34100000  0.85288000  0.64297000  1.0 -0.0710437312
C  C50  1  0.65900000  0.14712000  0.35703000  1.0 -0.0710437312
C  C51  1  0.48813000  0.14712000  0.85703000  1.0 -0.0710437312
C  C52  1  0.51187000  0.85288000  0.14297000  1.0 -0.0710437312
C  C53  1  0.96511000  0.26127000  0.79141000  1.0 -0.0213208042
C  C54  1  0.03489000  0.73873000  0.20859000  1.0 -0.0213208042
C  C55  1  0.70384000  0.73873000  0.70859000  1.0 -0.0213208042
C  C56  1  0.29616000  0.26127000  0.29141000  1.0 -0.0213208042
C  C57  1  0.07763000  0.10310000  0.65977000  1.0 -0.2375608901
C  C58  1  0.92237000  0.89690000  0.34023000  1.0 -0.2375608901
C  C59  1  0.97453000  0.89690000  0.84023000  1.0 -0.2375608901
C  C60  1  0.02547000  0.10310000  0.15977000  1.0 -0.2375608901
C  C61  1  0.27927000  0.29814000  0.93921000  1.0 0.2928626293
C  C62  1  0.72073000  0.70186000  0.06079000  1.0 0.2928626293
C  C63  1  0.98113000  0.70186000  0.56079000  1.0 0.2928626293
C  C64  1  0.01887000  0.29814000  0.43921000  1.0 0.2928626293
C  C65  1  0.14282000  0.14297000  0.70449000  1.0 0.2983176663
C  C66  1  0.85718000  0.85703000  0.29551000  1.0 0.2983176663
C  C67  1  0.99984000  0.85703000  0.79551000  1.0 0.2983176663
C  C68  1  0.00016000  0.14297000  0.20449000  1.0 0.2983176663
C  C69  1  0.14468000  0.67528000  0.72302000  1.0 -0.1987495406
C  C70  1  0.85532000  0.32472000  0.27698000  1.0 -0.1987495406
C  C71  1  0.46940000  0.32472000  0.77698000  1.0 -0.1987495406
C  C72  1  0.53060000  0.67528000  0.22302000  1.0 -0.1987495406
C  C73  1  0.27221000  0.15222000  0.70893000  1.0 -0.2682667097
C  C74  1  0.72779000  0.84778000  0.29107000  1.0 -0.2682667097
C  C75  1  0.11999000  0.84778000  0.79107000  1.0 -0.2682667097
C  C76  1  0.88001000  0.15222000  0.20893000  1.0 -0.2682667097
C  C77  1  0.96874000  0.18141000  0.84853000  1.0 -0.0213208042
C  C78  1  0.03126000  0.81859000  0.15147000  1.0 -0.0213208042
C  C79  1  0.78733000  0.81859000  0.65147000  1.0 -0.0213208042
C  C80  1  0.21267000  0.18141000  0.34853000  1.0 -0.0213208042
C  C81  1  0.83050000  0.16279000  0.92323000  1.0 0.2983176663
C  C82  1  0.16950000  0.83721000  0.07677000  1.0 0.2983176663
C  C83  1  0.66771000  0.83721000  0.57677000  1.0 0.2983176663
C  C84  1  0.33229000  0.16279000  0.42323000  1.0 0.2983176663
C  C85  1  0.04718000  0.23374000  0.82485000  1.0 0.0416181598
C  C86  1  0.95282000  0.76626000  0.17515000  1.0 0.0416181598
C  C87  1  0.81344000  0.76626000  0.67515000  1.0 0.0416181598
C  C88  1  0.18656000  0.23374000  0.32485000  1.0 0.0416181598
C  C89  1  0.82597000  0.10282000  0.91335000  1.0 -0.2563572249
C  C90  1  0.17403000  0.89718000  0.08665000  1.0 -0.2563572249
C  C91  1  0.72315000  0.89718000  0.58665000  1.0 -0.2563572249
C  C92  1  0.27685000  0.10282000  0.41335000  1.0 -0.2563572249
C  C93  1  0.30670000  0.65832000  0.65922000  1.0 -0.1898320276
C  C94  1  0.69330000  0.34168000  0.34078000  1.0 -0.1898320276
C  C95  1  0.64838000  0.34168000  0.84078000  1.0 -0.1898320276
C  C96  1  0.35162000  0.65832000  0.15922000  1.0 -0.1898320276
C  C97  1  0.46117000  0.83960000  0.74035000  1.0 -0.2084271742
C  C98  1  0.53883000  0.16040000  0.25965000  1.0 -0.2084271742
C  C99  1  0.62157000  0.16040000  0.75965000  1.0 -0.2084271742
C  C100  1  0.37843000  0.83960000  0.24035000  1.0 -0.2084271742
C  C101  1  0.36419000  0.27703000  0.96902000  1.0 -0.2495053953
C  C102  1  0.63581000  0.72297000  0.03098000  1.0 -0.2495053953
C  C103  1  0.08715000  0.72297000  0.53098000  1.0 -0.2495053953
C  C104  1  0.91285000  0.27703000  0.46902000  1.0 -0.2495053953
C  C105  1  0.99968000  0.33605000  0.73190000  1.0 0.2983176663
C  C106  1  0.00032000  0.66395000  0.26810000  1.0 0.2983176663
C  C107  1  0.66363000  0.66395000  0.76810000  1.0 0.2983176663
C  C108  1  0.33637000  0.33605000  0.23190000  1.0 0.2983176663
C  C109  1  0.11580000  0.28150000  0.87073000  1.0 -0.0252809228
C  C110  1  0.88420000  0.71850000  0.12927000  1.0 -0.0252809228
C  C111  1  0.83430000  0.71850000  0.62927000  1.0 -0.0252809228
C  C112  1  0.16570000  0.28150000  0.37073000  1.0 -0.0252809228
C  C113  1  0.83771000  0.35721000  0.67902000  1.0 0.1211664834
C  C114  1  0.16229000  0.64279000  0.32098000  1.0 0.1211664834
C  C115  1  0.48049000  0.64279000  0.82098000  1.0 0.1211664834
C  C116  1  0.51951000  0.35721000  0.17902000  1.0 0.1211664834
C  C117  1  0.76426000  0.06781000  0.95092000  1.0 0.1396615564
C  C118  1  0.23574000  0.93219000  0.04908000  1.0 0.1396615564
C  C119  1  0.69645000  0.93219000  0.54908000  1.0 0.1396615564
C  C120  1  0.30355000  0.06781000  0.45092000  1.0 0.1396615564
C  C121  1  0.06339000  0.62577000  0.69477000  1.0 -0.0710437312
C  C122  1  0.93661000  0.37423000  0.30523000  1.0 -0.0710437312
C  C123  1  0.43762000  0.37423000  0.80523000  1.0 -0.0710437312
C  C124  1  0.56238000  0.62577000  0.19477000  1.0 -0.0710437312
C  C125  1  0.14394000  0.07505000  0.62068000  1.0 0.1090078472
C  C126  1  0.85606000  0.92495000  0.37932000  1.0 0.1090078472
C  C127  1  0.06889000  0.92495000  0.87932000  1.0 0.1090078472
C  C128  1  0.93111000  0.07505000  0.12068000  1.0 0.1090078472
C  C129  1  0.14197000  0.21208000  0.78672000  1.0 -0.0252809228
C  C130  1  0.85803000  0.78792000  0.21328000  1.0 -0.0252809228
C  C131  1  0.92990000  0.78792000  0.71328000  1.0 -0.0252809228
C  C132  1  0.07010000  0.21208000  0.28672000  1.0 -0.0252809228
C  C133  1  0.20922000  0.93799000  0.50039000  1.0 0.5678018833
C  C134  1  0.79078000  0.06201000  0.49961000  1.0 0.5678018833
C  C135  1  0.27123000  0.06201000  0.99961000  1.0 0.5678018833
C  C136  1  0.72877000  0.93799000  0.00039000  1.0 0.5678018833
C  C137  1  0.44971000  0.31673000  0.00581000  1.0 0.1020812288
C  C138  1  0.55029000  0.68327000  0.99419000  1.0 0.1020812288
C  C139  1  0.13298000  0.68327000  0.49419000  1.0 0.1020812288
C  C140  1  0.86702000  0.31673000  0.50581000  1.0 0.1020812288
C  C141  1  0.71220000  0.14687000  0.00528000  1.0 0.1020812288
C  C142  1  0.28780000  0.85313000  0.99472000  1.0 0.1020812288
C  C143  1  0.56533000  0.85313000  0.49472000  1.0 0.1020812288
C  C144  1  0.43467000  0.14687000  0.50528000  1.0 0.1020812288
C  C145  1  0.46117000  0.95829000  0.64930000  1.0 0.5678018833
C  C146  1  0.53883000  0.04171000  0.35070000  1.0 0.5678018833
C  C147  1  0.50288000  0.04171000  0.85070000  1.0 0.5678018833
C  C148  1  0.49712000  0.95829000  0.14930000  1.0 0.5678018833
C  C149  1  0.08505000  0.37760000  0.70694000  1.0 -0.2375608901
C  C150  1  0.91495000  0.62240000  0.29306000  1.0 -0.2375608901
C  C151  1  0.70745000  0.62240000  0.79306000  1.0 -0.2375608901
C  C152  1  0.29255000  0.37760000  0.20694000  1.0 -0.2375608901
C  C153  1  0.87308000  0.32548000  0.71781000  1.0 -0.2785295324
C  C154  1  0.12692000  0.67452000  0.28219000  1.0 -0.2785295324
C  C155  1  0.54760000  0.67452000  0.78219000  1.0 -0.2785295324
C  C156  1  0.45240000  0.32548000  0.21781000  1.0 -0.2785295324
C  C157  1  0.28055000  0.35785000  0.94956000  1.0 -0.2682667097
C  C158  1  0.71945000  0.64215000  0.05044000  1.0 -0.2682667097
C  C159  1  0.92270000  0.64215000  0.55044000  1.0 -0.2682667097
C  C160  1  0.07730000  0.35785000  0.44956000  1.0 -0.2682667097
C  C161  1  0.04117000  0.40620000  0.66811000  1.0 0.1090078472
C  C162  1  0.95883000  0.59380000  0.33189000  1.0 0.1090078472
C  C163  1  0.63497000  0.59380000  0.83189000  1.0 0.1090078472
C  C164  1  0.36503000  0.40620000  0.16811000  1.0 0.1090078472
C  C165  1  0.36790000  0.39412000  0.98817000  1.0 0.1211664834
C  C166  1  0.63210000  0.60588000  0.01183000  1.0 0.1211664834
C  C167  1  0.97378000  0.60588000  0.51183000  1.0 0.1211664834
C  C168  1  0.02622000  0.39412000  0.48817000  1.0 0.1211664834
C  C169  1  0.01298000  0.54103000  0.61782000  1.0 0.5407693291
C  C170  1  0.98702000  0.45897000  0.38218000  1.0 0.5407693291
C  C171  1  0.47196000  0.45897000  0.88218000  1.0 0.5407693291
C  C172  1  0.52804000  0.54103000  0.11782000  1.0 0.5407693291
C  C173  1  0.91054000  0.81215000  0.44981000  1.0 -0.2375608901
C  C174  1  0.08946000  0.18785000  0.55019000  1.0 -0.2375608901
C  C175  1  0.09838000  0.18785000  0.05019000  1.0 -0.2375608901
C  C176  1  0.90162000  0.81215000  0.94981000  1.0 -0.2375608901
C  C177  1  0.94723000  0.78000000  0.40136000  1.0 0.2696051652
C  C178  1  0.05277000  0.22000000  0.59864000  1.0 0.2696051652
C  C179  1  0.16723000  0.22000000  0.09864000  1.0 0.2696051652
C  C180  1  0.83277000  0.78000000  0.90136000  1.0 0.2696051652
C  C181  1  0.07395000  0.79785000  0.38959000  1.0 -0.2331332574
C  C182  1  0.92605000  0.20215000  0.61041000  1.0 -0.2331332574
C  C183  1  0.27610000  0.20215000  0.11041000  1.0 -0.2331332574
C  C184  1  0.72390000  0.79785000  0.88959000  1.0 -0.2375608901
C  C185  1  0.41862000  0.61359000  0.44553000  1.0 0.5600790435
C  C186  1  0.58138000  0.38641000  0.55447000  1.0 0.5600790435
C  C187  1  0.80503000  0.38641000  0.05447000  1.0 0.5600790435
C  C188  1  0.19497000  0.61359000  0.94553000  1.0 0.5600790435
C  C189  1  0.53972000  0.64911000  0.42847000  1.0 -0.0397478405
C  C190  1  0.46028000  0.35089000  0.57153000  1.0 -0.0397478405
C  C191  1  0.89062000  0.35089000  0.07153000  1.0 -0.0397478405
C  C192  1  0.10938000  0.64911000  0.92847000  1.0 -0.0397478405
C  C193  1  0.53720000  0.68447000  0.38692000  1.0 -0.0801158326
C  C194  1  0.46280000  0.31553000  0.61308000  1.0 -0.0801158326
C  C195  1  0.85273000  0.31553000  0.11308000  1.0 -0.0801158326
C  C196  1  0.14727000  0.68447000  0.88692000  1.0 -0.0801158326
C  C197  1  0.64617000  0.71584000  0.36703000  1.0 -0.2084271742
C  C198  1  0.35383000  0.28416000  0.63297000  1.0 -0.2084271742
C  C199  1  0.93034000  0.28416000  0.13297000  1.0 -0.2084271742
C  C200  1  0.06966000  0.71584000  0.86703000  1.0 -0.2084271742
C  C201  1  0.75837000  0.70974000  0.38837000  1.0 0.2452217208
C  C202  1  0.24163000  0.29026000  0.61163000  1.0 0.2452217208
C  C203  1  0.04863000  0.29026000  0.11163000  1.0 0.2452217208
C  C204  1  0.95137000  0.70974000  0.88837000  1.0 0.2452217208
C  C205  1  0.76361000  0.67598000  0.43070000  1.0 -0.2084271742
C  C206  1  0.23639000  0.32402000  0.56930000  1.0 -0.2084271742
C  C207  1  0.08764000  0.32402000  0.06930000  1.0 -0.2084271742
C  C208  1  0.91236000  0.67598000  0.93070000  1.0 -0.2084271742
C  C209  1  0.65369000  0.64601000  0.45138000  1.0 -0.0710437312
C  C210  1  0.34631000  0.35399000  0.54862000  1.0 -0.0710437312
C  C211  1  0.00768000  0.35399000  0.04862000  1.0 -0.0710437312
C  C212  1  0.99232000  0.64601000  0.95138000  1.0 -0.0710437312
N  N1  1  0.26966000  0.08418000  0.62415000  1.0 -0.2851223296
N  N2  1  0.73034000  0.91582000  0.37585000  1.0 -0.2851223296
N  N3  1  0.18549000  0.91582000  0.87585000  1.0 -0.2851223296
N  N4  1  0.81451000  0.08418000  0.12415000  1.0 -0.2851223296
N  N5  1  0.91889000  0.39668000  0.65392000  1.0 -0.2785295324
N  N6  1  0.08111000  0.60332000  0.34608000  1.0 -0.2785295324
N  N7  1  0.52221000  0.60332000  0.84608000  1.0 -0.2785295324
N  N8  1  0.47779000  0.39668000  0.15392000  1.0 -0.2785295324
N  N9  1  0.70835000  0.08880000  0.99669000  1.0 -0.2785295324
N  N10  1  0.29165000  0.91120000  0.00331000  1.0 -0.2785295324
N  N11  1  0.61955000  0.91120000  0.50331000  1.0 -0.2785295324
N  N12  1  0.38045000  0.08880000  0.49669000  1.0 -0.2785295324
N  N13  1  0.45301000  0.37475000  0.01543000  1.0 -0.2785295324
N  N14  1  0.54699000  0.62525000  0.98457000  1.0 -0.2785295324
N  N15  1  0.07825000  0.62525000  0.48457000  1.0 -0.2785295324
N  N16  1  0.92175000  0.37475000  0.51543000  1.0 -0.2785295324
O  O1  1  0.34719000  0.74067000  0.73436000  1.0 -0.2375608901
O  O2  1  0.65281000  0.25933000  0.26564000  1.0 -0.2375608901
O  O3  1  0.60652000  0.25933000  0.76564000  1.0 -0.2375608901
O  O4  1  0.39348000  0.74067000  0.23436000  1.0 -0.2375608901
O  O5  1  0.89033000  0.20220000  0.89058000  1.0 -0.1898320276
O  O6  1  0.10967000  0.79780000  0.10942000  1.0 -0.1898320276
O  O7  1  0.68813000  0.79780000  0.60942000  1.0 -0.1898320276
O  O8  1  0.31187000  0.20220000  0.39058000  1.0 -0.1898320276
O  O9  1  0.55244000  0.99770000  0.66860000  1.0 -0.5605956361
O  O10  1  0.44756000  0.00230000  0.33140000  1.0 -0.5605956361
O  O11  1  0.55475000  0.00230000  0.83140000  1.0 -0.5605956361
O  O12  1  0.44525000  0.99770000  0.16860000  1.0 -0.5605956361
O  O13  1  0.20010000  0.25834000  0.90158000  1.0 -0.1898320276
O  O14  1  0.79990000  0.74166000  0.09842000  1.0 -0.1898320276
O  O15  1  0.94176000  0.74166000  0.59842000  1.0 -0.1898320276
O  O16  1  0.05824000  0.25834000  0.40158000  1.0 -0.1898320276
O  O17  1  0.16346000  0.97052000  0.53682000  1.0 -0.5487121886
O  O18  1  0.83654000  0.02948000  0.46318000  1.0 -0.5487121886
O  O19  1  0.19294000  0.02948000  0.96318000  1.0 -0.5487121886
O  O20  1  0.80706000  0.97052000  0.03682000  1.0 -0.5487121886
O  O21  1  0.04794000  0.30808000  0.76861000  1.0 -0.1987495406
O  O22  1  0.95206000  0.69192000  0.23139000  1.0 -0.1987495406
O  O23  1  0.73987000  0.69192000  0.73139000  1.0 -0.1987495406
O  O24  1  0.26013000  0.30808000  0.26861000  1.0 -0.1987495406
O  O25  1  0.32247000  0.94805000  0.48614000  1.0 -0.5605956361
O  O26  1  0.67753000  0.05195000  0.51386000  1.0 -0.5605956361
O  O27  1  0.37442000  0.05195000  0.01386000  1.0 -0.5605956361
O  O28  1  0.62558000  0.94805000  0.98614000  1.0 -0.5605956361
O  O29  1  0.07422000  0.17023000  0.74144000  1.0 -0.1987495406
O  O30  1  0.92578000  0.82977000  0.25856000  1.0 -0.1987495406
O  O31  1  0.90399000  0.82977000  0.75856000  1.0 -0.1987495406
O  O32  1  0.09601000  0.17023000  0.24144000  1.0 -0.1987495406
O  O33  1  0.89831000  0.53258000  0.63097000  1.0 -0.5605956361
O  O34  1  0.10169000  0.46742000  0.36903000  1.0 -0.5605956361
O  O35  1  0.36573000  0.46742000  0.86903000  1.0 -0.5605956361
O  O36  1  0.63427000  0.53258000  0.13097000  1.0 -0.5605956361
O  O37  1  0.05259000  0.50612000  0.58078000  1.0 -0.5700631759
O  O38  1  0.94741000  0.49388000  0.41922000  1.0 -0.5700631759
O  O39  1  0.54646000  0.49388000  0.91922000  1.0 -0.5700631759
O  O40  1  0.45354000  0.50612000  0.08078000  1.0 -0.5700631759
O  O41  1  0.38293000  0.96020000  0.60966000  1.0 -0.5700631759
O  O42  1  0.61707000  0.03980000  0.39034000  1.0 -0.5700631759
O  O43  1  0.42273000  0.03980000  0.89034000  1.0 -0.5700631759
O  O44  1  0.57727000  0.96020000  0.10966000  1.0 -0.5700631759
O  O45  1  0.86872000  0.73738000  0.36532000  1.0 -0.2084271742
O  O46  1  0.13128000  0.26262000  0.63468000  1.0 -0.2084271742
O  O47  1  0.13134000  0.26262000  0.13468000  1.0 -0.2084271742
O  O48  1  0.86866000  0.73738000  0.86532000  1.0 -0.2084271742
O  O49  1  0.32701000  0.61582000  0.41228000  1.0 -0.5823164528
O  O50  1  0.67299000  0.38418000  0.58772000  1.0 -0.5823164528
O  O51  1  0.71118000  0.38418000  0.08772000  1.0 -0.5823164528
O  O52  1  0.28882000  0.61582000  0.91228000  1.0 -0.5823164528
O  O53  1  0.41060000  0.58586000  0.48595000  1.0 -0.5487121886
O  O54  1  0.58940000  0.41414000  0.51405000  1.0 -0.5487121886
O  O55  1  0.82474000  0.41414000  0.01405000  1.0 -0.5487121886
O  O56  1  0.17526000  0.58586000  0.98595000  1.0 -0.5487121886
