# DDEC6 charges by PACMAN v1.1 (https://github.com/mtap-research/PACMAN-charge/)
data_JAHNEM01_ASR_pacman
_symmetry_space_group_name_H-M   'P 1'
_cell_length_a   13.60130000
_cell_length_b   13.60130000
_cell_length_c   8.14040000
_cell_angle_alpha   90.00000000
_cell_angle_beta   90.00000000
_cell_angle_gamma   120.00000000
_symmetry_Int_Tables_number   1
_chemical_formula_structural   Mn3CrH21C15(N2O)6
_chemical_formula_sum   'Mn6 Cr2 H42 C30 N24 O12'
_cell_volume   1304.17904231
_cell_formula_units_Z   2
loop_
 _symmetry_equiv_pos_site_id
 _symmetry_equiv_pos_as_xyz
  1  'x, y, z'
loop_
 _atom_site_type_symbol
 _atom_site_label
 _atom_site_symmetry_multiplicity
 _atom_site_fract_x
 _atom_site_fract_y
 _atom_site_fract_z
 _atom_site_occupancy
 _atom_site_charge
Mn  Mn1  1  0.29616000  0.33503000  0.54316000  1.0 0.8461735626
Mn  Mn2  1  0.70384000  0.66497000  0.04316000  1.0 0.8461735626
Mn  Mn3  1  0.66497000  0.96113000  0.54316000  1.0 0.8461735626
Mn  Mn4  1  0.03887000  0.70384000  0.54316000  1.0 0.8461735626
Mn  Mn5  1  0.96113000  0.29616000  0.04316000  1.0 0.8461735626
Mn  Mn6  1  0.33503000  0.03887000  0.04316000  1.0 0.8461735626
Cr  Cr1  1  0.33333333  0.66666667  0.92642000  1.0 0.7302001198
Cr  Cr2  1  0.66666667  0.33333333  0.42642000  1.0 0.7302001198
H  H1  1  0.41030000  0.25750000  0.94910000  1.0 0.2890695264
H  H2  1  0.58970000  0.74250000  0.44910000  1.0 0.2890695264
H  H3  1  0.74250000  0.15280000  0.94910000  1.0 0.2890695264
H  H4  1  0.84720000  0.58970000  0.94910000  1.0 0.2890695264
H  H5  1  0.15280000  0.41030000  0.44910000  1.0 0.2890695264
H  H6  1  0.25750000  0.84720000  0.44910000  1.0 0.2890695264
H  H7  1  0.28640000  0.20110000  0.94270000  1.0 0.300053376
H  H8  1  0.71360000  0.79890000  0.44270000  1.0 0.300053376
H  H9  1  0.79890000  0.08530000  0.94270000  1.0 0.300053376
H  H10  1  0.91470000  0.71360000  0.94270000  1.0 0.300053376
H  H11  1  0.08530000  0.28640000  0.44270000  1.0 0.300053376
H  H12  1  0.20110000  0.91470000  0.44270000  1.0 0.300053376
H  H13  1  0.42160000  0.28680000  0.20930000  1.0 0.1063305815
H  H14  1  0.57840000  0.71320000  0.70930000  1.0 0.1063305815
H  H15  1  0.71320000  0.13480000  0.20930000  1.0 0.1063305815
H  H16  1  0.86520000  0.57840000  0.20930000  1.0 0.1063305815
H  H17  1  0.13480000  0.42160000  0.70930000  1.0 0.1063305815
H  H18  1  0.28680000  0.86520000  0.70930000  1.0 0.1063305815
H  H19  1  0.34790000  0.48270000  0.29780000  1.0 0.2890695264
H  H20  1  0.65210000  0.51730000  0.79780000  1.0 0.2890695264
H  H21  1  0.51730000  0.86520000  0.29780000  1.0 0.2890695264
H  H22  1  0.13480000  0.65210000  0.29780000  1.0 0.2890695264
H  H23  1  0.86520000  0.34790000  0.79780000  1.0 0.2890695264
H  H24  1  0.48270000  0.13480000  0.79780000  1.0 0.2890695264
H  H25  1  0.44050000  0.45850000  0.30600000  1.0 0.2839407702
H  H26  1  0.55950000  0.54150000  0.80600000  1.0 0.2839407702
H  H27  1  0.54150000  0.98200000  0.30600000  1.0 0.2839407702
H  H28  1  0.01800000  0.55950000  0.30600000  1.0 0.2839407702
H  H29  1  0.98200000  0.44050000  0.80600000  1.0 0.2839407702
H  H30  1  0.45850000  0.01800000  0.80600000  1.0 0.2839407702
H  H31  1  0.35230000  0.39760000  0.06120000  1.0 0.1063305815
H  H32  1  0.64770000  0.60240000  0.56120000  1.0 0.1063305815
H  H33  1  0.60240000  0.95470000  0.06120000  1.0 0.1063305815
H  H34  1  0.04530000  0.64770000  0.06120000  1.0 0.1063305815
H  H35  1  0.95470000  0.35230000  0.56120000  1.0 0.1063305815
H  H36  1  0.39760000  0.04530000  0.56120000  1.0 0.1063305815
H  H37  1  0.23740000  0.32190000  0.15390000  1.0 0.1172448849
H  H38  1  0.76260000  0.67810000  0.65390000  1.0 0.1172448849
H  H39  1  0.67810000  0.91550000  0.15390000  1.0 0.1172448849
H  H40  1  0.08450000  0.76260000  0.15390000  1.0 0.1172448849
H  H41  1  0.91550000  0.23740000  0.65390000  1.0 0.1172448849
H  H42  1  0.32190000  0.08450000  0.65390000  1.0 0.1172448849
C  C1  1  0.52950000  0.32080000  0.55560000  1.0 -0.1357028703
C  C2  1  0.47050000  0.67920000  0.05560000  1.0 -0.1357028703
C  C3  1  0.67920000  0.20870000  0.55560000  1.0 -0.1357028703
C  C4  1  0.79130000  0.47050000  0.55560000  1.0 -0.1357028703
C  C5  1  0.20870000  0.52950000  0.05560000  1.0 -0.1357028703
C  C6  1  0.32080000  0.79130000  0.05560000  1.0 -0.1357028703
C  C7  1  0.35490000  0.55640000  0.77620000  1.0 -0.1045655479
C  C8  1  0.64510000  0.44360000  0.27620000  1.0 -0.1045655479
C  C9  1  0.44360000  0.79850000  0.77620000  1.0 -0.1045655479
C  C10  1  0.20150000  0.64510000  0.77620000  1.0 -0.1045655479
C  C11  1  0.79850000  0.35490000  0.27620000  1.0 -0.1045655479
C  C12  1  0.55640000  0.20150000  0.27620000  1.0 -0.1045655479
C  C13  1  0.26700000  0.15890000  0.27990000  1.0 0.573305287
C  C14  1  0.73300000  0.84110000  0.77990000  1.0 0.573305287
C  C15  1  0.84110000  0.10810000  0.27990000  1.0 0.573305287
C  C16  1  0.89190000  0.73300000  0.27990000  1.0 0.573305287
C  C17  1  0.10810000  0.26700000  0.77990000  1.0 0.573305287
C  C18  1  0.15890000  0.89190000  0.77990000  1.0 0.573305287
C  C19  1  0.34460000  0.25490000  0.16510000  1.0 -0.0277458433
C  C20  1  0.65540000  0.74510000  0.66510000  1.0 -0.0277458433
C  C21  1  0.74510000  0.08970000  0.16510000  1.0 -0.0277458433
C  C22  1  0.91030000  0.65540000  0.16510000  1.0 -0.0277458433
C  C23  1  0.08970000  0.34460000  0.66510000  1.0 -0.0277458433
C  C24  1  0.25490000  0.91030000  0.66510000  1.0 -0.0277458433
C  C25  1  0.31890000  0.35280000  0.15950000  1.0 -0.058933835
C  C26  1  0.68110000  0.64720000  0.65950000  1.0 -0.058933835
C  C27  1  0.64720000  0.96610000  0.15950000  1.0 -0.058933835
C  C28  1  0.03390000  0.68110000  0.15950000  1.0 -0.058933835
C  C29  1  0.96610000  0.31890000  0.65950000  1.0 -0.058933835
C  C30  1  0.35280000  0.03390000  0.65950000  1.0 -0.058933835
N  N1  1  0.34590000  0.20980000  0.00270000  1.0 -0.5560987512
N  N2  1  0.65410000  0.79020000  0.50270000  1.0 -0.5560987512
N  N3  1  0.79020000  0.13610000  0.00270000  1.0 -0.5560987512
N  N4  1  0.86390000  0.65410000  0.00270000  1.0 -0.5560987512
N  N5  1  0.13610000  0.34590000  0.50270000  1.0 -0.5560987512
N  N6  1  0.20980000  0.86390000  0.50270000  1.0 -0.5560987512
N  N7  1  0.36440000  0.42650000  0.30550000  1.0 -0.5326409708
N  N8  1  0.63560000  0.57350000  0.80550000  1.0 -0.5326409708
N  N9  1  0.57350000  0.93790000  0.30550000  1.0 -0.5326409708
N  N10  1  0.06210000  0.63560000  0.30550000  1.0 -0.5326409708
N  N11  1  0.93790000  0.36440000  0.80550000  1.0 -0.5326409708
N  N12  1  0.42650000  0.06210000  0.80550000  1.0 -0.5326409708
N  N13  1  0.44850000  0.31870000  0.60430000  1.0 -0.3495596766
N  N14  1  0.55150000  0.68130000  0.10430000  1.0 -0.3495596766
N  N15  1  0.68130000  0.12980000  0.60430000  1.0 -0.3495596766
N  N16  1  0.87020000  0.55150000  0.60430000  1.0 -0.3495596766
N  N17  1  0.12980000  0.44850000  0.10430000  1.0 -0.3495596766
N  N18  1  0.31870000  0.87020000  0.10430000  1.0 -0.3495596766
N  N19  1  0.36670000  0.49550000  0.69110000  1.0 -0.3495596766
N  N20  1  0.63330000  0.50450000  0.19110000  1.0 -0.3495596766
N  N21  1  0.50450000  0.87120000  0.69110000  1.0 -0.3495596766
N  N22  1  0.12880000  0.63330000  0.69110000  1.0 -0.3495596766
N  N23  1  0.87120000  0.36670000  0.19110000  1.0 -0.3495596766
N  N24  1  0.49550000  0.12880000  0.19110000  1.0 -0.3495596766
O  O1  1  0.22730000  0.18090000  0.40430000  1.0 -0.5074699938
O  O2  1  0.77270000  0.81910000  0.90430000  1.0 -0.5074699938
O  O3  1  0.81910000  0.04640000  0.40430000  1.0 -0.5074699938
O  O4  1  0.95360000  0.77270000  0.40430000  1.0 -0.5074699938
O  O5  1  0.04640000  0.22730000  0.90430000  1.0 -0.5074699938
O  O6  1  0.18090000  0.95360000  0.90430000  1.0 -0.5074699938
O  O7  1  0.24500000  0.05850000  0.24640000  1.0 -0.5326409708
O  O8  1  0.75500000  0.94150000  0.74640000  1.0 -0.5326409708
O  O9  1  0.94150000  0.18650000  0.24640000  1.0 -0.5326409708
O  O10  1  0.81350000  0.75500000  0.24640000  1.0 -0.5326409708
O  O11  1  0.18650000  0.24500000  0.74640000  1.0 -0.5326409708
O  O12  1  0.05850000  0.81350000  0.74640000  1.0 -0.5326409708
