# DDEC6 charges by PACMAN v1.1 (https://github.com/mtap-research/PACMAN-charge/)
data_JAHNEM02_FSR_pacman
_symmetry_space_group_name_H-M   'P 1'
_cell_length_a   13.60930000
_cell_length_b   13.60930000
_cell_length_c   8.16090000
_cell_angle_alpha   90.00000000
_cell_angle_beta   90.00000000
_cell_angle_gamma   120.00000000
_symmetry_Int_Tables_number   1
_chemical_formula_structural   Mn3CrH21C15(N2O)6
_chemical_formula_sum   'Mn6 Cr2 H42 C30 N24 O12'
_cell_volume   1309.00185880
_cell_formula_units_Z   2
loop_
 _symmetry_equiv_pos_site_id
 _symmetry_equiv_pos_as_xyz
  1  'x, y, z'
loop_
 _atom_site_type_symbol
 _atom_site_label
 _atom_site_symmetry_multiplicity
 _atom_site_fract_x
 _atom_site_fract_y
 _atom_site_fract_z
 _atom_site_occupancy
 _atom_site_charge
Mn  Mn1  1  0.29578000  0.33471000  0.54340000  1.0 0.8372614442
Mn  Mn2  1  0.70422000  0.66529000  0.04340000  1.0 0.8372614442
Mn  Mn3  1  0.66529000  0.96107000  0.54340000  1.0 0.8372614442
Mn  Mn4  1  0.03893000  0.70422000  0.54340000  1.0 0.8372614442
Mn  Mn5  1  0.96107000  0.29578000  0.04340000  1.0 0.8372614442
Mn  Mn6  1  0.33471000  0.03893000  0.04340000  1.0 0.8372614442
Cr  Cr1  1  0.33333333  0.66666667  0.92566000  1.0 0.7350618798
Cr  Cr2  1  0.66666667  0.33333333  0.42566000  1.0 0.7350618798
H  H1  1  0.41040000  0.25770000  0.95030000  1.0 0.292439248
H  H2  1  0.58960000  0.74230000  0.45030000  1.0 0.292439248
H  H3  1  0.74230000  0.15270000  0.95030000  1.0 0.292439248
H  H4  1  0.84730000  0.58960000  0.95030000  1.0 0.292439248
H  H5  1  0.15270000  0.41040000  0.45030000  1.0 0.292439248
H  H6  1  0.25770000  0.84730000  0.45030000  1.0 0.292439248
H  H7  1  0.28660000  0.20160000  0.94370000  1.0 0.3009701628
H  H8  1  0.71340000  0.79840000  0.44370000  1.0 0.3009701628
H  H9  1  0.79840000  0.08500000  0.94370000  1.0 0.3009701628
H  H10  1  0.91500000  0.71340000  0.94370000  1.0 0.3009701628
H  H11  1  0.08500000  0.28660000  0.44370000  1.0 0.3009701628
H  H12  1  0.20160000  0.91500000  0.44370000  1.0 0.3009701628
H  H13  1  0.42160000  0.28720000  0.21010000  1.0 0.1065027561
H  H14  1  0.57840000  0.71280000  0.71010000  1.0 0.1065027561
H  H15  1  0.71280000  0.13440000  0.21010000  1.0 0.1065027561
H  H16  1  0.86560000  0.57840000  0.21010000  1.0 0.1065027561
H  H17  1  0.13440000  0.42160000  0.71010000  1.0 0.1065027561
H  H18  1  0.28720000  0.86560000  0.71010000  1.0 0.1065027561
H  H19  1  0.34700000  0.48200000  0.29900000  1.0 0.2838252146
H  H20  1  0.65300000  0.51800000  0.79900000  1.0 0.2838252146
H  H21  1  0.51800000  0.86500000  0.29900000  1.0 0.2838252146
H  H22  1  0.13500000  0.65300000  0.29900000  1.0 0.2838252146
H  H23  1  0.86500000  0.34700000  0.79900000  1.0 0.2838252146
H  H24  1  0.48200000  0.13500000  0.79900000  1.0 0.2838252146
H  H25  1  0.43970000  0.45810000  0.30710000  1.0 0.2838252146
H  H26  1  0.56030000  0.54190000  0.80710000  1.0 0.2838252146
H  H27  1  0.54190000  0.98160000  0.30710000  1.0 0.2838252146
H  H28  1  0.01840000  0.56030000  0.30710000  1.0 0.2838252146
H  H29  1  0.98160000  0.43970000  0.80710000  1.0 0.2838252146
H  H30  1  0.45810000  0.01840000  0.80710000  1.0 0.2838252146
H  H31  1  0.35180000  0.39790000  0.06330000  1.0 0.1065027561
H  H32  1  0.64820000  0.60210000  0.56330000  1.0 0.1065027561
H  H33  1  0.60210000  0.95390000  0.06330000  1.0 0.1065027561
H  H34  1  0.04610000  0.64820000  0.06330000  1.0 0.1065027561
H  H35  1  0.95390000  0.35180000  0.56330000  1.0 0.1065027561
H  H36  1  0.39790000  0.04610000  0.56330000  1.0 0.1065027561
H  H37  1  0.23710000  0.32160000  0.15580000  1.0 0.1190590073
H  H38  1  0.76290000  0.67840000  0.65580000  1.0 0.1190590073
H  H39  1  0.67840000  0.91550000  0.15580000  1.0 0.1190590073
H  H40  1  0.08450000  0.76290000  0.15580000  1.0 0.1190590073
H  H41  1  0.91550000  0.23710000  0.65580000  1.0 0.1190590073
H  H42  1  0.32160000  0.08450000  0.65580000  1.0 0.1190590073
C  C1  1  0.52970000  0.32070000  0.55520000  1.0 -0.1339944344
C  C2  1  0.47030000  0.67930000  0.05520000  1.0 -0.1339944344
C  C3  1  0.67930000  0.20900000  0.55520000  1.0 -0.1339944344
C  C4  1  0.79100000  0.47030000  0.55520000  1.0 -0.1339944344
C  C5  1  0.20900000  0.52970000  0.05520000  1.0 -0.1339944344
C  C6  1  0.32070000  0.79100000  0.05520000  1.0 -0.1339944344
C  C7  1  0.35440000  0.55580000  0.77630000  1.0 -0.1029691228
C  C8  1  0.64560000  0.44420000  0.27630000  1.0 -0.1029691228
C  C9  1  0.44420000  0.79860000  0.77630000  1.0 -0.1029691228
C  C10  1  0.20140000  0.64560000  0.77630000  1.0 -0.1029691228
C  C11  1  0.79860000  0.35440000  0.27630000  1.0 -0.1029691228
C  C12  1  0.55580000  0.20140000  0.27630000  1.0 -0.1029691228
C  C13  1  0.26660000  0.15870000  0.28000000  1.0 0.5692632754
C  C14  1  0.73340000  0.84130000  0.78000000  1.0 0.5692632754
C  C15  1  0.84130000  0.10790000  0.28000000  1.0 0.5692632754
C  C16  1  0.89210000  0.73340000  0.28000000  1.0 0.5692632754
C  C17  1  0.10790000  0.26660000  0.78000000  1.0 0.5692632754
C  C18  1  0.15870000  0.89210000  0.78000000  1.0 0.5692632754
C  C19  1  0.34470000  0.25540000  0.16580000  1.0 -0.0262993963
C  C20  1  0.65530000  0.74460000  0.66580000  1.0 -0.0262993963
C  C21  1  0.74460000  0.08930000  0.16580000  1.0 -0.0262993963
C  C22  1  0.91070000  0.65530000  0.16580000  1.0 -0.0262993963
C  C23  1  0.08930000  0.34470000  0.66580000  1.0 -0.0262993963
C  C24  1  0.25540000  0.91070000  0.66580000  1.0 -0.0262993963
C  C25  1  0.31860000  0.35280000  0.16120000  1.0 -0.0581849599
C  C26  1  0.68140000  0.64720000  0.66120000  1.0 -0.0581849599
C  C27  1  0.64720000  0.96580000  0.16120000  1.0 -0.0581849599
C  C28  1  0.03420000  0.68140000  0.16120000  1.0 -0.0581849599
C  C29  1  0.96580000  0.31860000  0.66120000  1.0 -0.0581849599
C  C30  1  0.35280000  0.03420000  0.66120000  1.0 -0.0581849599
N  N1  1  0.34590000  0.21010000  0.00360000  1.0 -0.5574562591
N  N2  1  0.65410000  0.78990000  0.50360000  1.0 -0.5574562591
N  N3  1  0.78990000  0.13580000  0.00360000  1.0 -0.5574562591
N  N4  1  0.86420000  0.65410000  0.00360000  1.0 -0.5574562591
N  N5  1  0.13580000  0.34590000  0.50360000  1.0 -0.5574562591
N  N6  1  0.21010000  0.86420000  0.50360000  1.0 -0.5574562591
N  N7  1  0.36360000  0.42590000  0.30660000  1.0 -0.5315442971
N  N8  1  0.63640000  0.57410000  0.80660000  1.0 -0.5315442971
N  N9  1  0.57410000  0.93770000  0.30660000  1.0 -0.5315442971
N  N10  1  0.06230000  0.63640000  0.30660000  1.0 -0.5315442971
N  N11  1  0.93770000  0.36360000  0.80660000  1.0 -0.5315442971
N  N12  1  0.42590000  0.06230000  0.80660000  1.0 -0.5315442971
N  N13  1  0.44870000  0.31890000  0.60370000  1.0 -0.3448235433
N  N14  1  0.55130000  0.68110000  0.10370000  1.0 -0.3448235433
N  N15  1  0.68110000  0.12980000  0.60370000  1.0 -0.3448235433
N  N16  1  0.87020000  0.55130000  0.60370000  1.0 -0.350910425
N  N17  1  0.12980000  0.44870000  0.10370000  1.0 -0.3448235433
N  N18  1  0.31890000  0.87020000  0.10370000  1.0 -0.3448235433
N  N19  1  0.36650000  0.49570000  0.69160000  1.0 -0.350910425
N  N20  1  0.63350000  0.50430000  0.19160000  1.0 -0.350910425
N  N21  1  0.50430000  0.87080000  0.69160000  1.0 -0.350910425
N  N22  1  0.12920000  0.63350000  0.69160000  1.0 -0.350910425
N  N23  1  0.87080000  0.36650000  0.19160000  1.0 -0.350910425
N  N24  1  0.49570000  0.12920000  0.19160000  1.0 -0.350910425
O  O1  1  0.22790000  0.18060000  0.40480000  1.0 -0.5059284906
O  O2  1  0.77210000  0.81940000  0.90480000  1.0 -0.5059284906
O  O3  1  0.81940000  0.04730000  0.40480000  1.0 -0.5059284906
O  O4  1  0.95270000  0.77210000  0.40480000  1.0 -0.5059284906
O  O5  1  0.04730000  0.22790000  0.90480000  1.0 -0.5059284906
O  O6  1  0.18060000  0.95270000  0.90480000  1.0 -0.5059284906
O  O7  1  0.24470000  0.05850000  0.24670000  1.0 -0.5315442971
O  O8  1  0.75530000  0.94150000  0.74670000  1.0 -0.5315442971
O  O9  1  0.94150000  0.18620000  0.24670000  1.0 -0.5315442971
O  O10  1  0.81380000  0.75530000  0.24670000  1.0 -0.5315442971
O  O11  1  0.18620000  0.24470000  0.74670000  1.0 -0.5315442971
O  O12  1  0.05850000  0.81380000  0.74670000  1.0 -0.5315442971
