# DDEC6 charges by PACMAN v1.1 (https://github.com/mtap-research/PACMAN-charge/)
data_JAKBOP01_FSR_pacman
_symmetry_space_group_name_H-M   'P 1'
_cell_length_a   10.39100000
_cell_length_b   15.81000000
_cell_length_c   15.48200000
_cell_angle_alpha   90.00000000
_cell_angle_beta   127.56000000
_cell_angle_gamma   90.00000000
_symmetry_Int_Tables_number   1
_chemical_formula_structural   Mn(C2N3)3
_chemical_formula_sum   'Mn4 C24 N36'
_cell_volume   2016.19985734
_cell_formula_units_Z   4
loop_
 _symmetry_equiv_pos_site_id
 _symmetry_equiv_pos_as_xyz
  1  'x, y, z'
loop_
 _atom_site_type_symbol
 _atom_site_label
 _atom_site_symmetry_multiplicity
 _atom_site_fract_x
 _atom_site_fract_y
 _atom_site_fract_z
 _atom_site_occupancy
 _atom_site_charge
Mn  Mn1  1  0.58360000  0.81614000  0.81505000  1.0 0.9951511528
Mn  Mn2  1  0.41640000  0.31614000  0.68495000  1.0 0.9940184262
Mn  Mn3  1  0.41640000  0.18386000  0.18495000  1.0 0.9940184262
Mn  Mn4  1  0.58360000  0.68386000  0.31505000  1.0 0.9940184262
C  C1  1  0.52870000  0.63820000  0.67790000  1.0 0.4255773988
C  C2  1  0.47130000  0.13820000  0.82210000  1.0 0.4247148838
C  C3  1  0.47130000  0.36180000  0.32210000  1.0 0.4255773988
C  C4  1  0.52870000  0.86180000  0.17790000  1.0 0.4255773988
C  C5  1  0.44000000  0.50390000  0.60930000  1.0 0.452193688
C  C6  1  0.56000000  0.00390000  0.89070000  1.0 0.452193688
C  C7  1  0.56000000  0.49610000  0.39070000  1.0 0.452193688
C  C8  1  0.44000000  0.99610000  0.10930000  1.0 0.452193688
C  C9  1  0.50490000  0.69620000  0.95560000  1.0 0.4378298278
C  C10  1  0.49510000  0.19620000  0.54440000  1.0 0.4378298278
C  C11  1  0.49510000  0.30380000  0.04440000  1.0 0.4378298278
C  C12  1  0.50490000  0.80380000  0.45560000  1.0 0.4378298278
C  C13  1  0.20090000  0.81080000  0.60290000  1.0 0.452193688
C  C14  1  0.79910000  0.31080000  0.89710000  1.0 0.452193688
C  C15  1  0.79910000  0.18920000  0.39710000  1.0 0.452193688
C  C16  1  0.20090000  0.68920000  0.10290000  1.0 0.452193688
C  C17  1  0.96630000  0.74470000  0.46430000  1.0 0.452193688
C  C18  1  0.03370000  0.24470000  0.03570000  1.0 0.452193688
C  C19  1  0.03370000  0.25530000  0.53570000  1.0 0.452193688
C  C20  1  0.96630000  0.75530000  0.96430000  1.0 0.452193688
C  C21  1  0.53550000  0.62880000  0.09910000  1.0 0.4255773988
C  C22  1  0.46450000  0.12880000  0.40090000  1.0 0.4247148838
C  C23  1  0.46450000  0.37120000  0.90090000  1.0 0.4247148838
C  C24  1  0.53550000  0.87120000  0.59910000  1.0 0.4255773988
N  N1  1  0.55540000  0.69700000  0.72790000  1.0 -0.4102225844
N  N2  1  0.44460000  0.19700000  0.77210000  1.0 -0.4102225844
N  N3  1  0.44460000  0.30300000  0.27210000  1.0 -0.4102225844
N  N4  1  0.55540000  0.80300000  0.22790000  1.0 -0.4102225844
N  N5  1  0.59730000  0.61540000  0.19000000  1.0 -0.4102225844
N  N6  1  0.40270000  0.11540000  0.31000000  1.0 -0.4102225844
N  N7  1  0.40270000  0.38460000  0.81000000  1.0 -0.4102225844
N  N8  1  0.59730000  0.88460000  0.69000000  1.0 -0.4102225844
N  N9  1  0.39020000  0.43820000  0.60340000  1.0 -0.3738850548
N  N10  1  0.60980000  0.93820000  0.89660000  1.0 -0.3804269313
N  N11  1  0.60980000  0.56180000  0.39660000  1.0 -0.3738850548
N  N12  1  0.39020000  0.06180000  0.10340000  1.0 -0.3738850548
N  N13  1  0.49740000  0.57710000  0.60750000  1.0 -0.3804269313
N  N14  1  0.50260000  0.07710000  0.89250000  1.0 -0.3804269313
N  N15  1  0.50260000  0.42290000  0.39250000  1.0 -0.3804269313
N  N16  1  0.49740000  0.92290000  0.10750000  1.0 -0.3804269313
N  N17  1  0.31200000  0.83670000  0.69160000  1.0 -0.5159356985
N  N18  1  0.68800000  0.33670000  0.80840000  1.0 -0.5144217704
N  N19  1  0.68800000  0.16330000  0.30840000  1.0 -0.5144217704
N  N20  1  0.31200000  0.66330000  0.19160000  1.0 -0.5159356985
N  N21  1  0.53550000  0.74100000  0.91510000  1.0 -0.3961147684
N  N22  1  0.46450000  0.24100000  0.58490000  1.0 -0.3961147684
N  N23  1  0.46450000  0.25900000  0.08490000  1.0 -0.3961147684
N  N24  1  0.53550000  0.75900000  0.41510000  1.0 -0.3961147684
N  N25  1  0.85080000  0.70300000  0.42470000  1.0 -0.4235411156
N  N26  1  0.14920000  0.20300000  0.07530000  1.0 -0.4235411156
N  N27  1  0.14920000  0.29700000  0.57530000  1.0 -0.4235411156
N  N28  1  0.85080000  0.79700000  0.92470000  1.0 -0.4235411156
N  N29  1  0.09800000  0.79120000  0.50250000  1.0 -0.3864048366
N  N30  1  0.90200000  0.29120000  0.99750000  1.0 -0.3804269313
N  N31  1  0.90200000  0.20880000  0.49750000  1.0 -0.3804269313
N  N32  1  0.09800000  0.70880000  0.00250000  1.0 -0.3864048366
N  N33  1  0.45410000  0.63690000  0.99180000  1.0 -0.3442265385
N  N34  1  0.54590000  0.13690000  0.50820000  1.0 -0.3442265385
N  N35  1  0.54590000  0.36310000  0.00820000  1.0 -0.3456295226
N  N36  1  0.45410000  0.86310000  0.49180000  1.0 -0.3442265385
