# DDEC6 charges by PACMAN v1.1 (https://github.com/mtap-research/PACMAN-charge/)
data_JALLOA_FSR_pacman
_symmetry_space_group_name_H-M   'P 1'
_cell_length_a   25.77500000
_cell_length_b   25.77500000
_cell_length_c   25.77500000
_cell_angle_alpha   60.00000000
_cell_angle_beta   60.00000000
_cell_angle_gamma   60.00000000
_symmetry_Int_Tables_number   1
_chemical_formula_structural   Ce3C9O16
_chemical_formula_sum   'Ce24 C72 O128'
_cell_volume   12108.24009539
_cell_formula_units_Z   8
loop_
 _symmetry_equiv_pos_site_id
 _symmetry_equiv_pos_as_xyz
  1  'x, y, z'
loop_
 _atom_site_type_symbol
 _atom_site_label
 _atom_site_symmetry_multiplicity
 _atom_site_fract_x
 _atom_site_fract_y
 _atom_site_fract_z
 _atom_site_occupancy
 _atom_site_charge
Ce  Ce1  1  0.50230000  0.64830000  0.20110000  1.0 2.3272671058
Ce  Ce2  1  0.60170000  0.04890000  0.74770000  1.0 2.3272671058
Ce  Ce3  1  0.64830000  0.50230000  0.64830000  1.0 2.3272671058
Ce  Ce4  1  0.04890000  0.60170000  0.60170000  1.0 2.3272671058
Ce  Ce5  1  0.60170000  0.60170000  0.74770000  1.0 2.3272671058
Ce  Ce6  1  0.64830000  0.20110000  0.64830000  1.0 2.3272671058
Ce  Ce7  1  0.04890000  0.74770000  0.60170000  1.0 2.3272671058
Ce  Ce8  1  0.60170000  0.04890000  0.60170000  1.0 2.3272671058
Ce  Ce9  1  0.20110000  0.64830000  0.50230000  1.0 2.3242872013
Ce  Ce10  1  0.60170000  0.74770000  0.60170000  1.0 2.3272671058
Ce  Ce11  1  0.20110000  0.50230000  0.64830000  1.0 2.3272671058
Ce  Ce12  1  0.64830000  0.20110000  0.50230000  1.0 2.3272671058
Ce  Ce13  1  0.20110000  0.64830000  0.64830000  1.0 2.3272671058
Ce  Ce14  1  0.64830000  0.64830000  0.50230000  1.0 2.336569255
Ce  Ce15  1  0.50230000  0.64830000  0.64830000  1.0 2.3272671058
Ce  Ce16  1  0.50230000  0.20110000  0.64830000  1.0 2.3272671058
Ce  Ce17  1  0.64830000  0.64830000  0.20110000  1.0 2.336569255
Ce  Ce18  1  0.64830000  0.50230000  0.20110000  1.0 2.336569255
Ce  Ce19  1  0.74770000  0.60170000  0.60170000  1.0 2.3242872013
Ce  Ce20  1  0.60170000  0.74770000  0.04890000  1.0 2.3242872013
Ce  Ce21  1  0.60170000  0.60170000  0.04890000  1.0 2.3242872013
Ce  Ce22  1  0.74770000  0.04890000  0.60170000  1.0 2.3272671058
Ce  Ce23  1  0.74770000  0.60170000  0.04890000  1.0 2.3242872013
Ce  Ce24  1  0.04890000  0.60170000  0.74770000  1.0 2.3272671058
C  C1  1  0.50178000  0.50178000  0.31436000  1.0 0.7832842125
C  C2  1  0.56792000  0.93564000  0.74822000  1.0 0.7832842125
C  C3  1  0.50178000  0.50178000  0.68208000  1.0 0.7832842125
C  C4  1  0.93564000  0.56792000  0.74822000  1.0 0.7832842125
C  C5  1  0.74822000  0.56792000  0.74822000  1.0 0.7832842125
C  C6  1  0.68208000  0.31436000  0.50178000  1.0 0.7832842125
C  C7  1  0.93564000  0.74822000  0.56792000  1.0 0.7832842125
C  C8  1  0.74822000  0.93564000  0.56792000  1.0 0.7832842125
C  C9  1  0.31436000  0.68208000  0.50178000  1.0 0.7832842125
C  C10  1  0.56792000  0.74822000  0.74822000  1.0 0.7832842125
C  C11  1  0.31436000  0.50178000  0.50178000  1.0 0.7832842125
C  C12  1  0.50178000  0.31436000  0.50178000  1.0 0.7832842125
C  C13  1  0.31436000  0.50178000  0.68208000  1.0 0.7832842125
C  C14  1  0.68208000  0.50178000  0.50178000  1.0 0.7832842125
C  C15  1  0.50178000  0.68208000  0.50178000  1.0 0.7888876452
C  C16  1  0.50178000  0.31436000  0.68208000  1.0 0.7832842125
C  C17  1  0.50178000  0.68208000  0.31436000  1.0 0.7832842125
C  C18  1  0.68208000  0.50178000  0.31436000  1.0 0.7832842125
C  C19  1  0.74822000  0.74822000  0.56792000  1.0 0.7832842125
C  C20  1  0.74822000  0.74822000  0.93564000  1.0 0.7832842125
C  C21  1  0.56792000  0.74822000  0.93564000  1.0 0.7832842125
C  C22  1  0.74822000  0.93564000  0.74822000  1.0 0.7832842125
C  C23  1  0.74822000  0.56792000  0.93564000  1.0 0.7832842125
C  C24  1  0.93564000  0.74822000  0.74822000  1.0 0.7832842125
C  C25  1  0.47438000  0.47438000  0.38188000  1.0 -0.0282309352
C  C26  1  0.58064000  0.86812000  0.77562000  1.0 -0.0282309352
C  C27  1  0.47438000  0.47438000  0.66936000  1.0 -0.0282309352
C  C28  1  0.86812000  0.58064000  0.77562000  1.0 -0.0282309352
C  C29  1  0.77562000  0.58064000  0.77562000  1.0 -0.0282309352
C  C30  1  0.66936000  0.38188000  0.47438000  1.0 -0.0282309352
C  C31  1  0.86812000  0.77562000  0.58064000  1.0 -0.0282309352
C  C32  1  0.77562000  0.86812000  0.58064000  1.0 -0.0248004244
C  C33  1  0.38188000  0.66936000  0.47438000  1.0 -0.0282309352
C  C34  1  0.58064000  0.77562000  0.77562000  1.0 -0.0282309352
C  C35  1  0.38188000  0.47438000  0.47438000  1.0 -0.0282309352
C  C36  1  0.47438000  0.38188000  0.47438000  1.0 -0.0282309352
C  C37  1  0.38188000  0.47438000  0.66936000  1.0 -0.0248004244
C  C38  1  0.66936000  0.47438000  0.47438000  1.0 -0.0282309352
C  C39  1  0.47438000  0.66936000  0.47438000  1.0 -0.0282309352
C  C40  1  0.47438000  0.38188000  0.66936000  1.0 -0.0282309352
C  C41  1  0.47438000  0.66936000  0.38188000  1.0 -0.0282309352
C  C42  1  0.66936000  0.47438000  0.38188000  1.0 -0.0282309352
C  C43  1  0.77562000  0.77562000  0.58064000  1.0 -0.0282309352
C  C44  1  0.77562000  0.77562000  0.86812000  1.0 -0.0248004244
C  C45  1  0.58064000  0.77562000  0.86812000  1.0 -0.0248004244
C  C46  1  0.77562000  0.86812000  0.77562000  1.0 -0.0248004244
C  C47  1  0.77562000  0.58064000  0.86812000  1.0 -0.0282309352
C  C48  1  0.86812000  0.77562000  0.77562000  1.0 -0.0282309352
C  C49  1  0.50408000  0.41282000  0.41282000  1.0 0.2453024639
C  C50  1  0.57972000  0.83718000  0.74592000  1.0 0.2432656576
C  C51  1  0.41282000  0.50408000  0.67028000  1.0 0.2432656576
C  C52  1  0.83718000  0.57972000  0.83718000  1.0 0.2432656576
C  C53  1  0.83718000  0.57972000  0.74592000  1.0 0.2432656576
C  C54  1  0.67028000  0.41282000  0.41282000  1.0 0.2432656576
C  C55  1  0.83718000  0.74592000  0.57972000  1.0 0.2432656576
C  C56  1  0.83718000  0.83718000  0.57972000  1.0 0.2432656576
C  C57  1  0.41282000  0.67028000  0.50408000  1.0 0.2432656576
C  C58  1  0.57972000  0.74592000  0.83718000  1.0 0.2432656576
C  C59  1  0.41282000  0.50408000  0.41282000  1.0 0.2453024639
C  C60  1  0.41282000  0.41282000  0.50408000  1.0 0.2432656576
C  C61  1  0.41282000  0.41282000  0.67028000  1.0 0.2432656576
C  C62  1  0.67028000  0.41282000  0.50408000  1.0 0.2432656576
C  C63  1  0.50408000  0.67028000  0.41282000  1.0 0.2453024639
C  C64  1  0.50408000  0.41282000  0.67028000  1.0 0.2432656576
C  C65  1  0.41282000  0.67028000  0.41282000  1.0 0.2432656576
C  C66  1  0.67028000  0.50408000  0.41282000  1.0 0.2432656576
C  C67  1  0.74592000  0.83718000  0.57972000  1.0 0.2432656576
C  C68  1  0.83718000  0.74592000  0.83718000  1.0 0.2432656576
C  C69  1  0.57972000  0.83718000  0.83718000  1.0 0.2432656576
C  C70  1  0.74592000  0.83718000  0.83718000  1.0 0.2432656576
C  C71  1  0.74592000  0.57972000  0.83718000  1.0 0.2432656576
C  C72  1  0.83718000  0.83718000  0.74592000  1.0 0.2432656576
O  O1  1  0.52730000  0.69410000  0.08450000  1.0 -1.0402385588
O  O2  1  0.55590000  0.16550000  0.72270000  1.0 -1.0402385588
O  O3  1  0.69410000  0.52730000  0.69410000  1.0 -1.0402385588
O  O4  1  0.16550000  0.55590000  0.55590000  1.0 -1.0402385588
O  O5  1  0.55590000  0.55590000  0.72270000  1.0 -1.0402385588
O  O6  1  0.69410000  0.08450000  0.69410000  1.0 -1.0402385588
O  O7  1  0.16550000  0.72270000  0.55590000  1.0 -1.0402385588
O  O8  1  0.55590000  0.16550000  0.55590000  1.0 -1.0402385588
O  O9  1  0.08450000  0.69410000  0.52730000  1.0 -1.0402385588
O  O10  1  0.55590000  0.72270000  0.55590000  1.0 -1.0402385588
O  O11  1  0.08450000  0.52730000  0.69410000  1.0 -1.0402385588
O  O12  1  0.69410000  0.08450000  0.52730000  1.0 -1.0402385588
O  O13  1  0.08450000  0.69410000  0.69410000  1.0 -1.0402385588
O  O14  1  0.69410000  0.69410000  0.52730000  1.0 -1.0402385588
O  O15  1  0.52730000  0.69410000  0.69410000  1.0 -1.0402385588
O  O16  1  0.52730000  0.08450000  0.69410000  1.0 -1.0402385588
O  O17  1  0.69410000  0.69410000  0.08450000  1.0 -1.0402385588
O  O18  1  0.69410000  0.52730000  0.08450000  1.0 -1.0402385588
O  O19  1  0.72270000  0.55590000  0.55590000  1.0 -1.0402385588
O  O20  1  0.55590000  0.72270000  0.16550000  1.0 -1.0402385588
O  O21  1  0.55590000  0.55590000  0.16550000  1.0 -1.0402385588
O  O22  1  0.72270000  0.16550000  0.55590000  1.0 -1.0402385588
O  O23  1  0.72270000  0.55590000  0.16550000  1.0 -1.0402385588
O  O24  1  0.16550000  0.55590000  0.72270000  1.0 -1.0402385588
O  O25  1  0.58635000  0.58635000  0.24095000  1.0 -1.057054256
O  O26  1  0.66365000  0.00905000  0.66365000  1.0 -1.057054256
O  O27  1  0.58635000  0.58635000  0.58635000  1.0 -1.057054256
O  O28  1  0.00905000  0.66365000  0.66365000  1.0 -1.057054256
O  O29  1  0.66365000  0.66365000  0.66365000  1.0 -1.057054256
O  O30  1  0.58635000  0.24095000  0.58635000  1.0 -1.057054256
O  O31  1  0.24095000  0.58635000  0.58635000  1.0 -1.057054256
O  O32  1  0.66365000  0.66365000  0.00905000  1.0 -1.057054256
O  O33  1  0.47193000  0.55843000  0.29075000  1.0 -0.4607291851
O  O34  1  0.57111000  0.95925000  0.77807000  1.0 -0.4607291851
O  O35  1  0.55843000  0.47193000  0.67889000  1.0 -0.4607291851
O  O36  1  0.95925000  0.57111000  0.69157000  1.0 -0.4607291851
O  O37  1  0.69157000  0.57111000  0.77807000  1.0 -0.4607291851
O  O38  1  0.67889000  0.29075000  0.55843000  1.0 -0.4607291851
O  O39  1  0.95925000  0.77807000  0.57111000  1.0 -0.4607291851
O  O40  1  0.69157000  0.95925000  0.57111000  1.0 -0.4607291851
O  O41  1  0.29075000  0.67889000  0.47193000  1.0 -0.4607291851
O  O42  1  0.57111000  0.77807000  0.69157000  1.0 -0.4607291851
O  O43  1  0.29075000  0.47193000  0.55843000  1.0 -0.4607291851
O  O44  1  0.55843000  0.29075000  0.47193000  1.0 -0.4607291851
O  O45  1  0.29075000  0.55843000  0.67889000  1.0 -0.4607291851
O  O46  1  0.67889000  0.55843000  0.47193000  1.0 -0.4607291851
O  O47  1  0.47193000  0.67889000  0.55843000  1.0 -0.4607291851
O  O48  1  0.47193000  0.29075000  0.67889000  1.0 -0.4607291851
O  O49  1  0.55843000  0.67889000  0.29075000  1.0 -0.4607291851
O  O50  1  0.67889000  0.47193000  0.29075000  1.0 -0.4607291851
O  O51  1  0.77807000  0.69157000  0.57111000  1.0 -0.4607291851
O  O52  1  0.69157000  0.77807000  0.95925000  1.0 -0.4607291851
O  O53  1  0.57111000  0.69157000  0.95925000  1.0 -0.4607291851
O  O54  1  0.77807000  0.95925000  0.69157000  1.0 -0.4607291851
O  O55  1  0.77807000  0.57111000  0.95925000  1.0 -0.4607291851
O  O56  1  0.95925000  0.69157000  0.77807000  1.0 -0.4607291851
O  O57  1  0.77807000  0.69157000  0.95925000  1.0 -0.4607291851
O  O58  1  0.67889000  0.29075000  0.47193000  1.0 -0.4607291851
O  O59  1  0.69157000  0.77807000  0.57111000  1.0 -0.4607291851
O  O60  1  0.29075000  0.67889000  0.55843000  1.0 -0.4607291851
O  O61  1  0.55843000  0.67889000  0.47193000  1.0 -0.4607291851
O  O62  1  0.57111000  0.95925000  0.69157000  1.0 -0.4607291851
O  O63  1  0.29075000  0.47193000  0.67889000  1.0 -0.4607291851
O  O64  1  0.55843000  0.29075000  0.67889000  1.0 -0.4607291851
O  O65  1  0.95925000  0.57111000  0.77807000  1.0 -0.4607291851
O  O66  1  0.67889000  0.47193000  0.55843000  1.0 -0.4607291851
O  O67  1  0.95925000  0.77807000  0.69157000  1.0 -0.4607291851
O  O68  1  0.69157000  0.95925000  0.77807000  1.0 -0.4607291851
O  O69  1  0.95925000  0.69157000  0.57111000  1.0 -0.4607291851
O  O70  1  0.57111000  0.69157000  0.77807000  1.0 -0.4607291851
O  O71  1  0.77807000  0.57111000  0.69157000  1.0 -0.4607291851
O  O72  1  0.77807000  0.95925000  0.57111000  1.0 -0.4607291851
O  O73  1  0.69157000  0.57111000  0.95925000  1.0 -0.4607291851
O  O74  1  0.57111000  0.77807000  0.95925000  1.0 -0.4607291851
O  O75  1  0.47193000  0.55843000  0.67889000  1.0 -0.4607291851
O  O76  1  0.55843000  0.47193000  0.29075000  1.0 -0.4607291851
O  O77  1  0.67889000  0.55843000  0.29075000  1.0 -0.4607291851
O  O78  1  0.47193000  0.29075000  0.55843000  1.0 -0.4607291851
O  O79  1  0.47193000  0.67889000  0.29075000  1.0 -0.4607291851
O  O80  1  0.29075000  0.55843000  0.47193000  1.0 -0.4607291851
O  O81  1  0.43020000  0.64300000  0.16980000  1.0 -0.5030661904
O  O82  1  0.49300000  0.08020000  0.81980000  1.0 -0.508428716
O  O83  1  0.64300000  0.43020000  0.75700000  1.0 -0.5030661904
O  O84  1  0.08020000  0.49300000  0.60700000  1.0 -0.508428716
O  O85  1  0.60700000  0.49300000  0.81980000  1.0 -0.5030661904
O  O86  1  0.75700000  0.16980000  0.64300000  1.0 -0.508428716
O  O87  1  0.08020000  0.81980000  0.49300000  1.0 -0.508428716
O  O88  1  0.60700000  0.08020000  0.49300000  1.0 -0.5030661904
O  O89  1  0.16980000  0.75700000  0.43020000  1.0 -0.508428716
O  O90  1  0.49300000  0.81980000  0.60700000  1.0 -0.508428716
O  O91  1  0.16980000  0.43020000  0.64300000  1.0 -0.508428716
O  O92  1  0.64300000  0.16980000  0.43020000  1.0 -0.5030661904
O  O93  1  0.16980000  0.64300000  0.75700000  1.0 -0.508428716
O  O94  1  0.75700000  0.64300000  0.43020000  1.0 -0.5030661904
O  O95  1  0.43020000  0.75700000  0.64300000  1.0 -0.508428716
O  O96  1  0.43020000  0.16980000  0.75700000  1.0 -0.508428716
O  O97  1  0.64300000  0.75700000  0.16980000  1.0 -0.508428716
O  O98  1  0.75700000  0.43020000  0.16980000  1.0 -0.508428716
O  O99  1  0.81980000  0.60700000  0.49300000  1.0 -0.5030661904
O  O100  1  0.60700000  0.81980000  0.08020000  1.0 -0.508428716
O  O101  1  0.49300000  0.60700000  0.08020000  1.0 -0.5030661904
O  O102  1  0.81980000  0.08020000  0.60700000  1.0 -0.508428716
O  O103  1  0.81980000  0.49300000  0.08020000  1.0 -0.508428716
O  O104  1  0.08020000  0.60700000  0.81980000  1.0 -0.508428716
O  O105  1  0.81980000  0.60700000  0.08020000  1.0 -0.5030661904
O  O106  1  0.75700000  0.16980000  0.43020000  1.0 -0.508428716
O  O107  1  0.60700000  0.81980000  0.49300000  1.0 -0.508428716
O  O108  1  0.16980000  0.75700000  0.64300000  1.0 -0.508428716
O  O109  1  0.64300000  0.75700000  0.43020000  1.0 -0.508428716
O  O110  1  0.49300000  0.08020000  0.60700000  1.0 -0.508428716
O  O111  1  0.16980000  0.43020000  0.75700000  1.0 -0.5030661904
O  O112  1  0.64300000  0.16980000  0.75700000  1.0 -0.5030661904
O  O113  1  0.08020000  0.49300000  0.81980000  1.0 -0.508428716
O  O114  1  0.75700000  0.43020000  0.64300000  1.0 -0.508428716
O  O115  1  0.08020000  0.81980000  0.60700000  1.0 -0.508428716
O  O116  1  0.60700000  0.08020000  0.81980000  1.0 -0.508428716
O  O117  1  0.08020000  0.60700000  0.49300000  1.0 -0.5030661904
O  O118  1  0.49300000  0.60700000  0.81980000  1.0 -0.508428716
O  O119  1  0.81980000  0.49300000  0.60700000  1.0 -0.508428716
O  O120  1  0.81980000  0.08020000  0.49300000  1.0 -0.508428716
O  O121  1  0.60700000  0.49300000  0.08020000  1.0 -0.508428716
O  O122  1  0.49300000  0.81980000  0.08020000  1.0 -0.5030661904
O  O123  1  0.43020000  0.64300000  0.75700000  1.0 -0.508428716
O  O124  1  0.64300000  0.43020000  0.16980000  1.0 -0.508428716
O  O125  1  0.75700000  0.64300000  0.16980000  1.0 -0.5030661904
O  O126  1  0.43020000  0.16980000  0.64300000  1.0 -0.508428716
O  O127  1  0.43020000  0.75700000  0.16980000  1.0 -0.5030661904
O  O128  1  0.16980000  0.64300000  0.43020000  1.0 -0.5030661904
