# DDEC6 charges by PACMAN v1.1 (https://github.com/mtap-research/PACMAN-charge/)
data_JASLEX_ASR_pacman
_symmetry_space_group_name_H-M   'P 1'
_cell_length_a   20.75430000
_cell_length_b   20.75430000
_cell_length_c   20.75430000
_cell_angle_alpha   109.47100000
_cell_angle_beta   109.47100000
_cell_angle_gamma   109.47100000
_symmetry_Int_Tables_number   1
_chemical_formula_structural   Tb8Mn2H41C75(N6O19)2
_chemical_formula_sum   'Tb16 Mn4 H82 C150 N24 O76'
_cell_volume   6881.86148594
_cell_formula_units_Z   2
loop_
 _symmetry_equiv_pos_site_id
 _symmetry_equiv_pos_as_xyz
  1  'x, y, z'
loop_
 _atom_site_type_symbol
 _atom_site_label
 _atom_site_symmetry_multiplicity
 _atom_site_fract_x
 _atom_site_fract_y
 _atom_site_fract_z
 _atom_site_occupancy
 _atom_site_charge
Tb  Tb1  1  0.47574000  0.60862000  0.11370000  1.0 2.1662910784
Tb  Tb2  1  0.99492000  0.36204000  0.38630000  1.0 2.1662910784
Tb  Tb3  1  0.02426000  0.13796000  0.13288000  1.0 2.1662910784
Tb  Tb4  1  0.50508000  0.89138000  0.36712000  1.0 2.1662910784
Tb  Tb5  1  0.89138000  0.36712000  0.50508000  1.0 2.1662910784
Tb  Tb6  1  0.13796000  0.13288000  0.02426000  1.0 2.1662910784
Tb  Tb7  1  0.36204000  0.38630000  0.99492000  1.0 2.1662910784
Tb  Tb8  1  0.60862000  0.11370000  0.47574000  1.0 2.1662910784
Tb  Tb9  1  0.13288000  0.02426000  0.13796000  1.0 2.1662910784
Tb  Tb10  1  0.36712000  0.50508000  0.89138000  1.0 2.1662910784
Tb  Tb11  1  0.11370000  0.47574000  0.60862000  1.0 2.1662910784
Tb  Tb12  1  0.38630000  0.99492000  0.36204000  1.0 2.1662910784
Tb  Tb13  1  0.55384000  0.50000000  0.00000000  1.0 2.1360531851
Tb  Tb14  1  0.00000000  0.55384000  0.50000000  1.0 2.1341497306
Tb  Tb15  1  0.94616000  0.94616000  0.94616000  1.0 2.1341497306
Tb  Tb16  1  0.50000000  0.00000000  0.55384000  1.0 2.1341497306
Mn  Mn1  1  0.00000000  0.95532000  0.50000000  1.0 0.610627669
Mn  Mn2  1  0.95532000  0.50000000  0.00000000  1.0 0.610627669
Mn  Mn3  1  0.50000000  0.00000000  0.95532000  1.0 0.610627669
Mn  Mn4  1  0.54468000  0.54468000  0.54468000  1.0 0.610627669
H  H1  1  0.70320000  0.79690000  0.28370000  1.0 0.1319711032
H  H2  1  0.81510000  0.68550000  0.21880000  1.0 0.1319711032
H  H3  1  0.93180000  0.78240000  0.33580000  1.0 0.1066349066
H  H4  1  0.86020000  0.12220000  0.56400000  1.0 0.1404719121
H  H5  1  0.72450000  0.90740000  0.35770000  1.0 0.1404719121
H  H6  1  0.95920000  0.08300000  0.57040000  1.0 0.0908695265
H  H7  1  0.01320000  0.41950000  0.21630000  1.0 0.1319711032
H  H8  1  0.96670000  0.59630000  0.28120000  1.0 0.1319711032
H  H9  1  0.94660000  0.59600000  0.16420000  1.0 0.1066349066
H  H10  1  0.05820000  0.29620000  0.93600000  1.0 0.1404719121
H  H11  1  0.04970000  0.36680000  0.14230000  1.0 0.1404719121
H  H12  1  0.01260000  0.38880000  0.92960000  1.0 0.0908695265
H  H13  1  0.79680000  0.08050000  0.09370000  1.0 0.1319711032
H  H14  1  0.68490000  0.90370000  0.87040000  1.0 0.1319711032
H  H15  1  0.56820000  0.90400000  0.85060000  1.0 0.1066349066
H  H16  1  0.63980000  0.20380000  0.26200000  1.0 0.1404719121
H  H17  1  0.77550000  0.13320000  0.18290000  1.0 0.1404719121
H  H18  1  0.54080000  0.11120000  0.12380000  1.0 0.0908695265
H  H19  1  0.48680000  0.70310000  0.40630000  1.0 0.1319711032
H  H20  1  0.53330000  0.81450000  0.62960000  1.0 0.1319711032
H  H21  1  0.55340000  0.71760000  0.64940000  1.0 0.1066349066
H  H22  1  0.44180000  0.37780000  0.23800000  1.0 0.1404719121
H  H23  1  0.45030000  0.59260000  0.31710000  1.0 0.1404719121
H  H24  1  0.48740000  0.41700000  0.37620000  1.0 0.0908695265
H  H25  1  0.70310000  0.40630000  0.48680000  1.0 0.1319711032
H  H26  1  0.81450000  0.62960000  0.53330000  1.0 0.1319711032
H  H27  1  0.71760000  0.64940000  0.55340000  1.0 0.1066349066
H  H28  1  0.37780000  0.23800000  0.44180000  1.0 0.1404719121
H  H29  1  0.59260000  0.31710000  0.45030000  1.0 0.1404719121
H  H30  1  0.41700000  0.37620000  0.48740000  1.0 0.0908695265
H  H31  1  0.08050000  0.09370000  0.79680000  1.0 0.1319711032
H  H32  1  0.90370000  0.87040000  0.68490000  1.0 0.1319711032
H  H33  1  0.90400000  0.85060000  0.56820000  1.0 0.1066349066
H  H34  1  0.20380000  0.26200000  0.63980000  1.0 0.1404719121
H  H35  1  0.13320000  0.18290000  0.77550000  1.0 0.1404719121
H  H36  1  0.11120000  0.12380000  0.54080000  1.0 0.0908695265
H  H37  1  0.41950000  0.21630000  0.01320000  1.0 0.1319711032
H  H38  1  0.59630000  0.28120000  0.96670000  1.0 0.1319711032
H  H39  1  0.59600000  0.16420000  0.94660000  1.0 0.1066349066
H  H40  1  0.29620000  0.93600000  0.05820000  1.0 0.1404719121
H  H41  1  0.36680000  0.14230000  0.04970000  1.0 0.1404719121
H  H42  1  0.38880000  0.92960000  0.01260000  1.0 0.0908695265
H  H43  1  0.79690000  0.28370000  0.70320000  1.0 0.1319711032
H  H44  1  0.68550000  0.21880000  0.81510000  1.0 0.1319711032
H  H45  1  0.78240000  0.33580000  0.93180000  1.0 0.1066349066
H  H46  1  0.12220000  0.56400000  0.86020000  1.0 0.1404719121
H  H47  1  0.90740000  0.35770000  0.72450000  1.0 0.1404719121
H  H48  1  0.08300000  0.57040000  0.95920000  1.0 0.0908695265
H  H49  1  0.09370000  0.79680000  0.08050000  1.0 0.1319711032
H  H50  1  0.87040000  0.68490000  0.90370000  1.0 0.1319711032
H  H51  1  0.85060000  0.56820000  0.90400000  1.0 0.1066349066
H  H52  1  0.26200000  0.63980000  0.20380000  1.0 0.1404719121
H  H53  1  0.18290000  0.77550000  0.13320000  1.0 0.1404719121
H  H54  1  0.12380000  0.54080000  0.11120000  1.0 0.0908695265
H  H55  1  0.40630000  0.48680000  0.70310000  1.0 0.1319711032
H  H56  1  0.62960000  0.53330000  0.81450000  1.0 0.1319711032
H  H57  1  0.64940000  0.55340000  0.71760000  1.0 0.1066349066
H  H58  1  0.23800000  0.44180000  0.37780000  1.0 0.1404719121
H  H59  1  0.31710000  0.45030000  0.59260000  1.0 0.1404719121
H  H60  1  0.37620000  0.48740000  0.41700000  1.0 0.0908695265
H  H61  1  0.28370000  0.70320000  0.79690000  1.0 0.1319711032
H  H62  1  0.21880000  0.81510000  0.68550000  1.0 0.1319711032
H  H63  1  0.33580000  0.93180000  0.78240000  1.0 0.1066349066
H  H64  1  0.56400000  0.86020000  0.12220000  1.0 0.1404719121
H  H65  1  0.35770000  0.72450000  0.90740000  1.0 0.1404719121
H  H66  1  0.57040000  0.95920000  0.08300000  1.0 0.0908695265
H  H67  1  0.21630000  0.01320000  0.41950000  1.0 0.1319711032
H  H68  1  0.28120000  0.96670000  0.59630000  1.0 0.1319711032
H  H69  1  0.16420000  0.94660000  0.59600000  1.0 0.1066349066
H  H70  1  0.93600000  0.05820000  0.29620000  1.0 0.1404719121
H  H71  1  0.14230000  0.04970000  0.36680000  1.0 0.1404719121
H  H72  1  0.92960000  0.01260000  0.38880000  1.0 0.0908695265
H  H73  1  0.60010000  0.75000000  0.35010000  1.0 0.1241248652
H  H74  1  0.89990000  0.25000000  0.14990000  1.0 0.1241248652
H  H75  1  0.75000000  0.35010000  0.60010000  1.0 0.1241248652
H  H76  1  0.25000000  0.14990000  0.89990000  1.0 0.1241248652
H  H77  1  0.14990000  0.89990000  0.25000000  1.0 0.1241248652
H  H78  1  0.35010000  0.60010000  0.75000000  1.0 0.1241248652
H  H79  1  0.31380000  0.50000000  0.00000000  1.0 0.4081308648
H  H80  1  0.00000000  0.31380000  0.50000000  1.0 0.4081308648
H  H81  1  0.18620000  0.18620000  0.18620000  1.0 0.4081308648
H  H82  1  0.50000000  0.00000000  0.31380000  1.0 0.4081308648
C  C1  1  0.67410000  0.67330000  0.16440000  1.0 0.6173962756
C  C2  1  0.74760000  0.73160000  0.23960000  1.0 -0.0066486484
C  C3  1  0.70040000  0.02500000  0.43500000  1.0 0.610627669
C  C4  1  0.74900000  0.79390000  0.29410000  1.0 -0.1903383504
C  C5  1  0.81610000  0.72720000  0.25530000  1.0 -0.1728679962
C  C6  1  0.76810000  0.00960000  0.45370000  1.0 0.0513510246
C  C7  1  0.81890000  0.85190000  0.36420000  1.0 0.1458862229
C  C8  1  0.88610000  0.78530000  0.32540000  1.0 0.0305732043
C  C9  1  0.84960000  0.07420000  0.52680000  1.0 -0.1728679962
C  C10  1  0.76910000  0.94440000  0.40710000  1.0 -0.2505161535
C  C11  1  0.82900000  0.93090000  0.42790000  1.0 0.1801648132
C  C12  1  0.90780000  0.04820000  0.52860000  1.0 0.0368717879
C  C13  1  0.00890000  0.50970000  0.33560000  1.0 0.6173962756
C  C14  1  0.99200000  0.50800000  0.26040000  1.0 -0.0066486484
C  C15  1  0.09000000  0.26540000  0.06500000  1.0 0.610627669
C  C16  1  0.99980000  0.45490000  0.20590000  1.0 -0.1903383504
C  C17  1  0.97190000  0.56080000  0.24470000  1.0 -0.1728679962
C  C18  1  0.05590000  0.31440000  0.04630000  1.0 0.0513510246
C  C19  1  0.98770000  0.45470000  0.13580000  1.0 0.1458862229
C  C20  1  0.95990000  0.56070000  0.17460000  1.0 0.0305732043
C  C21  1  0.04740000  0.32280000  0.97320000  1.0 -0.1728679962
C  C22  1  0.03730000  0.36200000  0.09290000  1.0 -0.2505161535
C  C23  1  0.00300000  0.40110000  0.07210000  1.0 0.1801648132
C  C24  1  0.01960000  0.37920000  0.97140000  1.0 0.0368717879
C  C25  1  0.82590000  0.99030000  0.99920000  1.0 0.6173962756
C  C26  1  0.75240000  0.99200000  0.98400000  1.0 -0.0066486484
C  C27  1  0.79960000  0.23460000  0.32460000  1.0 0.610627669
C  C28  1  0.75100000  0.04510000  0.04490000  1.0 -0.1903383504
C  C29  1  0.68390000  0.93920000  0.91110000  1.0 -0.1728679962
C  C30  1  0.73190000  0.18560000  0.24150000  1.0 0.0513510246
C  C31  1  0.68110000  0.04530000  0.03300000  1.0 0.1458862229
C  C32  1  0.61390000  0.93930000  0.89920000  1.0 0.0305732043
C  C33  1  0.65040000  0.17720000  0.22460000  1.0 -0.1728679962
C  C34  1  0.73090000  0.13800000  0.17530000  1.0 -0.2505161535
C  C35  1  0.67100000  0.09890000  0.10190000  1.0 0.1801648132
C  C36  1  0.59220000  0.12080000  0.14040000  1.0 0.0368717879
C  C37  1  0.49110000  0.82670000  0.50080000  1.0 0.6173962756
C  C38  1  0.50800000  0.76840000  0.51600000  1.0 -0.0066486484
C  C39  1  0.41000000  0.47500000  0.17540000  1.0 0.610627669
C  C40  1  0.50020000  0.70610000  0.45510000  1.0 -0.1903383504
C  C41  1  0.52810000  0.77280000  0.58890000  1.0 -0.1728679962
C  C42  1  0.44410000  0.49040000  0.25850000  1.0 0.0513510246
C  C43  1  0.51230000  0.64810000  0.46700000  1.0 0.1458862229
C  C44  1  0.54010000  0.71470000  0.60080000  1.0 0.0305732043
C  C45  1  0.45260000  0.42580000  0.27540000  1.0 -0.1728679962
C  C46  1  0.46270000  0.55560000  0.32470000  1.0 -0.2505161535
C  C47  1  0.49700000  0.56910000  0.39810000  1.0 0.1801648132
C  C48  1  0.48040000  0.45180000  0.35960000  1.0 0.0368717879
C  C49  1  0.82670000  0.50080000  0.49110000  1.0 0.6173962756
C  C50  1  0.76840000  0.51600000  0.50800000  1.0 -0.0066486484
C  C51  1  0.47500000  0.17540000  0.41000000  1.0 0.610627669
C  C52  1  0.70610000  0.45510000  0.50020000  1.0 -0.1903383504
C  C53  1  0.77280000  0.58890000  0.52810000  1.0 -0.1728679962
C  C54  1  0.49040000  0.25850000  0.44410000  1.0 0.0513510246
C  C55  1  0.64810000  0.46700000  0.51230000  1.0 0.1458862229
C  C56  1  0.71470000  0.60080000  0.54010000  1.0 0.0305732043
C  C57  1  0.42580000  0.27540000  0.45260000  1.0 -0.1728679962
C  C58  1  0.55560000  0.32470000  0.46270000  1.0 -0.2505161535
C  C59  1  0.56910000  0.39810000  0.49700000  1.0 0.1801648132
C  C60  1  0.45180000  0.35960000  0.48040000  1.0 0.0368717879
C  C61  1  0.99030000  0.99920000  0.82590000  1.0 0.6173962756
C  C62  1  0.99200000  0.98400000  0.75240000  1.0 -0.0066486484
C  C63  1  0.23460000  0.32460000  0.79960000  1.0 0.610627669
C  C64  1  0.04510000  0.04490000  0.75100000  1.0 -0.1903383504
C  C65  1  0.93920000  0.91110000  0.68390000  1.0 -0.1728679962
C  C66  1  0.18560000  0.24150000  0.73190000  1.0 0.0513510246
C  C67  1  0.04530000  0.03300000  0.68110000  1.0 0.1458862229
C  C68  1  0.93930000  0.89920000  0.61390000  1.0 0.0305732043
C  C69  1  0.17720000  0.22460000  0.65040000  1.0 -0.1728679962
C  C70  1  0.13800000  0.17530000  0.73090000  1.0 -0.2505161535
C  C71  1  0.09890000  0.10190000  0.67100000  1.0 0.1801648132
C  C72  1  0.12080000  0.14040000  0.59220000  1.0 0.0368717879
C  C73  1  0.50970000  0.33560000  0.00890000  1.0 0.6173962756
C  C74  1  0.50800000  0.26040000  0.99200000  1.0 -0.0066486484
C  C75  1  0.26540000  0.06500000  0.09000000  1.0 0.610627669
C  C76  1  0.45490000  0.20590000  0.99980000  1.0 -0.1903383504
C  C77  1  0.56080000  0.24470000  0.97190000  1.0 -0.1728679962
C  C78  1  0.31440000  0.04630000  0.05590000  1.0 0.0513510246
C  C79  1  0.45470000  0.13580000  0.98770000  1.0 0.1458862229
C  C80  1  0.56070000  0.17460000  0.95990000  1.0 0.0305732043
C  C81  1  0.32280000  0.97320000  0.04740000  1.0 -0.1728679962
C  C82  1  0.36200000  0.09290000  0.03730000  1.0 -0.2505161535
C  C83  1  0.40110000  0.07210000  0.00300000  1.0 0.1801648132
C  C84  1  0.37920000  0.97140000  0.01960000  1.0 0.0368717879
C  C85  1  0.67330000  0.16440000  0.67410000  1.0 0.6173962756
C  C86  1  0.73160000  0.23960000  0.74760000  1.0 -0.0066486484
C  C87  1  0.02500000  0.43500000  0.70040000  1.0 0.610627669
C  C88  1  0.79390000  0.29410000  0.74900000  1.0 -0.1903383504
C  C89  1  0.72720000  0.25530000  0.81610000  1.0 -0.1728679962
C  C90  1  0.00960000  0.45370000  0.76810000  1.0 0.0513510246
C  C91  1  0.85190000  0.36420000  0.81890000  1.0 0.1458862229
C  C92  1  0.78530000  0.32540000  0.88610000  1.0 0.0305732043
C  C93  1  0.07420000  0.52680000  0.84960000  1.0 -0.1728679962
C  C94  1  0.94440000  0.40710000  0.76910000  1.0 -0.2505161535
C  C95  1  0.93090000  0.42790000  0.82900000  1.0 0.1801648132
C  C96  1  0.04820000  0.52860000  0.90780000  1.0 0.0368717879
C  C97  1  0.99920000  0.82590000  0.99030000  1.0 0.6173962756
C  C98  1  0.98400000  0.75240000  0.99200000  1.0 -0.0066486484
C  C99  1  0.32460000  0.79960000  0.23460000  1.0 0.610627669
C  C100  1  0.04490000  0.75100000  0.04510000  1.0 -0.1903383504
C  C101  1  0.91110000  0.68390000  0.93920000  1.0 -0.1728679962
C  C102  1  0.24150000  0.73190000  0.18560000  1.0 0.0513510246
C  C103  1  0.03300000  0.68110000  0.04530000  1.0 0.1458862229
C  C104  1  0.89920000  0.61390000  0.93930000  1.0 0.0305732043
C  C105  1  0.22460000  0.65040000  0.17720000  1.0 -0.1728679962
C  C106  1  0.17530000  0.73090000  0.13800000  1.0 -0.2505161535
C  C107  1  0.10190000  0.67100000  0.09890000  1.0 0.1801648132
C  C108  1  0.14040000  0.59220000  0.12080000  1.0 0.0368717879
C  C109  1  0.50080000  0.49110000  0.82670000  1.0 0.6173962756
C  C110  1  0.51600000  0.50800000  0.76840000  1.0 -0.0066486484
C  C111  1  0.17540000  0.41000000  0.47500000  1.0 0.610627669
C  C112  1  0.45510000  0.50020000  0.70610000  1.0 -0.1903383504
C  C113  1  0.58890000  0.52810000  0.77280000  1.0 -0.1728679962
C  C114  1  0.25850000  0.44410000  0.49040000  1.0 0.0513510246
C  C115  1  0.46700000  0.51230000  0.64810000  1.0 0.1458862229
C  C116  1  0.60080000  0.54010000  0.71470000  1.0 0.0305732043
C  C117  1  0.27540000  0.45260000  0.42580000  1.0 -0.1728679962
C  C118  1  0.32470000  0.46270000  0.55560000  1.0 -0.2505161535
C  C119  1  0.39810000  0.49700000  0.56910000  1.0 0.1801648132
C  C120  1  0.35960000  0.48040000  0.45180000  1.0 0.0368717879
C  C121  1  0.16440000  0.67410000  0.67330000  1.0 0.6173962756
C  C122  1  0.23960000  0.74760000  0.73160000  1.0 -0.0066486484
C  C123  1  0.43500000  0.70040000  0.02500000  1.0 0.610627669
C  C124  1  0.29410000  0.74900000  0.79390000  1.0 -0.1903383504
C  C125  1  0.25530000  0.81610000  0.72720000  1.0 -0.1728679962
C  C126  1  0.45370000  0.76810000  0.00960000  1.0 0.0513510246
C  C127  1  0.36420000  0.81890000  0.85190000  1.0 0.1458862229
C  C128  1  0.32540000  0.88610000  0.78530000  1.0 0.0305732043
C  C129  1  0.52680000  0.84960000  0.07420000  1.0 -0.1728679962
C  C130  1  0.40710000  0.76910000  0.94440000  1.0 -0.2505161535
C  C131  1  0.42790000  0.82900000  0.93090000  1.0 0.1801648132
C  C132  1  0.52860000  0.90780000  0.04820000  1.0 0.0368717879
C  C133  1  0.33560000  0.00890000  0.50970000  1.0 0.6173962756
C  C134  1  0.26040000  0.99200000  0.50800000  1.0 -0.0066486484
C  C135  1  0.06500000  0.09000000  0.26540000  1.0 0.610627669
C  C136  1  0.20590000  0.99980000  0.45490000  1.0 -0.1903383504
C  C137  1  0.24470000  0.97190000  0.56080000  1.0 -0.1728679962
C  C138  1  0.04630000  0.05590000  0.31440000  1.0 0.0513510246
C  C139  1  0.13580000  0.98770000  0.45470000  1.0 0.1458862229
C  C140  1  0.17460000  0.95990000  0.56070000  1.0 0.0305732043
C  C141  1  0.97320000  0.04740000  0.32280000  1.0 -0.1728679962
C  C142  1  0.09290000  0.03730000  0.36200000  1.0 -0.2505161535
C  C143  1  0.07210000  0.00300000  0.40110000  1.0 0.1801648132
C  C144  1  0.97140000  0.01960000  0.37920000  1.0 0.0368717879
C  C145  1  0.56130000  0.75000000  0.31130000  1.0 0.5273193225
C  C146  1  0.93870000  0.25000000  0.18870000  1.0 0.5273193225
C  C147  1  0.75000000  0.31130000  0.56130000  1.0 0.5273193225
C  C148  1  0.25000000  0.18870000  0.93870000  1.0 0.5273193225
C  C149  1  0.18870000  0.93870000  0.25000000  1.0 0.5273193225
C  C150  1  0.31130000  0.56130000  0.75000000  1.0 0.5273193225
N  N1  1  0.88740000  0.84760000  0.37980000  1.0 -0.2828126744
N  N2  1  0.89410000  0.98050000  0.47700000  1.0 -0.2139262715
N  N3  1  0.96780000  0.50760000  0.12020000  1.0 -0.2828126744
N  N4  1  0.00350000  0.41710000  0.02300000  1.0 -0.2139262715
N  N5  1  0.61260000  0.99240000  0.96020000  1.0 -0.2828126744
N  N6  1  0.60590000  0.08290000  0.08640000  1.0 -0.2139262715
N  N7  1  0.53220000  0.65240000  0.53980000  1.0 -0.2828126744
N  N8  1  0.49650000  0.51950000  0.41360000  1.0 -0.2139262715
N  N9  1  0.65240000  0.53980000  0.53220000  1.0 -0.2828126744
N  N10  1  0.51950000  0.41360000  0.49650000  1.0 -0.2139262715
N  N11  1  0.99240000  0.96020000  0.61260000  1.0 -0.2828126744
N  N12  1  0.08290000  0.08640000  0.60590000  1.0 -0.2139262715
N  N13  1  0.50760000  0.12020000  0.96780000  1.0 -0.2828126744
N  N14  1  0.41710000  0.02300000  0.00350000  1.0 -0.2139262715
N  N15  1  0.84760000  0.37980000  0.88740000  1.0 -0.2828126744
N  N16  1  0.98050000  0.47700000  0.89410000  1.0 -0.2139262715
N  N17  1  0.96020000  0.61260000  0.99240000  1.0 -0.2828126744
N  N18  1  0.08640000  0.60590000  0.08290000  1.0 -0.2139262715
N  N19  1  0.53980000  0.53220000  0.65240000  1.0 -0.2828126744
N  N20  1  0.41360000  0.49650000  0.51950000  1.0 -0.2139262715
N  N21  1  0.37980000  0.88740000  0.84760000  1.0 -0.2828126744
N  N22  1  0.47700000  0.89410000  0.98050000  1.0 -0.2139262715
N  N23  1  0.12020000  0.96780000  0.50760000  1.0 -0.2828126744
N  N24  1  0.02300000  0.00350000  0.41710000  1.0 -0.2139262715
O  O1  1  0.49660000  0.50090000  0.08090000  1.0 -1.1296660986
O  O2  1  0.65400000  0.60220000  0.11420000  1.0 -0.6040403024
O  O3  1  0.60790000  0.66410000  0.16240000  1.0 -0.5688720565
O  O4  1  0.53070000  0.69260000  0.24710000  1.0 -0.5688720565
O  O5  1  0.62620000  0.95200000  0.38300000  1.0 -0.7833639627
O  O6  1  0.71260000  0.09210000  0.47810000  1.0 -0.6314292744
O  O7  1  0.92000000  0.41570000  0.41910000  1.0 -1.1427471832
O  O8  1  0.98800000  0.53980000  0.38580000  1.0 -0.6040403024
O  O9  1  0.00170000  0.44550000  0.33760000  1.0 -0.5688720565
O  O10  1  0.94550000  0.28360000  0.25290000  1.0 -0.5688720565
O  O11  1  0.06900000  0.24320000  0.11700000  1.0 -0.7833639627
O  O12  1  0.11400000  0.23450000  0.02190000  1.0 -0.6314292744
O  O13  1  0.00340000  0.08430000  0.00430000  1.0 -1.1296660986
O  O14  1  0.84600000  0.96020000  0.94820000  1.0 -0.6040403024
O  O15  1  0.89210000  0.05450000  0.05620000  1.0 -0.5688720565
O  O16  1  0.96930000  0.21640000  0.16190000  1.0 -0.5688720565
O  O17  1  0.87380000  0.25680000  0.32580000  1.0 -0.7833639627
O  O18  1  0.78740000  0.26550000  0.37950000  1.0 -0.6314292744
O  O19  1  0.58000000  0.99910000  0.49570000  1.0 -1.1296660986
O  O20  1  0.51200000  0.89780000  0.55180000  1.0 -0.6050903992
O  O21  1  0.49830000  0.83590000  0.44380000  1.0 -0.5688720565
O  O22  1  0.55450000  0.80740000  0.33810000  1.0 -0.5688720565
O  O23  1  0.43100000  0.54800000  0.17420000  1.0 -0.7833639627
O  O24  1  0.38600000  0.40790000  0.12050000  1.0 -0.6314292744
O  O25  1  0.99910000  0.49570000  0.58000000  1.0 -1.1296660986
O  O26  1  0.89780000  0.55180000  0.51200000  1.0 -0.6040403024
O  O27  1  0.83590000  0.44380000  0.49830000  1.0 -0.5688720565
O  O28  1  0.80740000  0.33810000  0.55450000  1.0 -0.5688720565
O  O29  1  0.54800000  0.17420000  0.43100000  1.0 -0.7833639627
O  O30  1  0.40790000  0.12050000  0.38600000  1.0 -0.6314292744
O  O31  1  0.08430000  0.00430000  0.00340000  1.0 -1.1296660986
O  O32  1  0.96020000  0.94820000  0.84600000  1.0 -0.6040403024
O  O33  1  0.05450000  0.05620000  0.89210000  1.0 -0.5688720565
O  O34  1  0.21640000  0.16190000  0.96930000  1.0 -0.5688720565
O  O35  1  0.25680000  0.32580000  0.87380000  1.0 -0.7833639627
O  O36  1  0.26550000  0.37950000  0.78740000  1.0 -0.6314292744
O  O37  1  0.41570000  0.41910000  0.92000000  1.0 -1.1296660986
O  O38  1  0.53980000  0.38580000  0.98800000  1.0 -0.6040403024
O  O39  1  0.44550000  0.33760000  0.00170000  1.0 -0.5688720565
O  O40  1  0.28360000  0.25290000  0.94550000  1.0 -0.5688720565
O  O41  1  0.24320000  0.11700000  0.06900000  1.0 -0.7833639627
O  O42  1  0.23450000  0.02190000  0.11400000  1.0 -0.6314292744
O  O43  1  0.50090000  0.08090000  0.49660000  1.0 -1.1296660986
O  O44  1  0.60220000  0.11420000  0.65400000  1.0 -0.6040403024
O  O45  1  0.66410000  0.16240000  0.60790000  1.0 -0.5688720565
O  O46  1  0.69260000  0.24710000  0.53070000  1.0 -0.5688720565
O  O47  1  0.95200000  0.38300000  0.62620000  1.0 -0.7833639627
O  O48  1  0.09210000  0.47810000  0.71260000  1.0 -0.6314292744
O  O49  1  0.00430000  0.00340000  0.08430000  1.0 -1.1296660986
O  O50  1  0.94820000  0.84600000  0.96020000  1.0 -0.6040403024
O  O51  1  0.05620000  0.89210000  0.05450000  1.0 -0.5688720565
O  O52  1  0.16190000  0.96930000  0.21640000  1.0 -0.5688720565
O  O53  1  0.32580000  0.87380000  0.25680000  1.0 -0.7833639627
O  O54  1  0.37950000  0.78740000  0.26550000  1.0 -0.6314292744
O  O55  1  0.49570000  0.58000000  0.99910000  1.0 -1.1296660986
O  O56  1  0.55180000  0.51200000  0.89780000  1.0 -0.6040403024
O  O57  1  0.44380000  0.49830000  0.83590000  1.0 -0.5688720565
O  O58  1  0.33810000  0.55450000  0.80740000  1.0 -0.5688720565
O  O59  1  0.17420000  0.43100000  0.54800000  1.0 -0.7833639627
O  O60  1  0.12050000  0.38600000  0.40790000  1.0 -0.6314292744
O  O61  1  0.08090000  0.49660000  0.50090000  1.0 -1.1296660986
O  O62  1  0.11420000  0.65400000  0.60220000  1.0 -0.6040403024
O  O63  1  0.16240000  0.60790000  0.66410000  1.0 -0.5688720565
O  O64  1  0.24710000  0.53070000  0.69260000  1.0 -0.5688720565
O  O65  1  0.38300000  0.62620000  0.95200000  1.0 -0.7833639627
O  O66  1  0.47810000  0.71260000  0.09210000  1.0 -0.6314292744
O  O67  1  0.41910000  0.92000000  0.41570000  1.0 -1.1296660986
O  O68  1  0.38580000  0.98800000  0.53980000  1.0 -0.6050903992
O  O69  1  0.33760000  0.00170000  0.44550000  1.0 -0.5688720565
O  O70  1  0.25290000  0.94550000  0.28360000  1.0 -0.5688720565
O  O71  1  0.11700000  0.06900000  0.24320000  1.0 -0.7833639627
O  O72  1  0.02190000  0.11400000  0.23450000  1.0 -0.6314292744
O  O73  1  0.35480000  0.50000000  0.00000000  1.0 -1.1427471832
O  O74  1  0.00000000  0.35480000  0.50000000  1.0 -1.1427471832
O  O75  1  0.14520000  0.14520000  0.14520000  1.0 -1.1427471832
O  O76  1  0.50000000  0.00000000  0.35480000  1.0 -1.1427471832
