# DDEC6 charges by PACMAN v1.1 (https://github.com/mtap-research/PACMAN-charge/)
data_JAVTEG_FSR_pacman
_symmetry_space_group_name_H-M   'P 1'
_cell_length_a   9.16200000
_cell_length_b   9.29100000
_cell_length_c   16.50400000
_cell_angle_alpha   75.03800000
_cell_angle_beta   75.24400000
_cell_angle_gamma   83.86700000
_symmetry_Int_Tables_number   1
_chemical_formula_structural   Al4(PO4)5
_chemical_formula_sum   'Al8 P10 O40'
_cell_volume   1311.22651935
_cell_formula_units_Z   2
loop_
 _symmetry_equiv_pos_site_id
 _symmetry_equiv_pos_as_xyz
  1  'x, y, z'
loop_
 _atom_site_type_symbol
 _atom_site_label
 _atom_site_symmetry_multiplicity
 _atom_site_fract_x
 _atom_site_fract_y
 _atom_site_fract_z
 _atom_site_occupancy
 _atom_site_charge
Al  Al1  1  0.31406000  0.84940000  0.53419000  1.0 1.7517577185
Al  Al2  1  0.68594000  0.15060000  0.46581000  1.0 1.7517577185
Al  Al3  1  0.89516000  0.61120000  0.37486000  1.0 1.7517577185
Al  Al4  1  0.10484000  0.38880000  0.62514000  1.0 1.7567454828
Al  Al5  1  0.66642000  0.55460000  0.63477000  1.0 1.7517577185
Al  Al6  1  0.33358000  0.44540000  0.36523000  1.0 1.7517577185
Al  Al7  1  0.07020000  0.54860000  0.85970000  1.0 1.6634000791
Al  Al8  1  0.92980000  0.45140000  0.14030000  1.0 1.6634000791
P  P1  1  0.66579000  0.81787000  0.47416000  1.0 1.5381663097
P  P2  1  0.33421000  0.18213000  0.52584000  1.0 1.5381663097
P  P3  1  0.31216000  0.58007000  0.69359000  1.0 1.4751341595
P  P4  1  0.68784000  0.41993000  0.30641000  1.0 1.4700373663
P  P5  1  0.13504000  0.66364000  0.46786000  1.0 1.5381663097
P  P6  1  0.86496000  0.33636000  0.53214000  1.0 1.5341871037
P  P7  1  0.02170000  0.73660000  0.99889000  1.0 1.258339311
P  P8  1  0.97830000  0.26340000  0.00111000  1.0 1.2502661003
P  P9  1  0.14661000  0.54750000  0.22546000  1.0 1.4109166516
P  P10  1  0.85339000  0.45250000  0.77454000  1.0 1.4109166516
O  O1  1  0.49880000  0.83990000  0.47490000  1.0 -0.7982301035
O  O2  1  0.50120000  0.16010000  0.52510000  1.0 -0.7982301035
O  O3  1  0.01830000  0.71120000  0.41660000  1.0 -0.7191501008
O  O4  1  0.98170000  0.28880000  0.58340000  1.0 -0.7191501008
O  O5  1  0.07130000  0.56340000  0.55490000  1.0 -0.78970847
O  O6  1  0.92870000  0.43660000  0.44510000  1.0 -0.7982301035
O  O7  1  0.19220000  0.80350000  0.48040000  1.0 -0.7314779626
O  O8  1  0.80780000  0.19650000  0.51960000  1.0 -0.7314779626
O  O9  1  0.73210000  0.97040000  0.45510000  1.0 -0.7497598098
O  O10  1  0.26790000  0.02960000  0.54490000  1.0 -0.7497598098
O  O11  1  0.47840000  0.53330000  0.68760000  1.0 -0.7497598098
O  O12  1  0.52160000  0.46670000  0.31240000  1.0 -0.7497598098
O  O13  1  0.07400000  0.43840000  0.19340000  1.0 -0.7369175302
O  O14  1  0.92600000  0.56160000  0.80660000  1.0 -0.7314779626
O  O15  1  0.74230000  0.73830000  0.40410000  1.0 -0.7191501008
O  O16  1  0.25770000  0.26170000  0.59590000  1.0 -0.7191501008
O  O17  1  0.68430000  0.72790000  0.56400000  1.0 -0.782969092
O  O18  1  0.31570000  0.27210000  0.43600000  1.0 -0.78970847
O  O19  1  0.23690000  0.46920000  0.66870000  1.0 -0.7314779626
O  O20  1  0.76310000  0.53080000  0.33130000  1.0 -0.7191501008
O  O21  1  0.24340000  0.58780000  0.78760000  1.0 -0.7191501008
O  O22  1  0.75660000  0.41220000  0.21240000  1.0 -0.7123679863
O  O23  1  0.27330000  0.58480000  0.41910000  1.0 -0.7982301035
O  O24  1  0.72670000  0.41520000  0.58090000  1.0 -0.7982301035
O  O25  1  0.02610000  0.64440000  0.27150000  1.0 -0.7497598098
O  O26  1  0.97390000  0.35560000  0.72850000  1.0 -0.7497598098
O  O27  1  0.30090000  0.73770000  0.63740000  1.0 -0.7982301035
O  O28  1  0.69910000  0.26230000  0.36260000  1.0 -0.7982301035
O  O29  1  0.25160000  0.64720000  0.14900000  1.0 -0.4582232581
O  O30  1  0.74840000  0.35280000  0.85100000  1.0 -0.4582232581
O  O31  1  0.02890000  0.68610000  0.91700000  1.0 -0.7369175302
O  O32  1  0.97110000  0.31390000  0.08300000  1.0 -0.7314779626
O  O33  1  0.92130000  0.62940000  0.07500000  1.0 -0.7497598098
O  O34  1  0.07870000  0.37060000  0.92500000  1.0 -0.7497598098
O  O35  1  0.23700000  0.45240000  0.28700000  1.0 -0.7497598098
O  O36  1  0.76300000  0.54760000  0.71300000  1.0 -0.7497598098
O  O37  1  0.18090000  0.73270000  0.01100000  1.0 -0.4710138188
O  O38  1  0.81910000  0.26730000  0.98900000  1.0 -0.4710138188
O  O39  1  0.94790000  0.89030000  0.98780000  1.0 -0.3954618023
O  O40  1  0.05210000  0.10970000  0.01220000  1.0 -0.4066062318
