# DDEC6 charges by PACMAN v1.1 (https://github.com/mtap-research/PACMAN-charge/)
data_JEBWIZ_ASR_pacman
_symmetry_space_group_name_H-M   'P 1'
_cell_length_a   35.92000000
_cell_length_b   35.92000000
_cell_length_c   15.35610000
_cell_angle_alpha   90.00000000
_cell_angle_beta   90.00000000
_cell_angle_gamma   90.00000000
_symmetry_Int_Tables_number   1
_chemical_formula_structural   Cu3Ni2H38C39(NO3)6
_chemical_formula_sum   'Cu24 Ni16 H304 C312 N48 O144'
_cell_volume   19813.15274304
_cell_formula_units_Z   8
loop_
 _symmetry_equiv_pos_site_id
 _symmetry_equiv_pos_as_xyz
  1  'x, y, z'
loop_
 _atom_site_type_symbol
 _atom_site_label
 _atom_site_symmetry_multiplicity
 _atom_site_fract_x
 _atom_site_fract_y
 _atom_site_fract_z
 _atom_site_occupancy
 _atom_site_charge
Cu  Cu1  1  0.82907000  0.50000000  0.77409000  1.0 0.5031236836
Cu  Cu2  1  0.17093000  0.50000000  0.77409000  1.0 0.5031236836
Cu  Cu3  1  0.50000000  0.17093000  0.77409000  1.0 0.5031236836
Cu  Cu4  1  0.50000000  0.82907000  0.77409000  1.0 0.5031236836
Cu  Cu5  1  0.82907000  0.50000000  0.22591000  1.0 0.5031236836
Cu  Cu6  1  0.17093000  0.50000000  0.22591000  1.0 0.5031236836
Cu  Cu7  1  0.50000000  0.82907000  0.22591000  1.0 0.5031236836
Cu  Cu8  1  0.50000000  0.17093000  0.22591000  1.0 0.5031236836
Cu  Cu9  1  0.74459000  0.25541000  0.72680000  1.0 0.5088667848
Cu  Cu10  1  0.25541000  0.74459000  0.72680000  1.0 0.5088667848
Cu  Cu11  1  0.25541000  0.25541000  0.72680000  1.0 0.5088667848
Cu  Cu12  1  0.74459000  0.74459000  0.72680000  1.0 0.5088667848
Cu  Cu13  1  0.74459000  0.74459000  0.27320000  1.0 0.5088667848
Cu  Cu14  1  0.25541000  0.25541000  0.27320000  1.0 0.5088667848
Cu  Cu15  1  0.25541000  0.74459000  0.27320000  1.0 0.5088667848
Cu  Cu16  1  0.74459000  0.25541000  0.27320000  1.0 0.5088667848
Cu  Cu17  1  0.00000000  0.35153000  0.76840000  1.0 0.6369156817
Cu  Cu18  1  0.00000000  0.64847000  0.76840000  1.0 0.6369156817
Cu  Cu19  1  0.35153000  0.00000000  0.76840000  1.0 0.6369156817
Cu  Cu20  1  0.64847000  0.00000000  0.76840000  1.0 0.6369156817
Cu  Cu21  1  0.00000000  0.64847000  0.23160000  1.0 0.6369156817
Cu  Cu22  1  0.00000000  0.35153000  0.23160000  1.0 0.6369156817
Cu  Cu23  1  0.35153000  0.00000000  0.23160000  1.0 0.6369156817
Cu  Cu24  1  0.64847000  0.00000000  0.23160000  1.0 0.6369156817
Ni  Ni1  1  0.85124000  0.35481000  0.75142000  1.0 0.9979184994
Ni  Ni2  1  0.14876000  0.64519000  0.75142000  1.0 0.9979184994
Ni  Ni3  1  0.35481000  0.14876000  0.75142000  1.0 0.9979184994
Ni  Ni4  1  0.64519000  0.85124000  0.75142000  1.0 0.9979184994
Ni  Ni5  1  0.85124000  0.64519000  0.24858000  1.0 0.9979184994
Ni  Ni6  1  0.14876000  0.35481000  0.24858000  1.0 0.9979184994
Ni  Ni7  1  0.35481000  0.85124000  0.24858000  1.0 0.9979184994
Ni  Ni8  1  0.64519000  0.14876000  0.24858000  1.0 0.9979184994
Ni  Ni9  1  0.14876000  0.64519000  0.24858000  1.0 0.9979184994
Ni  Ni10  1  0.85124000  0.35481000  0.24858000  1.0 0.9979184994
Ni  Ni11  1  0.64519000  0.85124000  0.24858000  1.0 0.9979184994
Ni  Ni12  1  0.35481000  0.14876000  0.24858000  1.0 0.9979184994
Ni  Ni13  1  0.14876000  0.35481000  0.75142000  1.0 0.9979184994
Ni  Ni14  1  0.85124000  0.64519000  0.75142000  1.0 0.9979184994
Ni  Ni15  1  0.64519000  0.14876000  0.75142000  1.0 0.9979184994
Ni  Ni16  1  0.35481000  0.85124000  0.75142000  1.0 0.9979184994
H  H1  1  0.72490000  0.47290000  0.82160000  1.0 0.1296884578
H  H2  1  0.75150000  0.43950000  0.79160000  1.0 0.1512677015
H  H3  1  0.71340000  0.43070000  0.84150000  1.0 0.1512677015
H  H4  1  0.70140000  0.34480000  0.68960000  1.0 0.1109294536
H  H5  1  0.73690000  0.36980000  0.71330000  1.0 0.1512677015
H  H6  1  0.70250000  0.38780000  0.66250000  1.0 0.1296884578
H  H7  1  0.96530000  0.47400000  0.85100000  1.0 0.1296884578
H  H8  1  0.97600000  0.43630000  0.80150000  1.0 0.1296884578
H  H9  1  0.93380000  0.45050000  0.80160000  1.0 0.1512677015
H  H10  1  0.81440000  0.27360000  0.46500000  1.0 0.0487888572
H  H11  1  0.79890000  0.26360000  0.55990000  1.0 0.0446537364
H  H12  1  0.77710000  0.24960000  0.47510000  1.0 0.0130802763
H  H13  1  0.93460000  0.31790000  0.97880000  1.0 0.0748909765
H  H14  1  0.97850000  0.32010000  0.96180000  1.0 0.0297390515
H  H15  1  0.96280000  0.31930000  0.05940000  1.0 0.0569140541
H  H16  1  0.86890000  0.44160000  0.05310000  1.0 0.1420301135
H  H17  1  0.86890000  0.44010000  0.94890000  1.0 0.1420301135
H  H18  1  0.27510000  0.52710000  0.82160000  1.0 0.1296884578
H  H19  1  0.24850000  0.56050000  0.79160000  1.0 0.1512677015
H  H20  1  0.28660000  0.56930000  0.84150000  1.0 0.1512677015
H  H21  1  0.29860000  0.65520000  0.68960000  1.0 0.1109294536
H  H22  1  0.26310000  0.63020000  0.71330000  1.0 0.1512677015
H  H23  1  0.29750000  0.61220000  0.66250000  1.0 0.1296884578
H  H24  1  0.03470000  0.52600000  0.85100000  1.0 0.1296884578
H  H25  1  0.02400000  0.56370000  0.80150000  1.0 0.1296884578
H  H26  1  0.06620000  0.54950000  0.80160000  1.0 0.1512677015
H  H27  1  0.18560000  0.72640000  0.46500000  1.0 0.0487888572
H  H28  1  0.20110000  0.73640000  0.55990000  1.0 0.0487888572
H  H29  1  0.22290000  0.75040000  0.47510000  1.0 0.0169439236
H  H30  1  0.06540000  0.68210000  0.97880000  1.0 0.0748909765
H  H31  1  0.02150000  0.67990000  0.96180000  1.0 0.0297390515
H  H32  1  0.03720000  0.68070000  0.05940000  1.0 0.0569140541
H  H33  1  0.13110000  0.55840000  0.05310000  1.0 0.1420301135
H  H34  1  0.13110000  0.55990000  0.94890000  1.0 0.1420301135
H  H35  1  0.47290000  0.27510000  0.82160000  1.0 0.1296884578
H  H36  1  0.43950000  0.24850000  0.79160000  1.0 0.1512677015
H  H37  1  0.43070000  0.28660000  0.84150000  1.0 0.1512677015
H  H38  1  0.34480000  0.29860000  0.68960000  1.0 0.1109294536
H  H39  1  0.36980000  0.26310000  0.71330000  1.0 0.1512677015
H  H40  1  0.38780000  0.29750000  0.66250000  1.0 0.1296884578
H  H41  1  0.47400000  0.03470000  0.85100000  1.0 0.1296884578
H  H42  1  0.43630000  0.02400000  0.80150000  1.0 0.1296884578
H  H43  1  0.45050000  0.06620000  0.80160000  1.0 0.1512677015
H  H44  1  0.27360000  0.18560000  0.46500000  1.0 0.0487888572
H  H45  1  0.26360000  0.20110000  0.55990000  1.0 0.0487888572
H  H46  1  0.24960000  0.22290000  0.47510000  1.0 0.0169439236
H  H47  1  0.31790000  0.06540000  0.97880000  1.0 0.0748909765
H  H48  1  0.32010000  0.02150000  0.96180000  1.0 0.0297390515
H  H49  1  0.31930000  0.03720000  0.05940000  1.0 0.0569140541
H  H50  1  0.44160000  0.13110000  0.05310000  1.0 0.1420301135
H  H51  1  0.44010000  0.13110000  0.94890000  1.0 0.1420301135
H  H52  1  0.52710000  0.72490000  0.82160000  1.0 0.1296884578
H  H53  1  0.56050000  0.75150000  0.79160000  1.0 0.1512677015
H  H54  1  0.56930000  0.71340000  0.84150000  1.0 0.1512677015
H  H55  1  0.65520000  0.70140000  0.68960000  1.0 0.1109294536
H  H56  1  0.63020000  0.73690000  0.71330000  1.0 0.1512677015
H  H57  1  0.61220000  0.70250000  0.66250000  1.0 0.1296884578
H  H58  1  0.52600000  0.96530000  0.85100000  1.0 0.1296884578
H  H59  1  0.56370000  0.97600000  0.80150000  1.0 0.1296884578
H  H60  1  0.54950000  0.93380000  0.80160000  1.0 0.1512677015
H  H61  1  0.72640000  0.81440000  0.46500000  1.0 0.0487888572
H  H62  1  0.73640000  0.79890000  0.55990000  1.0 0.0487888572
H  H63  1  0.75040000  0.77710000  0.47510000  1.0 0.0130802763
H  H64  1  0.68210000  0.93460000  0.97880000  1.0 0.0754350105
H  H65  1  0.67990000  0.97850000  0.96180000  1.0 0.0297390515
H  H66  1  0.68070000  0.96280000  0.05940000  1.0 0.0569140541
H  H67  1  0.55840000  0.86890000  0.05310000  1.0 0.1420301135
H  H68  1  0.55990000  0.86890000  0.94890000  1.0 0.1420301135
H  H69  1  0.72490000  0.52710000  0.17840000  1.0 0.1296884578
H  H70  1  0.75150000  0.56050000  0.20840000  1.0 0.1512677015
H  H71  1  0.71340000  0.56930000  0.15850000  1.0 0.1512677015
H  H72  1  0.70140000  0.65520000  0.31040000  1.0 0.1109294536
H  H73  1  0.73690000  0.63020000  0.28670000  1.0 0.1512677015
H  H74  1  0.70250000  0.61220000  0.33750000  1.0 0.1296884578
H  H75  1  0.96530000  0.52600000  0.14900000  1.0 0.1296884578
H  H76  1  0.97600000  0.56370000  0.19850000  1.0 0.1296884578
H  H77  1  0.93380000  0.54950000  0.19840000  1.0 0.1512677015
H  H78  1  0.81440000  0.72640000  0.53500000  1.0 0.0487888572
H  H79  1  0.79890000  0.73640000  0.44010000  1.0 0.0487888572
H  H80  1  0.77710000  0.75040000  0.52490000  1.0 0.0169439236
H  H81  1  0.93460000  0.68210000  0.02120000  1.0 0.0748909765
H  H82  1  0.97850000  0.67990000  0.03820000  1.0 0.0297390515
H  H83  1  0.96280000  0.68070000  0.94060000  1.0 0.0569140541
H  H84  1  0.86890000  0.55840000  0.94690000  1.0 0.1420301135
H  H85  1  0.86890000  0.55990000  0.05110000  1.0 0.1420301135
H  H86  1  0.27510000  0.47290000  0.17840000  1.0 0.1296884578
H  H87  1  0.24850000  0.43950000  0.20840000  1.0 0.1512677015
H  H88  1  0.28660000  0.43070000  0.15850000  1.0 0.1512677015
H  H89  1  0.29860000  0.34480000  0.31040000  1.0 0.1109294536
H  H90  1  0.26310000  0.36980000  0.28670000  1.0 0.1512677015
H  H91  1  0.29750000  0.38780000  0.33750000  1.0 0.1296884578
H  H92  1  0.03470000  0.47400000  0.14900000  1.0 0.1296884578
H  H93  1  0.02400000  0.43630000  0.19850000  1.0 0.1296884578
H  H94  1  0.06620000  0.45050000  0.19840000  1.0 0.1512677015
H  H95  1  0.18560000  0.27360000  0.53500000  1.0 0.0487888572
H  H96  1  0.20110000  0.26360000  0.44010000  1.0 0.0446537364
H  H97  1  0.22290000  0.24960000  0.52490000  1.0 0.0169439236
H  H98  1  0.06540000  0.31790000  0.02120000  1.0 0.0748909765
H  H99  1  0.02150000  0.32010000  0.03820000  1.0 0.0297390515
H  H100  1  0.03720000  0.31930000  0.94060000  1.0 0.0569140541
H  H101  1  0.13110000  0.44160000  0.94690000  1.0 0.1420301135
H  H102  1  0.13110000  0.44010000  0.05110000  1.0 0.1420301135
H  H103  1  0.47290000  0.72490000  0.17840000  1.0 0.1296884578
H  H104  1  0.43950000  0.75150000  0.20840000  1.0 0.1512677015
H  H105  1  0.43070000  0.71340000  0.15850000  1.0 0.1512677015
H  H106  1  0.34480000  0.70140000  0.31040000  1.0 0.1109294536
H  H107  1  0.36980000  0.73690000  0.28670000  1.0 0.1512677015
H  H108  1  0.38780000  0.70250000  0.33750000  1.0 0.1296884578
H  H109  1  0.47400000  0.96530000  0.14900000  1.0 0.1296884578
H  H110  1  0.43630000  0.97600000  0.19850000  1.0 0.1296884578
H  H111  1  0.45050000  0.93380000  0.19840000  1.0 0.1512677015
H  H112  1  0.27360000  0.81440000  0.53500000  1.0 0.0487888572
H  H113  1  0.26360000  0.79890000  0.44010000  1.0 0.0446537364
H  H114  1  0.24960000  0.77710000  0.52490000  1.0 0.0169439236
H  H115  1  0.31790000  0.93460000  0.02120000  1.0 0.0748909765
H  H116  1  0.32010000  0.97850000  0.03820000  1.0 0.0297390515
H  H117  1  0.31930000  0.96280000  0.94060000  1.0 0.0569140541
H  H118  1  0.44160000  0.86890000  0.94690000  1.0 0.1420301135
H  H119  1  0.44010000  0.86890000  0.05110000  1.0 0.1420301135
H  H120  1  0.52710000  0.27510000  0.17840000  1.0 0.1296884578
H  H121  1  0.56050000  0.24850000  0.20840000  1.0 0.1512677015
H  H122  1  0.56930000  0.28660000  0.15850000  1.0 0.1512677015
H  H123  1  0.65520000  0.29860000  0.31040000  1.0 0.1109294536
H  H124  1  0.63020000  0.26310000  0.28670000  1.0 0.1512677015
H  H125  1  0.61220000  0.29750000  0.33750000  1.0 0.1296884578
H  H126  1  0.52600000  0.03470000  0.14900000  1.0 0.1296884578
H  H127  1  0.56370000  0.02400000  0.19850000  1.0 0.1296884578
H  H128  1  0.54950000  0.06620000  0.19840000  1.0 0.1512677015
H  H129  1  0.72640000  0.18560000  0.53500000  1.0 0.0487888572
H  H130  1  0.73640000  0.20110000  0.44010000  1.0 0.0487888572
H  H131  1  0.75040000  0.22290000  0.52490000  1.0 0.0169439236
H  H132  1  0.68210000  0.06540000  0.02120000  1.0 0.0748909765
H  H133  1  0.67990000  0.02150000  0.03820000  1.0 0.0297390515
H  H134  1  0.68070000  0.03720000  0.94060000  1.0 0.0569140541
H  H135  1  0.55840000  0.13110000  0.94690000  1.0 0.1420301135
H  H136  1  0.55990000  0.13110000  0.05110000  1.0 0.1420301135
H  H137  1  0.27510000  0.52710000  0.17840000  1.0 0.1296884578
H  H138  1  0.24850000  0.56050000  0.20840000  1.0 0.1512677015
H  H139  1  0.28660000  0.56930000  0.15850000  1.0 0.1512677015
H  H140  1  0.29860000  0.65520000  0.31040000  1.0 0.1109294536
H  H141  1  0.26310000  0.63020000  0.28670000  1.0 0.1512677015
H  H142  1  0.29750000  0.61220000  0.33750000  1.0 0.1296884578
H  H143  1  0.03470000  0.52600000  0.14900000  1.0 0.1296884578
H  H144  1  0.02400000  0.56370000  0.19850000  1.0 0.1296884578
H  H145  1  0.06620000  0.54950000  0.19840000  1.0 0.1512677015
H  H146  1  0.18560000  0.72640000  0.53500000  1.0 0.0487888572
H  H147  1  0.20110000  0.73640000  0.44010000  1.0 0.0487888572
H  H148  1  0.22290000  0.75040000  0.52490000  1.0 0.0169439236
H  H149  1  0.06540000  0.68210000  0.02120000  1.0 0.0748909765
H  H150  1  0.02150000  0.67990000  0.03820000  1.0 0.0297390515
H  H151  1  0.03720000  0.68070000  0.94060000  1.0 0.0569140541
H  H152  1  0.13110000  0.55840000  0.94690000  1.0 0.1420301135
H  H153  1  0.13110000  0.55990000  0.05110000  1.0 0.1420301135
H  H154  1  0.72490000  0.47290000  0.17840000  1.0 0.1296884578
H  H155  1  0.75150000  0.43950000  0.20840000  1.0 0.1512677015
H  H156  1  0.71340000  0.43070000  0.15850000  1.0 0.1512677015
H  H157  1  0.70140000  0.34480000  0.31040000  1.0 0.1109294536
H  H158  1  0.73690000  0.36980000  0.28670000  1.0 0.1512677015
H  H159  1  0.70250000  0.38780000  0.33750000  1.0 0.1296884578
H  H160  1  0.96530000  0.47400000  0.14900000  1.0 0.1296884578
H  H161  1  0.97600000  0.43630000  0.19850000  1.0 0.1296884578
H  H162  1  0.93380000  0.45050000  0.19840000  1.0 0.1512677015
H  H163  1  0.81440000  0.27360000  0.53500000  1.0 0.0487888572
H  H164  1  0.79890000  0.26360000  0.44010000  1.0 0.0446537364
H  H165  1  0.77710000  0.24960000  0.52490000  1.0 0.0169439236
H  H166  1  0.93460000  0.31790000  0.02120000  1.0 0.0748909765
H  H167  1  0.97850000  0.32010000  0.03820000  1.0 0.0297390515
H  H168  1  0.96280000  0.31930000  0.94060000  1.0 0.0569140541
H  H169  1  0.86890000  0.44160000  0.94690000  1.0 0.1420301135
H  H170  1  0.86890000  0.44010000  0.05110000  1.0 0.1420301135
H  H171  1  0.52710000  0.72490000  0.17840000  1.0 0.1296884578
H  H172  1  0.56050000  0.75150000  0.20840000  1.0 0.1512677015
H  H173  1  0.56930000  0.71340000  0.15850000  1.0 0.1512677015
H  H174  1  0.65520000  0.70140000  0.31040000  1.0 0.1109294536
H  H175  1  0.63020000  0.73690000  0.28670000  1.0 0.1512677015
H  H176  1  0.61220000  0.70250000  0.33750000  1.0 0.1296884578
H  H177  1  0.52600000  0.96530000  0.14900000  1.0 0.1296884578
H  H178  1  0.56370000  0.97600000  0.19850000  1.0 0.1296884578
H  H179  1  0.54950000  0.93380000  0.19840000  1.0 0.1512677015
H  H180  1  0.72640000  0.81440000  0.53500000  1.0 0.0487888572
H  H181  1  0.73640000  0.79890000  0.44010000  1.0 0.0487888572
H  H182  1  0.75040000  0.77710000  0.52490000  1.0 0.0169439236
H  H183  1  0.68210000  0.93460000  0.02120000  1.0 0.0748909765
H  H184  1  0.67990000  0.97850000  0.03820000  1.0 0.0297390515
H  H185  1  0.68070000  0.96280000  0.94060000  1.0 0.0569140541
H  H186  1  0.55840000  0.86890000  0.94690000  1.0 0.1420301135
H  H187  1  0.55990000  0.86890000  0.05110000  1.0 0.1420301135
H  H188  1  0.47290000  0.27510000  0.17840000  1.0 0.1296884578
H  H189  1  0.43950000  0.24850000  0.20840000  1.0 0.1512677015
H  H190  1  0.43070000  0.28660000  0.15850000  1.0 0.1512677015
H  H191  1  0.34480000  0.29860000  0.31040000  1.0 0.1109294536
H  H192  1  0.36980000  0.26310000  0.28670000  1.0 0.1512677015
H  H193  1  0.38780000  0.29750000  0.33750000  1.0 0.1296884578
H  H194  1  0.47400000  0.03470000  0.14900000  1.0 0.1296884578
H  H195  1  0.43630000  0.02400000  0.19850000  1.0 0.1296884578
H  H196  1  0.45050000  0.06620000  0.19840000  1.0 0.1512677015
H  H197  1  0.27360000  0.18560000  0.53500000  1.0 0.0487888572
H  H198  1  0.26360000  0.20110000  0.44010000  1.0 0.0446537364
H  H199  1  0.24960000  0.22290000  0.52490000  1.0 0.0169439236
H  H200  1  0.31790000  0.06540000  0.02120000  1.0 0.0748909765
H  H201  1  0.32010000  0.02150000  0.03820000  1.0 0.0297390515
H  H202  1  0.31930000  0.03720000  0.94060000  1.0 0.0569140541
H  H203  1  0.44160000  0.13110000  0.94690000  1.0 0.1420301135
H  H204  1  0.44010000  0.13110000  0.05110000  1.0 0.1420301135
H  H205  1  0.27510000  0.47290000  0.82160000  1.0 0.1296884578
H  H206  1  0.24850000  0.43950000  0.79160000  1.0 0.1512677015
H  H207  1  0.28660000  0.43070000  0.84150000  1.0 0.1512677015
H  H208  1  0.29860000  0.34480000  0.68960000  1.0 0.1109294536
H  H209  1  0.26310000  0.36980000  0.71330000  1.0 0.1512677015
H  H210  1  0.29750000  0.38780000  0.66250000  1.0 0.1296884578
H  H211  1  0.03470000  0.47400000  0.85100000  1.0 0.1296884578
H  H212  1  0.02400000  0.43630000  0.80150000  1.0 0.1296884578
H  H213  1  0.06620000  0.45050000  0.80160000  1.0 0.1512677015
H  H214  1  0.18560000  0.27360000  0.46500000  1.0 0.0487888572
H  H215  1  0.20110000  0.26360000  0.55990000  1.0 0.0487888572
H  H216  1  0.22290000  0.24960000  0.47510000  1.0 0.0169439236
H  H217  1  0.06540000  0.31790000  0.97880000  1.0 0.0748909765
H  H218  1  0.02150000  0.32010000  0.96180000  1.0 0.0297390515
H  H219  1  0.03720000  0.31930000  0.05940000  1.0 0.0569140541
H  H220  1  0.13110000  0.44160000  0.05310000  1.0 0.1420301135
H  H221  1  0.13110000  0.44010000  0.94890000  1.0 0.1420301135
H  H222  1  0.72490000  0.52710000  0.82160000  1.0 0.1296884578
H  H223  1  0.75150000  0.56050000  0.79160000  1.0 0.1512677015
H  H224  1  0.71340000  0.56930000  0.84150000  1.0 0.1512677015
H  H225  1  0.70140000  0.65520000  0.68960000  1.0 0.1109294536
H  H226  1  0.73690000  0.63020000  0.71330000  1.0 0.1512677015
H  H227  1  0.70250000  0.61220000  0.66250000  1.0 0.1296884578
H  H228  1  0.96530000  0.52600000  0.85100000  1.0 0.1296884578
H  H229  1  0.97600000  0.56370000  0.80150000  1.0 0.1296884578
H  H230  1  0.93380000  0.54950000  0.80160000  1.0 0.1512677015
H  H231  1  0.81440000  0.72640000  0.46500000  1.0 0.0487888572
H  H232  1  0.79890000  0.73640000  0.55990000  1.0 0.0487888572
H  H233  1  0.77710000  0.75040000  0.47510000  1.0 0.0130802763
H  H234  1  0.93460000  0.68210000  0.97880000  1.0 0.0754350105
H  H235  1  0.97850000  0.67990000  0.96180000  1.0 0.0297390515
H  H236  1  0.96280000  0.68070000  0.05940000  1.0 0.0569140541
H  H237  1  0.86890000  0.55840000  0.05310000  1.0 0.1420301135
H  H238  1  0.86890000  0.55990000  0.94890000  1.0 0.1420301135
H  H239  1  0.52710000  0.27510000  0.82160000  1.0 0.1296884578
H  H240  1  0.56050000  0.24850000  0.79160000  1.0 0.1512677015
H  H241  1  0.56930000  0.28660000  0.84150000  1.0 0.1512677015
H  H242  1  0.65520000  0.29860000  0.68960000  1.0 0.1109294536
H  H243  1  0.63020000  0.26310000  0.71330000  1.0 0.1512677015
H  H244  1  0.61220000  0.29750000  0.66250000  1.0 0.1296884578
H  H245  1  0.52600000  0.03470000  0.85100000  1.0 0.1296884578
H  H246  1  0.56370000  0.02400000  0.80150000  1.0 0.1296884578
H  H247  1  0.54950000  0.06620000  0.80160000  1.0 0.1512677015
H  H248  1  0.72640000  0.18560000  0.46500000  1.0 0.0487888572
H  H249  1  0.73640000  0.20110000  0.55990000  1.0 0.0487888572
H  H250  1  0.75040000  0.22290000  0.47510000  1.0 0.0169439236
H  H251  1  0.68210000  0.06540000  0.97880000  1.0 0.0748909765
H  H252  1  0.67990000  0.02150000  0.96180000  1.0 0.0297390515
H  H253  1  0.68070000  0.03720000  0.05940000  1.0 0.0569140541
H  H254  1  0.55840000  0.13110000  0.05310000  1.0 0.1420301135
H  H255  1  0.55990000  0.13110000  0.94890000  1.0 0.1420301135
H  H256  1  0.47290000  0.72490000  0.82160000  1.0 0.1296884578
H  H257  1  0.43950000  0.75150000  0.79160000  1.0 0.1512677015
H  H258  1  0.43070000  0.71340000  0.84150000  1.0 0.1512677015
H  H259  1  0.34480000  0.70140000  0.68960000  1.0 0.1109294536
H  H260  1  0.36980000  0.73690000  0.71330000  1.0 0.1512677015
H  H261  1  0.38780000  0.70250000  0.66250000  1.0 0.1296884578
H  H262  1  0.47400000  0.96530000  0.85100000  1.0 0.1296884578
H  H263  1  0.43630000  0.97600000  0.80150000  1.0 0.1296884578
H  H264  1  0.45050000  0.93380000  0.80160000  1.0 0.1512677015
H  H265  1  0.27360000  0.81440000  0.46500000  1.0 0.0487888572
H  H266  1  0.26360000  0.79890000  0.55990000  1.0 0.0446537364
H  H267  1  0.24960000  0.77710000  0.47510000  1.0 0.0130802763
H  H268  1  0.31790000  0.93460000  0.97880000  1.0 0.0748909765
H  H269  1  0.32010000  0.97850000  0.96180000  1.0 0.0297390515
H  H270  1  0.31930000  0.96280000  0.05940000  1.0 0.0569140541
H  H271  1  0.44160000  0.86890000  0.05310000  1.0 0.1420301135
H  H272  1  0.44010000  0.86890000  0.94890000  1.0 0.1420301135
H  H273  1  0.71750000  0.39460000  0.50000000  1.0 0.1512677015
H  H274  1  0.28250000  0.60540000  0.50000000  1.0 0.1512677015
H  H275  1  0.39460000  0.28250000  0.50000000  1.0 0.1512677015
H  H276  1  0.60540000  0.71750000  0.50000000  1.0 0.1512677015
H  H277  1  0.71750000  0.60540000  0.50000000  1.0 0.1512677015
H  H278  1  0.28250000  0.39460000  0.50000000  1.0 0.1512677015
H  H279  1  0.39460000  0.71750000  0.50000000  1.0 0.1512677015
H  H280  1  0.60540000  0.28250000  0.50000000  1.0 0.1512677015
H  H281  1  0.70860000  0.44890000  0.00000000  1.0 0.1420301135
H  H282  1  0.92030000  0.45920000  0.00000000  1.0 0.1185629859
H  H283  1  0.86880000  0.47940000  0.00000000  1.0 0.0885343307
H  H284  1  0.29140000  0.55110000  0.00000000  1.0 0.1420301135
H  H285  1  0.07970000  0.54080000  0.00000000  1.0 0.1185629859
H  H286  1  0.13120000  0.52060000  0.00000000  1.0 0.0885343307
H  H287  1  0.44890000  0.29140000  0.00000000  1.0 0.1420301135
H  H288  1  0.45920000  0.07970000  0.00000000  1.0 0.1185629859
H  H289  1  0.47940000  0.13120000  0.00000000  1.0 0.0885343307
H  H290  1  0.55110000  0.70860000  0.00000000  1.0 0.1420301135
H  H291  1  0.54080000  0.92030000  0.00000000  1.0 0.1185629859
H  H292  1  0.52060000  0.86880000  0.00000000  1.0 0.0885343307
H  H293  1  0.70860000  0.55110000  0.00000000  1.0 0.1420301135
H  H294  1  0.92030000  0.54080000  0.00000000  1.0 0.1185629859
H  H295  1  0.86880000  0.52060000  0.00000000  1.0 0.0885343307
H  H296  1  0.29140000  0.44890000  0.00000000  1.0 0.1420301135
H  H297  1  0.07970000  0.45920000  0.00000000  1.0 0.1185629859
H  H298  1  0.13120000  0.47940000  0.00000000  1.0 0.0885343307
H  H299  1  0.44890000  0.70860000  0.00000000  1.0 0.1420301135
H  H300  1  0.45920000  0.92030000  0.00000000  1.0 0.1185629859
H  H301  1  0.47940000  0.86880000  0.00000000  1.0 0.0885343307
H  H302  1  0.55110000  0.29140000  0.00000000  1.0 0.1420301135
H  H303  1  0.54080000  0.07970000  0.00000000  1.0 0.1185629859
H  H304  1  0.52060000  0.13120000  0.00000000  1.0 0.0885343307
C  C1  1  0.84860000  0.43210000  0.72380000  1.0 0.4780139604
C  C2  1  0.82520000  0.42680000  0.80440000  1.0 0.2993676493
C  C3  1  0.80570000  0.29260000  0.77870000  1.0 0.4780139604
C  C4  1  0.78860000  0.31010000  0.69020000  1.0 0.2993676493
C  C5  1  0.92810000  0.35630000  0.80990000  1.0 0.3421967493
C  C6  1  0.92490000  0.33630000  0.71900000  1.0 0.4636973606
C  C7  1  0.79420000  0.45240000  0.92350000  1.0 0.1109294536
C  C8  1  0.75350000  0.44950000  0.92010000  1.0 0.1420301135
C  C9  1  0.73490000  0.44780000  0.83750000  1.0 -0.4179692587
C  C10  1  0.75600000  0.31810000  0.57950000  1.0 0.0991769226
C  C11  1  0.73400000  0.35450000  0.58040000  1.0 0.203518152
C  C12  1  0.72150000  0.36880000  0.68100000  1.0 -0.4117126644
C  C13  1  0.96090000  0.38600000  0.92110000  1.0 0.0569140541
C  C14  1  0.94940000  0.42580000  0.92230000  1.0 0.1551437953
C  C15  1  0.95730000  0.44800000  0.83400000  1.0 -0.4368170912
C  C16  1  0.15140000  0.56790000  0.72380000  1.0 0.4780139604
C  C17  1  0.17480000  0.57320000  0.80440000  1.0 0.2993676493
C  C18  1  0.19430000  0.70740000  0.77870000  1.0 0.4780139604
C  C19  1  0.21140000  0.68990000  0.69020000  1.0 0.2993676493
C  C20  1  0.07190000  0.64370000  0.80990000  1.0 0.3421967493
C  C21  1  0.07510000  0.66370000  0.71900000  1.0 0.4636973606
C  C22  1  0.20580000  0.54760000  0.92350000  1.0 0.1109294536
C  C23  1  0.24650000  0.55050000  0.92010000  1.0 0.1420301135
C  C24  1  0.26510000  0.55220000  0.83750000  1.0 -0.4179692587
C  C25  1  0.24400000  0.68190000  0.57950000  1.0 0.0991769226
C  C26  1  0.26600000  0.64550000  0.58040000  1.0 0.203518152
C  C27  1  0.27850000  0.63120000  0.68100000  1.0 -0.4117126644
C  C28  1  0.03910000  0.61400000  0.92110000  1.0 0.0569140541
C  C29  1  0.05060000  0.57420000  0.92230000  1.0 0.1551437953
C  C30  1  0.04270000  0.55200000  0.83400000  1.0 -0.4368170912
C  C31  1  0.43210000  0.15140000  0.72380000  1.0 0.4780139604
C  C32  1  0.42680000  0.17480000  0.80440000  1.0 0.2993676493
C  C33  1  0.29260000  0.19430000  0.77870000  1.0 0.4780139604
C  C34  1  0.31010000  0.21140000  0.69020000  1.0 0.2993676493
C  C35  1  0.35630000  0.07190000  0.80990000  1.0 0.3421967493
C  C36  1  0.33630000  0.07510000  0.71900000  1.0 0.4636973606
C  C37  1  0.45240000  0.20580000  0.92350000  1.0 0.1109294536
C  C38  1  0.44950000  0.24650000  0.92010000  1.0 0.1420301135
C  C39  1  0.44780000  0.26510000  0.83750000  1.0 -0.4179692587
C  C40  1  0.31810000  0.24400000  0.57950000  1.0 0.0991769226
C  C41  1  0.35450000  0.26600000  0.58040000  1.0 0.203518152
C  C42  1  0.36880000  0.27850000  0.68100000  1.0 -0.4117126644
C  C43  1  0.38600000  0.03910000  0.92110000  1.0 0.0569140541
C  C44  1  0.42580000  0.05060000  0.92230000  1.0 0.1551437953
C  C45  1  0.44800000  0.04270000  0.83400000  1.0 -0.4368170912
C  C46  1  0.56790000  0.84860000  0.72380000  1.0 0.4780139604
C  C47  1  0.57320000  0.82520000  0.80440000  1.0 0.2993676493
C  C48  1  0.70740000  0.80570000  0.77870000  1.0 0.4780139604
C  C49  1  0.68990000  0.78860000  0.69020000  1.0 0.2993676493
C  C50  1  0.64370000  0.92810000  0.80990000  1.0 0.3421967493
C  C51  1  0.66370000  0.92490000  0.71900000  1.0 0.4636973606
C  C52  1  0.54760000  0.79420000  0.92350000  1.0 0.1109294536
C  C53  1  0.55050000  0.75350000  0.92010000  1.0 0.1420301135
C  C54  1  0.55220000  0.73490000  0.83750000  1.0 -0.4179692587
C  C55  1  0.68190000  0.75600000  0.57950000  1.0 0.0991769226
C  C56  1  0.64550000  0.73400000  0.58040000  1.0 0.203518152
C  C57  1  0.63120000  0.72150000  0.68100000  1.0 -0.4117126644
C  C58  1  0.61400000  0.96090000  0.92110000  1.0 0.0569140541
C  C59  1  0.57420000  0.94940000  0.92230000  1.0 0.1551437953
C  C60  1  0.55200000  0.95730000  0.83400000  1.0 -0.4368170912
C  C61  1  0.84860000  0.56790000  0.27620000  1.0 0.4780139604
C  C62  1  0.82520000  0.57320000  0.19560000  1.0 0.2993676493
C  C63  1  0.80570000  0.70740000  0.22130000  1.0 0.4780139604
C  C64  1  0.78860000  0.68990000  0.30980000  1.0 0.2993676493
C  C65  1  0.92810000  0.64370000  0.19010000  1.0 0.3421967493
C  C66  1  0.92490000  0.66370000  0.28100000  1.0 0.4636973606
C  C67  1  0.79420000  0.54760000  0.07650000  1.0 0.1109294536
C  C68  1  0.75350000  0.55050000  0.07990000  1.0 0.1420301135
C  C69  1  0.73490000  0.55220000  0.16250000  1.0 -0.4179692587
C  C70  1  0.75600000  0.68190000  0.42050000  1.0 0.0991769226
C  C71  1  0.73400000  0.64550000  0.41960000  1.0 0.203518152
C  C72  1  0.72150000  0.63120000  0.31900000  1.0 -0.4117126644
C  C73  1  0.96090000  0.61400000  0.07890000  1.0 0.0569140541
C  C74  1  0.94940000  0.57420000  0.07770000  1.0 0.1551437953
C  C75  1  0.95730000  0.55200000  0.16600000  1.0 -0.4368170912
C  C76  1  0.15140000  0.43210000  0.27620000  1.0 0.4780139604
C  C77  1  0.17480000  0.42680000  0.19560000  1.0 0.2993676493
C  C78  1  0.19430000  0.29260000  0.22130000  1.0 0.4780139604
C  C79  1  0.21140000  0.31010000  0.30980000  1.0 0.2993676493
C  C80  1  0.07190000  0.35630000  0.19010000  1.0 0.3421967493
C  C81  1  0.07510000  0.33630000  0.28100000  1.0 0.4636973606
C  C82  1  0.20580000  0.45240000  0.07650000  1.0 0.1109294536
C  C83  1  0.24650000  0.44950000  0.07990000  1.0 0.1420301135
C  C84  1  0.26510000  0.44780000  0.16250000  1.0 -0.4179692587
C  C85  1  0.24400000  0.31810000  0.42050000  1.0 0.0991769226
C  C86  1  0.26600000  0.35450000  0.41960000  1.0 0.203518152
C  C87  1  0.27850000  0.36880000  0.31900000  1.0 -0.4117126644
C  C88  1  0.03910000  0.38600000  0.07890000  1.0 0.0569140541
C  C89  1  0.05060000  0.42580000  0.07770000  1.0 0.1551437953
C  C90  1  0.04270000  0.44800000  0.16600000  1.0 -0.4368170912
C  C91  1  0.43210000  0.84860000  0.27620000  1.0 0.4780139604
C  C92  1  0.42680000  0.82520000  0.19560000  1.0 0.2993676493
C  C93  1  0.29260000  0.80570000  0.22130000  1.0 0.4780139604
C  C94  1  0.31010000  0.78860000  0.30980000  1.0 0.2993676493
C  C95  1  0.35630000  0.92810000  0.19010000  1.0 0.3421967493
C  C96  1  0.33630000  0.92490000  0.28100000  1.0 0.4636973606
C  C97  1  0.45240000  0.79420000  0.07650000  1.0 0.1109294536
C  C98  1  0.44950000  0.75350000  0.07990000  1.0 0.1420301135
C  C99  1  0.44780000  0.73490000  0.16250000  1.0 -0.4179692587
C  C100  1  0.31810000  0.75600000  0.42050000  1.0 0.0991769226
C  C101  1  0.35450000  0.73400000  0.41960000  1.0 0.203518152
C  C102  1  0.36880000  0.72150000  0.31900000  1.0 -0.4117126644
C  C103  1  0.38600000  0.96090000  0.07890000  1.0 0.0569140541
C  C104  1  0.42580000  0.94940000  0.07770000  1.0 0.1551437953
C  C105  1  0.44800000  0.95730000  0.16600000  1.0 -0.4368170912
C  C106  1  0.56790000  0.15140000  0.27620000  1.0 0.4780139604
C  C107  1  0.57320000  0.17480000  0.19560000  1.0 0.2993676493
C  C108  1  0.70740000  0.19430000  0.22130000  1.0 0.4780139604
C  C109  1  0.68990000  0.21140000  0.30980000  1.0 0.2993676493
C  C110  1  0.64370000  0.07190000  0.19010000  1.0 0.3421967493
C  C111  1  0.66370000  0.07510000  0.28100000  1.0 0.4636973606
C  C112  1  0.54760000  0.20580000  0.07650000  1.0 0.1109294536
C  C113  1  0.55050000  0.24650000  0.07990000  1.0 0.1420301135
C  C114  1  0.55220000  0.26510000  0.16250000  1.0 -0.4179692587
C  C115  1  0.68190000  0.24400000  0.42050000  1.0 0.0991769226
C  C116  1  0.64550000  0.26600000  0.41960000  1.0 0.203518152
C  C117  1  0.63120000  0.27850000  0.31900000  1.0 -0.4117126644
C  C118  1  0.61400000  0.03910000  0.07890000  1.0 0.0569140541
C  C119  1  0.57420000  0.05060000  0.07770000  1.0 0.1551437953
C  C120  1  0.55200000  0.04270000  0.16600000  1.0 -0.4368170912
C  C121  1  0.15140000  0.56790000  0.27620000  1.0 0.4780139604
C  C122  1  0.17480000  0.57320000  0.19560000  1.0 0.2993676493
C  C123  1  0.19430000  0.70740000  0.22130000  1.0 0.4780139604
C  C124  1  0.21140000  0.68990000  0.30980000  1.0 0.2993676493
C  C125  1  0.07190000  0.64370000  0.19010000  1.0 0.3421967493
C  C126  1  0.07510000  0.66370000  0.28100000  1.0 0.4636973606
C  C127  1  0.20580000  0.54760000  0.07650000  1.0 0.1109294536
C  C128  1  0.24650000  0.55050000  0.07990000  1.0 0.1420301135
C  C129  1  0.26510000  0.55220000  0.16250000  1.0 -0.4179692587
C  C130  1  0.24400000  0.68190000  0.42050000  1.0 0.0991769226
C  C131  1  0.26600000  0.64550000  0.41960000  1.0 0.203518152
C  C132  1  0.27850000  0.63120000  0.31900000  1.0 -0.4117126644
C  C133  1  0.03910000  0.61400000  0.07890000  1.0 0.0569140541
C  C134  1  0.05060000  0.57420000  0.07770000  1.0 0.1551437953
C  C135  1  0.04270000  0.55200000  0.16600000  1.0 -0.4368170912
C  C136  1  0.84860000  0.43210000  0.27620000  1.0 0.4780139604
C  C137  1  0.82520000  0.42680000  0.19560000  1.0 0.2993676493
C  C138  1  0.80570000  0.29260000  0.22130000  1.0 0.4780139604
C  C139  1  0.78860000  0.31010000  0.30980000  1.0 0.2993676493
C  C140  1  0.92810000  0.35630000  0.19010000  1.0 0.3421967493
C  C141  1  0.92490000  0.33630000  0.28100000  1.0 0.4636973606
C  C142  1  0.79420000  0.45240000  0.07650000  1.0 0.1109294536
C  C143  1  0.75350000  0.44950000  0.07990000  1.0 0.1420301135
C  C144  1  0.73490000  0.44780000  0.16250000  1.0 -0.4179692587
C  C145  1  0.75600000  0.31810000  0.42050000  1.0 0.0991769226
C  C146  1  0.73400000  0.35450000  0.41960000  1.0 0.203518152
C  C147  1  0.72150000  0.36880000  0.31900000  1.0 -0.4117126644
C  C148  1  0.96090000  0.38600000  0.07890000  1.0 0.0569140541
C  C149  1  0.94940000  0.42580000  0.07770000  1.0 0.1551437953
C  C150  1  0.95730000  0.44800000  0.16600000  1.0 -0.4368170912
C  C151  1  0.56790000  0.84860000  0.27620000  1.0 0.4780139604
C  C152  1  0.57320000  0.82520000  0.19560000  1.0 0.2993676493
C  C153  1  0.70740000  0.80570000  0.22130000  1.0 0.4780139604
C  C154  1  0.68990000  0.78860000  0.30980000  1.0 0.2993676493
C  C155  1  0.64370000  0.92810000  0.19010000  1.0 0.3421967493
C  C156  1  0.66370000  0.92490000  0.28100000  1.0 0.4636973606
C  C157  1  0.54760000  0.79420000  0.07650000  1.0 0.1109294536
C  C158  1  0.55050000  0.75350000  0.07990000  1.0 0.1420301135
C  C159  1  0.55220000  0.73490000  0.16250000  1.0 -0.4179692587
C  C160  1  0.68190000  0.75600000  0.42050000  1.0 0.0991769226
C  C161  1  0.64550000  0.73400000  0.41960000  1.0 0.203518152
C  C162  1  0.63120000  0.72150000  0.31900000  1.0 -0.4117126644
C  C163  1  0.61400000  0.96090000  0.07890000  1.0 0.0569140541
C  C164  1  0.57420000  0.94940000  0.07770000  1.0 0.1551437953
C  C165  1  0.55200000  0.95730000  0.16600000  1.0 -0.4368170912
C  C166  1  0.43210000  0.15140000  0.27620000  1.0 0.4780139604
C  C167  1  0.42680000  0.17480000  0.19560000  1.0 0.2993676493
C  C168  1  0.29260000  0.19430000  0.22130000  1.0 0.4780139604
C  C169  1  0.31010000  0.21140000  0.30980000  1.0 0.2993676493
C  C170  1  0.35630000  0.07190000  0.19010000  1.0 0.3421967493
C  C171  1  0.33630000  0.07510000  0.28100000  1.0 0.4636973606
C  C172  1  0.45240000  0.20580000  0.07650000  1.0 0.1109294536
C  C173  1  0.44950000  0.24650000  0.07990000  1.0 0.1420301135
C  C174  1  0.44780000  0.26510000  0.16250000  1.0 -0.4179692587
C  C175  1  0.31810000  0.24400000  0.42050000  1.0 0.0991769226
C  C176  1  0.35450000  0.26600000  0.41960000  1.0 0.203518152
C  C177  1  0.36880000  0.27850000  0.31900000  1.0 -0.4117126644
C  C178  1  0.38600000  0.03910000  0.07890000  1.0 0.0569140541
C  C179  1  0.42580000  0.05060000  0.07770000  1.0 0.1551437953
C  C180  1  0.44800000  0.04270000  0.16600000  1.0 -0.4368170912
C  C181  1  0.15140000  0.43210000  0.72380000  1.0 0.4780139604
C  C182  1  0.17480000  0.42680000  0.80440000  1.0 0.2993676493
C  C183  1  0.19430000  0.29260000  0.77870000  1.0 0.4780139604
C  C184  1  0.21140000  0.31010000  0.69020000  1.0 0.2993676493
C  C185  1  0.07190000  0.35630000  0.80990000  1.0 0.3421967493
C  C186  1  0.07510000  0.33630000  0.71900000  1.0 0.4636973606
C  C187  1  0.20580000  0.45240000  0.92350000  1.0 0.1109294536
C  C188  1  0.24650000  0.44950000  0.92010000  1.0 0.1420301135
C  C189  1  0.26510000  0.44780000  0.83750000  1.0 -0.4179692587
C  C190  1  0.24400000  0.31810000  0.57950000  1.0 0.0991769226
C  C191  1  0.26600000  0.35450000  0.58040000  1.0 0.203518152
C  C192  1  0.27850000  0.36880000  0.68100000  1.0 -0.4117126644
C  C193  1  0.03910000  0.38600000  0.92110000  1.0 0.0569140541
C  C194  1  0.05060000  0.42580000  0.92230000  1.0 0.1551437953
C  C195  1  0.04270000  0.44800000  0.83400000  1.0 -0.4368170912
C  C196  1  0.84860000  0.56790000  0.72380000  1.0 0.4780139604
C  C197  1  0.82520000  0.57320000  0.80440000  1.0 0.2993676493
C  C198  1  0.80570000  0.70740000  0.77870000  1.0 0.4780139604
C  C199  1  0.78860000  0.68990000  0.69020000  1.0 0.2993676493
C  C200  1  0.92810000  0.64370000  0.80990000  1.0 0.3421967493
C  C201  1  0.92490000  0.66370000  0.71900000  1.0 0.4636973606
C  C202  1  0.79420000  0.54760000  0.92350000  1.0 0.1109294536
C  C203  1  0.75350000  0.55050000  0.92010000  1.0 0.1420301135
C  C204  1  0.73490000  0.55220000  0.83750000  1.0 -0.4179692587
C  C205  1  0.75600000  0.68190000  0.57950000  1.0 0.0991769226
C  C206  1  0.73400000  0.64550000  0.58040000  1.0 0.203518152
C  C207  1  0.72150000  0.63120000  0.68100000  1.0 -0.4117126644
C  C208  1  0.96090000  0.61400000  0.92110000  1.0 0.0569140541
C  C209  1  0.94940000  0.57420000  0.92230000  1.0 0.1551437953
C  C210  1  0.95730000  0.55200000  0.83400000  1.0 -0.4368170912
C  C211  1  0.56790000  0.15140000  0.72380000  1.0 0.4780139604
C  C212  1  0.57320000  0.17480000  0.80440000  1.0 0.2993676493
C  C213  1  0.70740000  0.19430000  0.77870000  1.0 0.4780139604
C  C214  1  0.68990000  0.21140000  0.69020000  1.0 0.2993676493
C  C215  1  0.64370000  0.07190000  0.80990000  1.0 0.3421967493
C  C216  1  0.66370000  0.07510000  0.71900000  1.0 0.4636973606
C  C217  1  0.54760000  0.20580000  0.92350000  1.0 0.1109294536
C  C218  1  0.55050000  0.24650000  0.92010000  1.0 0.1420301135
C  C219  1  0.55220000  0.26510000  0.83750000  1.0 -0.4179692587
C  C220  1  0.68190000  0.24400000  0.57950000  1.0 0.0991769226
C  C221  1  0.64550000  0.26600000  0.58040000  1.0 0.203518152
C  C222  1  0.63120000  0.27850000  0.68100000  1.0 -0.4117126644
C  C223  1  0.61400000  0.03910000  0.92110000  1.0 0.0569140541
C  C224  1  0.57420000  0.05060000  0.92230000  1.0 0.1551437953
C  C225  1  0.55200000  0.04270000  0.83400000  1.0 -0.4368170912
C  C226  1  0.43210000  0.84860000  0.72380000  1.0 0.4780139604
C  C227  1  0.42680000  0.82520000  0.80440000  1.0 0.2993676493
C  C228  1  0.29260000  0.80570000  0.77870000  1.0 0.4780139604
C  C229  1  0.31010000  0.78860000  0.69020000  1.0 0.2993676493
C  C230  1  0.35630000  0.92810000  0.80990000  1.0 0.3421967493
C  C231  1  0.33630000  0.92490000  0.71900000  1.0 0.4636973606
C  C232  1  0.45240000  0.79420000  0.92350000  1.0 0.1109294536
C  C233  1  0.44950000  0.75350000  0.92010000  1.0 0.1420301135
C  C234  1  0.44780000  0.73490000  0.83750000  1.0 -0.4179692587
C  C235  1  0.31810000  0.75600000  0.57950000  1.0 0.0991769226
C  C236  1  0.35450000  0.73400000  0.58040000  1.0 0.203518152
C  C237  1  0.36880000  0.72150000  0.68100000  1.0 -0.4117126644
C  C238  1  0.38600000  0.96090000  0.92110000  1.0 0.0569140541
C  C239  1  0.42580000  0.94940000  0.92230000  1.0 0.1551437953
C  C240  1  0.44800000  0.95730000  0.83400000  1.0 -0.4368170912
C  C241  1  0.76830000  0.30490000  0.50000000  1.0 0.0297390515
C  C242  1  0.72840000  0.37040000  0.50000000  1.0 -0.3172386906
C  C243  1  0.79150000  0.26980000  0.50000000  1.0 -0.1818562925
C  C244  1  0.23170000  0.69510000  0.50000000  1.0 0.0297390515
C  C245  1  0.27160000  0.62960000  0.50000000  1.0 -0.3172386906
C  C246  1  0.20850000  0.73020000  0.50000000  1.0 -0.1818562925
C  C247  1  0.30490000  0.23170000  0.50000000  1.0 0.0297390515
C  C248  1  0.37040000  0.27160000  0.50000000  1.0 -0.3172386906
C  C249  1  0.26980000  0.20850000  0.50000000  1.0 -0.1818562925
C  C250  1  0.69510000  0.76830000  0.50000000  1.0 0.0297390515
C  C251  1  0.62960000  0.72840000  0.50000000  1.0 -0.3172386906
C  C252  1  0.73020000  0.79150000  0.50000000  1.0 -0.1818562925
C  C253  1  0.76830000  0.69510000  0.50000000  1.0 0.0297390515
C  C254  1  0.72840000  0.62960000  0.50000000  1.0 -0.3172386906
C  C255  1  0.79150000  0.73020000  0.50000000  1.0 -0.1818562925
C  C256  1  0.23170000  0.30490000  0.50000000  1.0 0.0297390515
C  C257  1  0.27160000  0.37040000  0.50000000  1.0 -0.3172386906
C  C258  1  0.20850000  0.26980000  0.50000000  1.0 -0.1818562925
C  C259  1  0.30490000  0.76830000  0.50000000  1.0 0.0297390515
C  C260  1  0.37040000  0.72840000  0.50000000  1.0 -0.3172386906
C  C261  1  0.26980000  0.79150000  0.50000000  1.0 -0.1818562925
C  C262  1  0.69510000  0.23170000  0.50000000  1.0 0.0297390515
C  C263  1  0.62960000  0.27160000  0.50000000  1.0 -0.3172386906
C  C264  1  0.73020000  0.20850000  0.50000000  1.0 -0.1818562925
C  C265  1  0.81390000  0.45220000  0.00000000  1.0 0.0297390515
C  C266  1  0.73620000  0.44920000  0.00000000  1.0 -0.2423318161
C  C267  1  0.85990000  0.45400000  0.00000000  1.0 -0.452439278
C  C268  1  0.93390000  0.43590000  0.00000000  1.0 -0.2606722882
C  C269  1  0.95510000  0.36850000  0.00000000  1.0 -0.0898286842
C  C270  1  0.96030000  0.32890000  0.00000000  1.0 -0.1818562925
C  C271  1  0.18610000  0.54780000  0.00000000  1.0 0.0297390515
C  C272  1  0.26380000  0.55080000  0.00000000  1.0 -0.2423318161
C  C273  1  0.14010000  0.54600000  0.00000000  1.0 -0.452439278
C  C274  1  0.06610000  0.56410000  0.00000000  1.0 -0.2606722882
C  C275  1  0.04490000  0.63150000  0.00000000  1.0 -0.0898286842
C  C276  1  0.03970000  0.67110000  0.00000000  1.0 -0.1818562925
C  C277  1  0.45220000  0.18610000  0.00000000  1.0 0.0297390515
C  C278  1  0.44920000  0.26380000  0.00000000  1.0 -0.2423318161
C  C279  1  0.45400000  0.14010000  0.00000000  1.0 -0.452439278
C  C280  1  0.43590000  0.06610000  0.00000000  1.0 -0.2606722882
C  C281  1  0.36850000  0.04490000  0.00000000  1.0 -0.0898286842
C  C282  1  0.32890000  0.03970000  0.00000000  1.0 -0.1818562925
C  C283  1  0.54780000  0.81390000  0.00000000  1.0 0.0297390515
C  C284  1  0.55080000  0.73620000  0.00000000  1.0 -0.2423318161
C  C285  1  0.54600000  0.85990000  0.00000000  1.0 -0.452439278
C  C286  1  0.56410000  0.93390000  0.00000000  1.0 -0.2606722882
C  C287  1  0.63150000  0.95510000  0.00000000  1.0 -0.0898286842
C  C288  1  0.67110000  0.96030000  0.00000000  1.0 -0.1818562925
C  C289  1  0.81390000  0.54780000  0.00000000  1.0 0.0297390515
C  C290  1  0.73620000  0.55080000  0.00000000  1.0 -0.2423318161
C  C291  1  0.85990000  0.54600000  0.00000000  1.0 -0.452439278
C  C292  1  0.93390000  0.56410000  0.00000000  1.0 -0.2606722882
C  C293  1  0.95510000  0.63150000  0.00000000  1.0 -0.0898286842
C  C294  1  0.96030000  0.67110000  0.00000000  1.0 -0.1818562925
C  C295  1  0.18610000  0.45220000  0.00000000  1.0 0.0297390515
C  C296  1  0.26380000  0.44920000  0.00000000  1.0 -0.2423318161
C  C297  1  0.14010000  0.45400000  0.00000000  1.0 -0.452439278
C  C298  1  0.06610000  0.43590000  0.00000000  1.0 -0.2606722882
C  C299  1  0.04490000  0.36850000  0.00000000  1.0 -0.0898286842
C  C300  1  0.03970000  0.32890000  0.00000000  1.0 -0.1818562925
C  C301  1  0.45220000  0.81390000  0.00000000  1.0 0.0297390515
C  C302  1  0.44920000  0.73620000  0.00000000  1.0 -0.2423318161
C  C303  1  0.45400000  0.85990000  0.00000000  1.0 -0.452439278
C  C304  1  0.43590000  0.93390000  0.00000000  1.0 -0.2606722882
C  C305  1  0.36850000  0.95510000  0.00000000  1.0 -0.0898286842
C  C306  1  0.32890000  0.96030000  0.00000000  1.0 -0.1818562925
C  C307  1  0.54780000  0.18610000  0.00000000  1.0 0.0297390515
C  C308  1  0.55080000  0.26380000  0.00000000  1.0 -0.2423318161
C  C309  1  0.54600000  0.14010000  0.00000000  1.0 -0.452439278
C  C310  1  0.56410000  0.06610000  0.00000000  1.0 -0.2606722882
C  C311  1  0.63150000  0.04490000  0.00000000  1.0 -0.0898286842
C  C312  1  0.67110000  0.03970000  0.00000000  1.0 -0.1818562925
N  N1  1  0.81330000  0.45560000  0.84040000  1.0 -0.3556386551
N  N2  1  0.76170000  0.29530000  0.66270000  1.0 -0.334982129
N  N3  1  0.95360000  0.36340000  0.83870000  1.0 -0.2718121132
N  N4  1  0.18670000  0.54440000  0.84040000  1.0 -0.3556386551
N  N5  1  0.23830000  0.70470000  0.66270000  1.0 -0.334982129
N  N6  1  0.04640000  0.63660000  0.83870000  1.0 -0.2718121132
N  N7  1  0.45560000  0.18670000  0.84040000  1.0 -0.3556386551
N  N8  1  0.29530000  0.23830000  0.66270000  1.0 -0.334982129
N  N9  1  0.36340000  0.04640000  0.83870000  1.0 -0.2718121132
N  N10  1  0.54440000  0.81330000  0.84040000  1.0 -0.3556386551
N  N11  1  0.70470000  0.76170000  0.66270000  1.0 -0.334982129
N  N12  1  0.63660000  0.95360000  0.83870000  1.0 -0.2718121132
N  N13  1  0.81330000  0.54440000  0.15960000  1.0 -0.3556386551
N  N14  1  0.76170000  0.70470000  0.33730000  1.0 -0.334982129
N  N15  1  0.95360000  0.63660000  0.16130000  1.0 -0.2718121132
N  N16  1  0.18670000  0.45560000  0.15960000  1.0 -0.3556386551
N  N17  1  0.23830000  0.29530000  0.33730000  1.0 -0.334982129
N  N18  1  0.04640000  0.36340000  0.16130000  1.0 -0.2718121132
N  N19  1  0.45560000  0.81330000  0.15960000  1.0 -0.3556386551
N  N20  1  0.29530000  0.76170000  0.33730000  1.0 -0.334982129
N  N21  1  0.36340000  0.95360000  0.16130000  1.0 -0.2718121132
N  N22  1  0.54440000  0.18670000  0.15960000  1.0 -0.3556386551
N  N23  1  0.70470000  0.23830000  0.33730000  1.0 -0.334982129
N  N24  1  0.63660000  0.04640000  0.16130000  1.0 -0.2718121132
N  N25  1  0.18670000  0.54440000  0.15960000  1.0 -0.3556386551
N  N26  1  0.23830000  0.70470000  0.33730000  1.0 -0.334982129
N  N27  1  0.04640000  0.63660000  0.16130000  1.0 -0.2718121132
N  N28  1  0.81330000  0.45560000  0.15960000  1.0 -0.3556386551
N  N29  1  0.76170000  0.29530000  0.33730000  1.0 -0.334982129
N  N30  1  0.95360000  0.36340000  0.16130000  1.0 -0.2718121132
N  N31  1  0.54440000  0.81330000  0.15960000  1.0 -0.3556386551
N  N32  1  0.70470000  0.76170000  0.33730000  1.0 -0.334982129
N  N33  1  0.63660000  0.95360000  0.16130000  1.0 -0.2718121132
N  N34  1  0.45560000  0.18670000  0.15960000  1.0 -0.3556386551
N  N35  1  0.29530000  0.23830000  0.33730000  1.0 -0.334982129
N  N36  1  0.36340000  0.04640000  0.16130000  1.0 -0.2718121132
N  N37  1  0.18670000  0.45560000  0.84040000  1.0 -0.3556386551
N  N38  1  0.23830000  0.29530000  0.66270000  1.0 -0.334982129
N  N39  1  0.04640000  0.36340000  0.83870000  1.0 -0.2718121132
N  N40  1  0.81330000  0.54440000  0.84040000  1.0 -0.3556386551
N  N41  1  0.76170000  0.70470000  0.66270000  1.0 -0.334982129
N  N42  1  0.95360000  0.63660000  0.83870000  1.0 -0.2718121132
N  N43  1  0.54440000  0.18670000  0.84040000  1.0 -0.3556386551
N  N44  1  0.70470000  0.23830000  0.66270000  1.0 -0.334982129
N  N45  1  0.63660000  0.04640000  0.83870000  1.0 -0.2718121132
N  N46  1  0.45560000  0.81330000  0.84040000  1.0 -0.3556386551
N  N47  1  0.29530000  0.76170000  0.66270000  1.0 -0.334982129
N  N48  1  0.36340000  0.95360000  0.83870000  1.0 -0.2718121132
O  O1  1  0.81660000  0.39090000  0.82450000  1.0 -0.4757272145
O  O2  1  0.86120000  0.40190000  0.68590000  1.0 -0.457653465
O  O3  1  0.85440000  0.46250000  0.70340000  1.0 -0.309194254
O  O4  1  0.81060000  0.33830000  0.66860000  1.0 -0.452439278
O  O5  1  0.83490000  0.30670000  0.80990000  1.0 -0.4262494466
O  O6  1  0.78380000  0.26230000  0.80270000  1.0 -0.3957953884
O  O7  1  0.89490000  0.32970000  0.68370000  1.0 -0.4117126644
O  O8  1  0.89040000  0.36450000  0.83270000  1.0 -0.5269396848
O  O9  1  0.96120000  0.32850000  0.69400000  1.0 -0.4757272145
O  O10  1  0.18340000  0.60910000  0.82450000  1.0 -0.4757272145
O  O11  1  0.13880000  0.59810000  0.68590000  1.0 -0.457653465
O  O12  1  0.14560000  0.53750000  0.70340000  1.0 -0.309194254
O  O13  1  0.18940000  0.66170000  0.66860000  1.0 -0.452439278
O  O14  1  0.16510000  0.69330000  0.80990000  1.0 -0.4262494466
O  O15  1  0.21620000  0.73770000  0.80270000  1.0 -0.3957953884
O  O16  1  0.10510000  0.67030000  0.68370000  1.0 -0.4117126644
O  O17  1  0.10960000  0.63550000  0.83270000  1.0 -0.5269396848
O  O18  1  0.03880000  0.67150000  0.69400000  1.0 -0.4757272145
O  O19  1  0.39090000  0.18340000  0.82450000  1.0 -0.4757272145
O  O20  1  0.40190000  0.13880000  0.68590000  1.0 -0.457653465
O  O21  1  0.46250000  0.14560000  0.70340000  1.0 -0.309194254
O  O22  1  0.33830000  0.18940000  0.66860000  1.0 -0.452439278
O  O23  1  0.30670000  0.16510000  0.80990000  1.0 -0.4262494466
O  O24  1  0.26230000  0.21620000  0.80270000  1.0 -0.3957953884
O  O25  1  0.32970000  0.10510000  0.68370000  1.0 -0.4117126644
O  O26  1  0.36450000  0.10960000  0.83270000  1.0 -0.5269396848
O  O27  1  0.32850000  0.03880000  0.69400000  1.0 -0.4757272145
O  O28  1  0.60910000  0.81660000  0.82450000  1.0 -0.4757272145
O  O29  1  0.59810000  0.86120000  0.68590000  1.0 -0.457653465
O  O30  1  0.53750000  0.85440000  0.70340000  1.0 -0.309194254
O  O31  1  0.66170000  0.81060000  0.66860000  1.0 -0.452439278
O  O32  1  0.69330000  0.83490000  0.80990000  1.0 -0.4262494466
O  O33  1  0.73770000  0.78380000  0.80270000  1.0 -0.3957953884
O  O34  1  0.67030000  0.89490000  0.68370000  1.0 -0.4117126644
O  O35  1  0.63550000  0.89040000  0.83270000  1.0 -0.5269396848
O  O36  1  0.67150000  0.96120000  0.69400000  1.0 -0.4757272145
O  O37  1  0.81660000  0.60910000  0.17550000  1.0 -0.4757272145
O  O38  1  0.86120000  0.59810000  0.31410000  1.0 -0.457653465
O  O39  1  0.85440000  0.53750000  0.29660000  1.0 -0.309194254
O  O40  1  0.81060000  0.66170000  0.33140000  1.0 -0.452439278
O  O41  1  0.83490000  0.69330000  0.19010000  1.0 -0.4262494466
O  O42  1  0.78380000  0.73770000  0.19730000  1.0 -0.3957953884
O  O43  1  0.89490000  0.67030000  0.31630000  1.0 -0.4117126644
O  O44  1  0.89040000  0.63550000  0.16730000  1.0 -0.5269396848
O  O45  1  0.96120000  0.67150000  0.30600000  1.0 -0.4757272145
O  O46  1  0.18340000  0.39090000  0.17550000  1.0 -0.4757272145
O  O47  1  0.13880000  0.40190000  0.31410000  1.0 -0.457653465
O  O48  1  0.14560000  0.46250000  0.29660000  1.0 -0.309194254
O  O49  1  0.18940000  0.33830000  0.33140000  1.0 -0.452439278
O  O50  1  0.16510000  0.30670000  0.19010000  1.0 -0.4262494466
O  O51  1  0.21620000  0.26230000  0.19730000  1.0 -0.3957953884
O  O52  1  0.10510000  0.32970000  0.31630000  1.0 -0.4117126644
O  O53  1  0.10960000  0.36450000  0.16730000  1.0 -0.5269396848
O  O54  1  0.03880000  0.32850000  0.30600000  1.0 -0.4727454504
O  O55  1  0.39090000  0.81660000  0.17550000  1.0 -0.4757272145
O  O56  1  0.40190000  0.86120000  0.31410000  1.0 -0.457653465
O  O57  1  0.46250000  0.85440000  0.29660000  1.0 -0.309194254
O  O58  1  0.33830000  0.81060000  0.33140000  1.0 -0.452439278
O  O59  1  0.30670000  0.83490000  0.19010000  1.0 -0.4262494466
O  O60  1  0.26230000  0.78380000  0.19730000  1.0 -0.3957953884
O  O61  1  0.32970000  0.89490000  0.31630000  1.0 -0.4117126644
O  O62  1  0.36450000  0.89040000  0.16730000  1.0 -0.5269396848
O  O63  1  0.32850000  0.96120000  0.30600000  1.0 -0.4757272145
O  O64  1  0.60910000  0.18340000  0.17550000  1.0 -0.4757272145
O  O65  1  0.59810000  0.13880000  0.31410000  1.0 -0.457653465
O  O66  1  0.53750000  0.14560000  0.29660000  1.0 -0.309194254
O  O67  1  0.66170000  0.18940000  0.33140000  1.0 -0.452439278
O  O68  1  0.69330000  0.16510000  0.19010000  1.0 -0.4262494466
O  O69  1  0.73770000  0.21620000  0.19730000  1.0 -0.3957953884
O  O70  1  0.67030000  0.10510000  0.31630000  1.0 -0.4117126644
O  O71  1  0.63550000  0.10960000  0.16730000  1.0 -0.5269396848
O  O72  1  0.67150000  0.03880000  0.30600000  1.0 -0.4757272145
O  O73  1  0.18340000  0.60910000  0.17550000  1.0 -0.4757272145
O  O74  1  0.13880000  0.59810000  0.31410000  1.0 -0.457653465
O  O75  1  0.14560000  0.53750000  0.29660000  1.0 -0.309194254
O  O76  1  0.18940000  0.66170000  0.33140000  1.0 -0.452439278
O  O77  1  0.16510000  0.69330000  0.19010000  1.0 -0.4262494466
O  O78  1  0.21620000  0.73770000  0.19730000  1.0 -0.3957953884
O  O79  1  0.10510000  0.67030000  0.31630000  1.0 -0.4117126644
O  O80  1  0.10960000  0.63550000  0.16730000  1.0 -0.5269396848
O  O81  1  0.03880000  0.67150000  0.30600000  1.0 -0.4757272145
O  O82  1  0.81660000  0.39090000  0.17550000  1.0 -0.4757272145
O  O83  1  0.86120000  0.40190000  0.31410000  1.0 -0.457653465
O  O84  1  0.85440000  0.46250000  0.29660000  1.0 -0.309194254
O  O85  1  0.81060000  0.33830000  0.33140000  1.0 -0.452439278
O  O86  1  0.83490000  0.30670000  0.19010000  1.0 -0.4262494466
O  O87  1  0.78380000  0.26230000  0.19730000  1.0 -0.3957953884
O  O88  1  0.89490000  0.32970000  0.31630000  1.0 -0.4117126644
O  O89  1  0.89040000  0.36450000  0.16730000  1.0 -0.5269396848
O  O90  1  0.96120000  0.32850000  0.30600000  1.0 -0.4757272145
O  O91  1  0.60910000  0.81660000  0.17550000  1.0 -0.4757272145
O  O92  1  0.59810000  0.86120000  0.31410000  1.0 -0.457653465
O  O93  1  0.53750000  0.85440000  0.29660000  1.0 -0.309194254
O  O94  1  0.66170000  0.81060000  0.33140000  1.0 -0.452439278
O  O95  1  0.69330000  0.83490000  0.19010000  1.0 -0.4262494466
O  O96  1  0.73770000  0.78380000  0.19730000  1.0 -0.3957953884
O  O97  1  0.67030000  0.89490000  0.31630000  1.0 -0.4117126644
O  O98  1  0.63550000  0.89040000  0.16730000  1.0 -0.5269396848
O  O99  1  0.67150000  0.96120000  0.30600000  1.0 -0.4757272145
O  O100  1  0.39090000  0.18340000  0.17550000  1.0 -0.4757272145
O  O101  1  0.40190000  0.13880000  0.31410000  1.0 -0.457653465
O  O102  1  0.46250000  0.14560000  0.29660000  1.0 -0.309194254
O  O103  1  0.33830000  0.18940000  0.33140000  1.0 -0.452439278
O  O104  1  0.30670000  0.16510000  0.19010000  1.0 -0.4262494466
O  O105  1  0.26230000  0.21620000  0.19730000  1.0 -0.3957953884
O  O106  1  0.32970000  0.10510000  0.31630000  1.0 -0.4117126644
O  O107  1  0.36450000  0.10960000  0.16730000  1.0 -0.5269396848
O  O108  1  0.32850000  0.03880000  0.30600000  1.0 -0.4727454504
O  O109  1  0.18340000  0.39090000  0.82450000  1.0 -0.4757272145
O  O110  1  0.13880000  0.40190000  0.68590000  1.0 -0.457653465
O  O111  1  0.14560000  0.46250000  0.70340000  1.0 -0.309194254
O  O112  1  0.18940000  0.33830000  0.66860000  1.0 -0.452439278
O  O113  1  0.16510000  0.30670000  0.80990000  1.0 -0.4262494466
O  O114  1  0.21620000  0.26230000  0.80270000  1.0 -0.3957953884
O  O115  1  0.10510000  0.32970000  0.68370000  1.0 -0.4117126644
O  O116  1  0.10960000  0.36450000  0.83270000  1.0 -0.5269396848
O  O117  1  0.03880000  0.32850000  0.69400000  1.0 -0.4757272145
O  O118  1  0.81660000  0.60910000  0.82450000  1.0 -0.4757272145
O  O119  1  0.86120000  0.59810000  0.68590000  1.0 -0.457653465
O  O120  1  0.85440000  0.53750000  0.70340000  1.0 -0.309194254
O  O121  1  0.81060000  0.66170000  0.66860000  1.0 -0.452439278
O  O122  1  0.83490000  0.69330000  0.80990000  1.0 -0.4262494466
O  O123  1  0.78380000  0.73770000  0.80270000  1.0 -0.3957953884
O  O124  1  0.89490000  0.67030000  0.68370000  1.0 -0.4117126644
O  O125  1  0.89040000  0.63550000  0.83270000  1.0 -0.5269396848
O  O126  1  0.96120000  0.67150000  0.69400000  1.0 -0.4757272145
O  O127  1  0.60910000  0.18340000  0.82450000  1.0 -0.4757272145
O  O128  1  0.59810000  0.13880000  0.68590000  1.0 -0.457653465
O  O129  1  0.53750000  0.14560000  0.70340000  1.0 -0.309194254
O  O130  1  0.66170000  0.18940000  0.66860000  1.0 -0.452439278
O  O131  1  0.69330000  0.16510000  0.80990000  1.0 -0.4262494466
O  O132  1  0.73770000  0.21620000  0.80270000  1.0 -0.3957953884
O  O133  1  0.67030000  0.10510000  0.68370000  1.0 -0.4117126644
O  O134  1  0.63550000  0.10960000  0.83270000  1.0 -0.5269396848
O  O135  1  0.67150000  0.03880000  0.69400000  1.0 -0.4757272145
O  O136  1  0.39090000  0.81660000  0.82450000  1.0 -0.4757272145
O  O137  1  0.40190000  0.86120000  0.68590000  1.0 -0.457653465
O  O138  1  0.46250000  0.85440000  0.70340000  1.0 -0.309194254
O  O139  1  0.33830000  0.81060000  0.66860000  1.0 -0.452439278
O  O140  1  0.30670000  0.83490000  0.80990000  1.0 -0.4262494466
O  O141  1  0.26230000  0.78380000  0.80270000  1.0 -0.3957953884
O  O142  1  0.32970000  0.89490000  0.68370000  1.0 -0.4117126644
O  O143  1  0.36450000  0.89040000  0.83270000  1.0 -0.5269396848
O  O144  1  0.32850000  0.96120000  0.69400000  1.0 -0.4757272145
