# DDEC6 charges by PACMAN v1.1 (https://github.com/mtap-research/PACMAN-charge/)
data_JEBWIZ_FSR_pacman
_symmetry_space_group_name_H-M   'P 1'
_cell_length_a   35.92000000
_cell_length_b   35.92000000
_cell_length_c   15.35610000
_cell_angle_alpha   90.00000000
_cell_angle_beta   90.00000000
_cell_angle_gamma   90.00000000
_symmetry_Int_Tables_number   1
_chemical_formula_structural   Cu3Ni2H53Pd3C39N9O31
_chemical_formula_sum   'Cu24 Ni16 H424 Pd24 C312 N72 O248'
_cell_volume   19813.15274304
_cell_formula_units_Z   8
loop_
 _symmetry_equiv_pos_site_id
 _symmetry_equiv_pos_as_xyz
  1  'x, y, z'
loop_
 _atom_site_type_symbol
 _atom_site_label
 _atom_site_symmetry_multiplicity
 _atom_site_fract_x
 _atom_site_fract_y
 _atom_site_fract_z
 _atom_site_occupancy
 _atom_site_charge
Cu  Cu1  1  0.82907000  0.50000000  0.77409000  1.0 0.6022486187
Cu  Cu2  1  0.17093000  0.50000000  0.77409000  1.0 0.6022486187
Cu  Cu3  1  0.50000000  0.17093000  0.77409000  1.0 0.6022486187
Cu  Cu4  1  0.50000000  0.82907000  0.77409000  1.0 0.6053680874
Cu  Cu5  1  0.82907000  0.50000000  0.22591000  1.0 0.6022486187
Cu  Cu6  1  0.17093000  0.50000000  0.22591000  1.0 0.6022486187
Cu  Cu7  1  0.50000000  0.82907000  0.22591000  1.0 0.6022486187
Cu  Cu8  1  0.50000000  0.17093000  0.22591000  1.0 0.6022486187
Cu  Cu9  1  0.74459000  0.25541000  0.72680000  1.0 0.7691679954
Cu  Cu10  1  0.25541000  0.74459000  0.72680000  1.0 0.7691679954
Cu  Cu11  1  0.25541000  0.25541000  0.72680000  1.0 0.7691679954
Cu  Cu12  1  0.74459000  0.74459000  0.72680000  1.0 0.7691679954
Cu  Cu13  1  0.74459000  0.74459000  0.27320000  1.0 0.7691679954
Cu  Cu14  1  0.25541000  0.25541000  0.27320000  1.0 0.7691679954
Cu  Cu15  1  0.25541000  0.74459000  0.27320000  1.0 0.7691679954
Cu  Cu16  1  0.74459000  0.25541000  0.27320000  1.0 0.7691679954
Cu  Cu17  1  0.00000000  0.35153000  0.76840000  1.0 0.7691679954
Cu  Cu18  1  0.00000000  0.64847000  0.76840000  1.0 0.7691679954
Cu  Cu19  1  0.35153000  0.00000000  0.76840000  1.0 0.7691679954
Cu  Cu20  1  0.64847000  0.00000000  0.76840000  1.0 0.7691679954
Cu  Cu21  1  0.00000000  0.64847000  0.23160000  1.0 0.7691679954
Cu  Cu22  1  0.00000000  0.35153000  0.23160000  1.0 0.7691679954
Cu  Cu23  1  0.35153000  0.00000000  0.23160000  1.0 0.7691679954
Cu  Cu24  1  0.64847000  0.00000000  0.23160000  1.0 0.7691679954
Ni  Ni1  1  0.85124000  0.35481000  0.75142000  1.0 0.9572327718
Ni  Ni2  1  0.14876000  0.64519000  0.75142000  1.0 0.9572327718
Ni  Ni3  1  0.35481000  0.14876000  0.75142000  1.0 0.9572327718
Ni  Ni4  1  0.64519000  0.85124000  0.75142000  1.0 0.9572327718
Ni  Ni5  1  0.85124000  0.64519000  0.24858000  1.0 0.9572327718
Ni  Ni6  1  0.14876000  0.35481000  0.24858000  1.0 0.9572327718
Ni  Ni7  1  0.35481000  0.85124000  0.24858000  1.0 0.9572327718
Ni  Ni8  1  0.64519000  0.14876000  0.24858000  1.0 0.9572327718
Ni  Ni9  1  0.14876000  0.64519000  0.24858000  1.0 0.9572327718
Ni  Ni10  1  0.85124000  0.35481000  0.24858000  1.0 0.9572327718
Ni  Ni11  1  0.64519000  0.85124000  0.24858000  1.0 0.9572327718
Ni  Ni12  1  0.35481000  0.14876000  0.24858000  1.0 0.9572327718
Ni  Ni13  1  0.14876000  0.35481000  0.75142000  1.0 0.9572327718
Ni  Ni14  1  0.85124000  0.64519000  0.75142000  1.0 0.9572327718
Ni  Ni15  1  0.64519000  0.14876000  0.75142000  1.0 0.9572327718
Ni  Ni16  1  0.35481000  0.85124000  0.75142000  1.0 0.9572327718
H  H1  1  0.90500000  0.44070000  0.45160000  1.0 0.3084537484
H  H2  1  0.72490000  0.47290000  0.82160000  1.0 0.129642747
H  H3  1  0.75150000  0.43950000  0.79160000  1.0 0.1396431633
H  H4  1  0.71340000  0.43070000  0.84150000  1.0 0.129642747
H  H5  1  0.70140000  0.34480000  0.68960000  1.0 0.1168160747
H  H6  1  0.73690000  0.36980000  0.71330000  1.0 0.1491845994
H  H7  1  0.70250000  0.38780000  0.66250000  1.0 0.129642747
H  H8  1  0.96530000  0.47400000  0.85100000  1.0 0.1168160747
H  H9  1  0.97600000  0.43630000  0.80150000  1.0 0.129642747
H  H10  1  0.93380000  0.45050000  0.80160000  1.0 0.1396431633
H  H11  1  0.77330000  0.44150000  0.45760000  1.0 0.1491845994
H  H12  1  0.77500000  0.44880000  0.55270000  1.0 0.1588306909
H  H13  1  0.78210000  0.47950000  0.48980000  1.0 0.0986288218
H  H14  1  0.81440000  0.27360000  0.46500000  1.0 0.0677853323
H  H15  1  0.79890000  0.26360000  0.55990000  1.0 0.0534650228
H  H16  1  0.77710000  0.24960000  0.47510000  1.0 0.0180125082
H  H17  1  0.93460000  0.31790000  0.97880000  1.0 0.0400401476
H  H18  1  0.97850000  0.32010000  0.96180000  1.0 0.0099083321
H  H19  1  0.96280000  0.31930000  0.05940000  1.0 0.0400401476
H  H20  1  0.82680000  0.37820000  0.44420000  1.0 0.0986288218
H  H21  1  0.84900000  0.37430000  0.52530000  1.0 0.0986288218
H  H22  1  0.80830000  0.38150000  0.53050000  1.0 0.0986288218
H  H23  1  0.86890000  0.44160000  0.05310000  1.0 0.129642747
H  H24  1  0.86890000  0.44010000  0.94890000  1.0 0.129642747
H  H25  1  0.09500000  0.55930000  0.45160000  1.0 0.3084537484
H  H26  1  0.27510000  0.52710000  0.82160000  1.0 0.129642747
H  H27  1  0.24850000  0.56050000  0.79160000  1.0 0.1396431633
H  H28  1  0.28660000  0.56930000  0.84150000  1.0 0.129642747
H  H29  1  0.29860000  0.65520000  0.68960000  1.0 0.1168160747
H  H30  1  0.26310000  0.63020000  0.71330000  1.0 0.1491845994
H  H31  1  0.29750000  0.61220000  0.66250000  1.0 0.129642747
H  H32  1  0.03470000  0.52600000  0.85100000  1.0 0.1168160747
H  H33  1  0.02400000  0.56370000  0.80150000  1.0 0.129642747
H  H34  1  0.06620000  0.54950000  0.80160000  1.0 0.1396431633
H  H35  1  0.22670000  0.55850000  0.45760000  1.0 0.1491845994
H  H36  1  0.22500000  0.55120000  0.55270000  1.0 0.1588306909
H  H37  1  0.21790000  0.52050000  0.48980000  1.0 0.0986288218
H  H38  1  0.18560000  0.72640000  0.46500000  1.0 0.0677853323
H  H39  1  0.20110000  0.73640000  0.55990000  1.0 0.0534650228
H  H40  1  0.22290000  0.75040000  0.47510000  1.0 0.0180125082
H  H41  1  0.06540000  0.68210000  0.97880000  1.0 0.0400401476
H  H42  1  0.02150000  0.67990000  0.96180000  1.0 0.0099083321
H  H43  1  0.03720000  0.68070000  0.05940000  1.0 0.0400401476
H  H44  1  0.17320000  0.62180000  0.44420000  1.0 0.0986288218
H  H45  1  0.15100000  0.62570000  0.52530000  1.0 0.0986288218
H  H46  1  0.19170000  0.61850000  0.53050000  1.0 0.0986288218
H  H47  1  0.13110000  0.55840000  0.05310000  1.0 0.129642747
H  H48  1  0.13110000  0.55990000  0.94890000  1.0 0.129642747
H  H49  1  0.44070000  0.09500000  0.45160000  1.0 0.3084537484
H  H50  1  0.47290000  0.27510000  0.82160000  1.0 0.129642747
H  H51  1  0.43950000  0.24850000  0.79160000  1.0 0.1396431633
H  H52  1  0.43070000  0.28660000  0.84150000  1.0 0.129642747
H  H53  1  0.34480000  0.29860000  0.68960000  1.0 0.1168160747
H  H54  1  0.36980000  0.26310000  0.71330000  1.0 0.1491845994
H  H55  1  0.38780000  0.29750000  0.66250000  1.0 0.129642747
H  H56  1  0.47400000  0.03470000  0.85100000  1.0 0.1168160747
H  H57  1  0.43630000  0.02400000  0.80150000  1.0 0.129642747
H  H58  1  0.45050000  0.06620000  0.80160000  1.0 0.1396431633
H  H59  1  0.44150000  0.22670000  0.45760000  1.0 0.1491845994
H  H60  1  0.44880000  0.22500000  0.55270000  1.0 0.1588306909
H  H61  1  0.47950000  0.21790000  0.48980000  1.0 0.0986288218
H  H62  1  0.27360000  0.18560000  0.46500000  1.0 0.0677853323
H  H63  1  0.26360000  0.20110000  0.55990000  1.0 0.0534650228
H  H64  1  0.24960000  0.22290000  0.47510000  1.0 0.0180125082
H  H65  1  0.31790000  0.06540000  0.97880000  1.0 0.0400401476
H  H66  1  0.32010000  0.02150000  0.96180000  1.0 0.0099083321
H  H67  1  0.31930000  0.03720000  0.05940000  1.0 0.0400401476
H  H68  1  0.37820000  0.17320000  0.44420000  1.0 0.0986288218
H  H69  1  0.37430000  0.15100000  0.52530000  1.0 0.0986288218
H  H70  1  0.38150000  0.19170000  0.53050000  1.0 0.0986288218
H  H71  1  0.44160000  0.13110000  0.05310000  1.0 0.129642747
H  H72  1  0.44010000  0.13110000  0.94890000  1.0 0.129642747
H  H73  1  0.55930000  0.90500000  0.45160000  1.0 0.3084537484
H  H74  1  0.52710000  0.72490000  0.82160000  1.0 0.129642747
H  H75  1  0.56050000  0.75150000  0.79160000  1.0 0.1396431633
H  H76  1  0.56930000  0.71340000  0.84150000  1.0 0.129642747
H  H77  1  0.65520000  0.70140000  0.68960000  1.0 0.1168160747
H  H78  1  0.63020000  0.73690000  0.71330000  1.0 0.1491845994
H  H79  1  0.61220000  0.70250000  0.66250000  1.0 0.129642747
H  H80  1  0.52600000  0.96530000  0.85100000  1.0 0.1168160747
H  H81  1  0.56370000  0.97600000  0.80150000  1.0 0.129642747
H  H82  1  0.54950000  0.93380000  0.80160000  1.0 0.1396431633
H  H83  1  0.55850000  0.77330000  0.45760000  1.0 0.1491845994
H  H84  1  0.55120000  0.77500000  0.55270000  1.0 0.1588306909
H  H85  1  0.52050000  0.78210000  0.48980000  1.0 0.0986288218
H  H86  1  0.72640000  0.81440000  0.46500000  1.0 0.0677853323
H  H87  1  0.73640000  0.79890000  0.55990000  1.0 0.0534650228
H  H88  1  0.75040000  0.77710000  0.47510000  1.0 0.0180125082
H  H89  1  0.68210000  0.93460000  0.97880000  1.0 0.0400401476
H  H90  1  0.67990000  0.97850000  0.96180000  1.0 0.0099083321
H  H91  1  0.68070000  0.96280000  0.05940000  1.0 0.0400401476
H  H92  1  0.62180000  0.82680000  0.44420000  1.0 0.0986288218
H  H93  1  0.62570000  0.84900000  0.52530000  1.0 0.0986288218
H  H94  1  0.61850000  0.80830000  0.53050000  1.0 0.0986288218
H  H95  1  0.55840000  0.86890000  0.05310000  1.0 0.129642747
H  H96  1  0.55990000  0.86890000  0.94890000  1.0 0.129642747
H  H97  1  0.90500000  0.55930000  0.54840000  1.0 0.3084537484
H  H98  1  0.72490000  0.52710000  0.17840000  1.0 0.129642747
H  H99  1  0.75150000  0.56050000  0.20840000  1.0 0.1396431633
H  H100  1  0.71340000  0.56930000  0.15850000  1.0 0.129642747
H  H101  1  0.70140000  0.65520000  0.31040000  1.0 0.1168160747
H  H102  1  0.73690000  0.63020000  0.28670000  1.0 0.1491845994
H  H103  1  0.70250000  0.61220000  0.33750000  1.0 0.129642747
H  H104  1  0.96530000  0.52600000  0.14900000  1.0 0.1168160747
H  H105  1  0.97600000  0.56370000  0.19850000  1.0 0.129642747
H  H106  1  0.93380000  0.54950000  0.19840000  1.0 0.1396431633
H  H107  1  0.77330000  0.55850000  0.54240000  1.0 0.1491845994
H  H108  1  0.77500000  0.55120000  0.44730000  1.0 0.1588306909
H  H109  1  0.78210000  0.52050000  0.51020000  1.0 0.0986288218
H  H110  1  0.81440000  0.72640000  0.53500000  1.0 0.0677853323
H  H111  1  0.79890000  0.73640000  0.44010000  1.0 0.0534650228
H  H112  1  0.77710000  0.75040000  0.52490000  1.0 0.0180125082
H  H113  1  0.93460000  0.68210000  0.02120000  1.0 0.0400401476
H  H114  1  0.97850000  0.67990000  0.03820000  1.0 0.0099083321
H  H115  1  0.96280000  0.68070000  0.94060000  1.0 0.0400401476
H  H116  1  0.82680000  0.62180000  0.55580000  1.0 0.0986288218
H  H117  1  0.84900000  0.62570000  0.47470000  1.0 0.0986288218
H  H118  1  0.80830000  0.61850000  0.46950000  1.0 0.0986288218
H  H119  1  0.86890000  0.55840000  0.94690000  1.0 0.129642747
H  H120  1  0.86890000  0.55990000  0.05110000  1.0 0.129642747
H  H121  1  0.09500000  0.44070000  0.54840000  1.0 0.3084537484
H  H122  1  0.27510000  0.47290000  0.17840000  1.0 0.129642747
H  H123  1  0.24850000  0.43950000  0.20840000  1.0 0.1396431633
H  H124  1  0.28660000  0.43070000  0.15850000  1.0 0.129642747
H  H125  1  0.29860000  0.34480000  0.31040000  1.0 0.1168160747
H  H126  1  0.26310000  0.36980000  0.28670000  1.0 0.1491845994
H  H127  1  0.29750000  0.38780000  0.33750000  1.0 0.129642747
H  H128  1  0.03470000  0.47400000  0.14900000  1.0 0.1168160747
H  H129  1  0.02400000  0.43630000  0.19850000  1.0 0.129642747
H  H130  1  0.06620000  0.45050000  0.19840000  1.0 0.1396431633
H  H131  1  0.22670000  0.44150000  0.54240000  1.0 0.1491845994
H  H132  1  0.22500000  0.44880000  0.44730000  1.0 0.1588306909
H  H133  1  0.21790000  0.47950000  0.51020000  1.0 0.0986288218
H  H134  1  0.18560000  0.27360000  0.53500000  1.0 0.0677853323
H  H135  1  0.20110000  0.26360000  0.44010000  1.0 0.0534650228
H  H136  1  0.22290000  0.24960000  0.52490000  1.0 0.0180125082
H  H137  1  0.06540000  0.31790000  0.02120000  1.0 0.0400401476
H  H138  1  0.02150000  0.32010000  0.03820000  1.0 0.0099083321
H  H139  1  0.03720000  0.31930000  0.94060000  1.0 0.0400401476
H  H140  1  0.17320000  0.37820000  0.55580000  1.0 0.0986288218
H  H141  1  0.15100000  0.37430000  0.47470000  1.0 0.0986288218
H  H142  1  0.19170000  0.38150000  0.46950000  1.0 0.0986288218
H  H143  1  0.13110000  0.44160000  0.94690000  1.0 0.129642747
H  H144  1  0.13110000  0.44010000  0.05110000  1.0 0.129642747
H  H145  1  0.44070000  0.90500000  0.54840000  1.0 0.3084537484
H  H146  1  0.47290000  0.72490000  0.17840000  1.0 0.129642747
H  H147  1  0.43950000  0.75150000  0.20840000  1.0 0.1396431633
H  H148  1  0.43070000  0.71340000  0.15850000  1.0 0.129642747
H  H149  1  0.34480000  0.70140000  0.31040000  1.0 0.1168160747
H  H150  1  0.36980000  0.73690000  0.28670000  1.0 0.1491845994
H  H151  1  0.38780000  0.70250000  0.33750000  1.0 0.129642747
H  H152  1  0.47400000  0.96530000  0.14900000  1.0 0.1168160747
H  H153  1  0.43630000  0.97600000  0.19850000  1.0 0.129642747
H  H154  1  0.45050000  0.93380000  0.19840000  1.0 0.1396431633
H  H155  1  0.44150000  0.77330000  0.54240000  1.0 0.1491845994
H  H156  1  0.44880000  0.77500000  0.44730000  1.0 0.1588306909
H  H157  1  0.47950000  0.78210000  0.51020000  1.0 0.0986288218
H  H158  1  0.27360000  0.81440000  0.53500000  1.0 0.0677853323
H  H159  1  0.26360000  0.79890000  0.44010000  1.0 0.0534650228
H  H160  1  0.24960000  0.77710000  0.52490000  1.0 0.0180125082
H  H161  1  0.31790000  0.93460000  0.02120000  1.0 0.0400401476
H  H162  1  0.32010000  0.97850000  0.03820000  1.0 0.0099083321
H  H163  1  0.31930000  0.96280000  0.94060000  1.0 0.0400401476
H  H164  1  0.37820000  0.82680000  0.55580000  1.0 0.0986288218
H  H165  1  0.37430000  0.84900000  0.47470000  1.0 0.0986288218
H  H166  1  0.38150000  0.80830000  0.46950000  1.0 0.0986288218
H  H167  1  0.44160000  0.86890000  0.94690000  1.0 0.129642747
H  H168  1  0.44010000  0.86890000  0.05110000  1.0 0.129642747
H  H169  1  0.55930000  0.09500000  0.54840000  1.0 0.3084537484
H  H170  1  0.52710000  0.27510000  0.17840000  1.0 0.129642747
H  H171  1  0.56050000  0.24850000  0.20840000  1.0 0.1396431633
H  H172  1  0.56930000  0.28660000  0.15850000  1.0 0.129642747
H  H173  1  0.65520000  0.29860000  0.31040000  1.0 0.1168160747
H  H174  1  0.63020000  0.26310000  0.28670000  1.0 0.1491845994
H  H175  1  0.61220000  0.29750000  0.33750000  1.0 0.129642747
H  H176  1  0.52600000  0.03470000  0.14900000  1.0 0.1168160747
H  H177  1  0.56370000  0.02400000  0.19850000  1.0 0.129642747
H  H178  1  0.54950000  0.06620000  0.19840000  1.0 0.1396431633
H  H179  1  0.55850000  0.22670000  0.54240000  1.0 0.1491845994
H  H180  1  0.55120000  0.22500000  0.44730000  1.0 0.1588306909
H  H181  1  0.52050000  0.21790000  0.51020000  1.0 0.0986288218
H  H182  1  0.72640000  0.18560000  0.53500000  1.0 0.0677853323
H  H183  1  0.73640000  0.20110000  0.44010000  1.0 0.0534650228
H  H184  1  0.75040000  0.22290000  0.52490000  1.0 0.0180125082
H  H185  1  0.68210000  0.06540000  0.02120000  1.0 0.0400401476
H  H186  1  0.67990000  0.02150000  0.03820000  1.0 0.0099083321
H  H187  1  0.68070000  0.03720000  0.94060000  1.0 0.0400401476
H  H188  1  0.62180000  0.17320000  0.55580000  1.0 0.0986288218
H  H189  1  0.62570000  0.15100000  0.47470000  1.0 0.0986288218
H  H190  1  0.61850000  0.19170000  0.46950000  1.0 0.0986288218
H  H191  1  0.55840000  0.13110000  0.94690000  1.0 0.129642747
H  H192  1  0.55990000  0.13110000  0.05110000  1.0 0.129642747
H  H193  1  0.09500000  0.55930000  0.54840000  1.0 0.3084537484
H  H194  1  0.27510000  0.52710000  0.17840000  1.0 0.129642747
H  H195  1  0.24850000  0.56050000  0.20840000  1.0 0.1396431633
H  H196  1  0.28660000  0.56930000  0.15850000  1.0 0.129642747
H  H197  1  0.29860000  0.65520000  0.31040000  1.0 0.1168160747
H  H198  1  0.26310000  0.63020000  0.28670000  1.0 0.1491845994
H  H199  1  0.29750000  0.61220000  0.33750000  1.0 0.129642747
H  H200  1  0.03470000  0.52600000  0.14900000  1.0 0.1168160747
H  H201  1  0.02400000  0.56370000  0.19850000  1.0 0.129642747
H  H202  1  0.06620000  0.54950000  0.19840000  1.0 0.1396431633
H  H203  1  0.22670000  0.55850000  0.54240000  1.0 0.1491845994
H  H204  1  0.22500000  0.55120000  0.44730000  1.0 0.1588306909
H  H205  1  0.21790000  0.52050000  0.51020000  1.0 0.0986288218
H  H206  1  0.18560000  0.72640000  0.53500000  1.0 0.0677853323
H  H207  1  0.20110000  0.73640000  0.44010000  1.0 0.0534650228
H  H208  1  0.22290000  0.75040000  0.52490000  1.0 0.0180125082
H  H209  1  0.06540000  0.68210000  0.02120000  1.0 0.0400401476
H  H210  1  0.02150000  0.67990000  0.03820000  1.0 0.0099083321
H  H211  1  0.03720000  0.68070000  0.94060000  1.0 0.0400401476
H  H212  1  0.17320000  0.62180000  0.55580000  1.0 0.0986288218
H  H213  1  0.15100000  0.62570000  0.47470000  1.0 0.0986288218
H  H214  1  0.19170000  0.61850000  0.46950000  1.0 0.0986288218
H  H215  1  0.13110000  0.55840000  0.94690000  1.0 0.129642747
H  H216  1  0.13110000  0.55990000  0.05110000  1.0 0.129642747
H  H217  1  0.90500000  0.44070000  0.54840000  1.0 0.3084537484
H  H218  1  0.72490000  0.47290000  0.17840000  1.0 0.129642747
H  H219  1  0.75150000  0.43950000  0.20840000  1.0 0.1396431633
H  H220  1  0.71340000  0.43070000  0.15850000  1.0 0.129642747
H  H221  1  0.70140000  0.34480000  0.31040000  1.0 0.1168160747
H  H222  1  0.73690000  0.36980000  0.28670000  1.0 0.1491845994
H  H223  1  0.70250000  0.38780000  0.33750000  1.0 0.129642747
H  H224  1  0.96530000  0.47400000  0.14900000  1.0 0.1168160747
H  H225  1  0.97600000  0.43630000  0.19850000  1.0 0.129642747
H  H226  1  0.93380000  0.45050000  0.19840000  1.0 0.1396431633
H  H227  1  0.77330000  0.44150000  0.54240000  1.0 0.1491845994
H  H228  1  0.77500000  0.44880000  0.44730000  1.0 0.1588306909
H  H229  1  0.78210000  0.47950000  0.51020000  1.0 0.0986288218
H  H230  1  0.81440000  0.27360000  0.53500000  1.0 0.0677853323
H  H231  1  0.79890000  0.26360000  0.44010000  1.0 0.0534650228
H  H232  1  0.77710000  0.24960000  0.52490000  1.0 0.0180125082
H  H233  1  0.93460000  0.31790000  0.02120000  1.0 0.0400401476
H  H234  1  0.97850000  0.32010000  0.03820000  1.0 0.0099083321
H  H235  1  0.96280000  0.31930000  0.94060000  1.0 0.0400401476
H  H236  1  0.82680000  0.37820000  0.55580000  1.0 0.0986288218
H  H237  1  0.84900000  0.37430000  0.47470000  1.0 0.0986288218
H  H238  1  0.80830000  0.38150000  0.46950000  1.0 0.0986288218
H  H239  1  0.86890000  0.44160000  0.94690000  1.0 0.129642747
H  H240  1  0.86890000  0.44010000  0.05110000  1.0 0.129642747
H  H241  1  0.55930000  0.90500000  0.54840000  1.0 0.3084537484
H  H242  1  0.52710000  0.72490000  0.17840000  1.0 0.129642747
H  H243  1  0.56050000  0.75150000  0.20840000  1.0 0.1396431633
H  H244  1  0.56930000  0.71340000  0.15850000  1.0 0.129642747
H  H245  1  0.65520000  0.70140000  0.31040000  1.0 0.1168160747
H  H246  1  0.63020000  0.73690000  0.28670000  1.0 0.1491845994
H  H247  1  0.61220000  0.70250000  0.33750000  1.0 0.129642747
H  H248  1  0.52600000  0.96530000  0.14900000  1.0 0.1168160747
H  H249  1  0.56370000  0.97600000  0.19850000  1.0 0.129642747
H  H250  1  0.54950000  0.93380000  0.19840000  1.0 0.1396431633
H  H251  1  0.55850000  0.77330000  0.54240000  1.0 0.1491845994
H  H252  1  0.55120000  0.77500000  0.44730000  1.0 0.1588306909
H  H253  1  0.52050000  0.78210000  0.51020000  1.0 0.0986288218
H  H254  1  0.72640000  0.81440000  0.53500000  1.0 0.0677853323
H  H255  1  0.73640000  0.79890000  0.44010000  1.0 0.0534650228
H  H256  1  0.75040000  0.77710000  0.52490000  1.0 0.0180125082
H  H257  1  0.68210000  0.93460000  0.02120000  1.0 0.0400401476
H  H258  1  0.67990000  0.97850000  0.03820000  1.0 0.0099083321
H  H259  1  0.68070000  0.96280000  0.94060000  1.0 0.0400401476
H  H260  1  0.62180000  0.82680000  0.55580000  1.0 0.0986288218
H  H261  1  0.62570000  0.84900000  0.47470000  1.0 0.0986288218
H  H262  1  0.61850000  0.80830000  0.46950000  1.0 0.0986288218
H  H263  1  0.55840000  0.86890000  0.94690000  1.0 0.129642747
H  H264  1  0.55990000  0.86890000  0.05110000  1.0 0.129642747
H  H265  1  0.44070000  0.09500000  0.54840000  1.0 0.3084537484
H  H266  1  0.47290000  0.27510000  0.17840000  1.0 0.129642747
H  H267  1  0.43950000  0.24850000  0.20840000  1.0 0.1396431633
H  H268  1  0.43070000  0.28660000  0.15850000  1.0 0.129642747
H  H269  1  0.34480000  0.29860000  0.31040000  1.0 0.1168160747
H  H270  1  0.36980000  0.26310000  0.28670000  1.0 0.1491845994
H  H271  1  0.38780000  0.29750000  0.33750000  1.0 0.129642747
H  H272  1  0.47400000  0.03470000  0.14900000  1.0 0.1168160747
H  H273  1  0.43630000  0.02400000  0.19850000  1.0 0.129642747
H  H274  1  0.45050000  0.06620000  0.19840000  1.0 0.1396431633
H  H275  1  0.44150000  0.22670000  0.54240000  1.0 0.1491845994
H  H276  1  0.44880000  0.22500000  0.44730000  1.0 0.1588306909
H  H277  1  0.47950000  0.21790000  0.51020000  1.0 0.0986288218
H  H278  1  0.27360000  0.18560000  0.53500000  1.0 0.0677853323
H  H279  1  0.26360000  0.20110000  0.44010000  1.0 0.0534650228
H  H280  1  0.24960000  0.22290000  0.52490000  1.0 0.0180125082
H  H281  1  0.31790000  0.06540000  0.02120000  1.0 0.0400401476
H  H282  1  0.32010000  0.02150000  0.03820000  1.0 0.0099083321
H  H283  1  0.31930000  0.03720000  0.94060000  1.0 0.0400401476
H  H284  1  0.37820000  0.17320000  0.55580000  1.0 0.0986288218
H  H285  1  0.37430000  0.15100000  0.47470000  1.0 0.0986288218
H  H286  1  0.38150000  0.19170000  0.46950000  1.0 0.0986288218
H  H287  1  0.44160000  0.13110000  0.94690000  1.0 0.129642747
H  H288  1  0.44010000  0.13110000  0.05110000  1.0 0.129642747
H  H289  1  0.09500000  0.44070000  0.45160000  1.0 0.3084537484
H  H290  1  0.27510000  0.47290000  0.82160000  1.0 0.129642747
H  H291  1  0.24850000  0.43950000  0.79160000  1.0 0.1396431633
H  H292  1  0.28660000  0.43070000  0.84150000  1.0 0.129642747
H  H293  1  0.29860000  0.34480000  0.68960000  1.0 0.1168160747
H  H294  1  0.26310000  0.36980000  0.71330000  1.0 0.1491845994
H  H295  1  0.29750000  0.38780000  0.66250000  1.0 0.129642747
H  H296  1  0.03470000  0.47400000  0.85100000  1.0 0.1168160747
H  H297  1  0.02400000  0.43630000  0.80150000  1.0 0.129642747
H  H298  1  0.06620000  0.45050000  0.80160000  1.0 0.1396431633
H  H299  1  0.22670000  0.44150000  0.45760000  1.0 0.1491845994
H  H300  1  0.22500000  0.44880000  0.55270000  1.0 0.1588306909
H  H301  1  0.21790000  0.47950000  0.48980000  1.0 0.0986288218
H  H302  1  0.18560000  0.27360000  0.46500000  1.0 0.0677853323
H  H303  1  0.20110000  0.26360000  0.55990000  1.0 0.0534650228
H  H304  1  0.22290000  0.24960000  0.47510000  1.0 0.0180125082
H  H305  1  0.06540000  0.31790000  0.97880000  1.0 0.0400401476
H  H306  1  0.02150000  0.32010000  0.96180000  1.0 0.0099083321
H  H307  1  0.03720000  0.31930000  0.05940000  1.0 0.0400401476
H  H308  1  0.17320000  0.37820000  0.44420000  1.0 0.0986288218
H  H309  1  0.15100000  0.37430000  0.52530000  1.0 0.0986288218
H  H310  1  0.19170000  0.38150000  0.53050000  1.0 0.0986288218
H  H311  1  0.13110000  0.44160000  0.05310000  1.0 0.129642747
H  H312  1  0.13110000  0.44010000  0.94890000  1.0 0.129642747
H  H313  1  0.90500000  0.55930000  0.45160000  1.0 0.3084537484
H  H314  1  0.72490000  0.52710000  0.82160000  1.0 0.129642747
H  H315  1  0.75150000  0.56050000  0.79160000  1.0 0.1396431633
H  H316  1  0.71340000  0.56930000  0.84150000  1.0 0.129642747
H  H317  1  0.70140000  0.65520000  0.68960000  1.0 0.1168160747
H  H318  1  0.73690000  0.63020000  0.71330000  1.0 0.1491845994
H  H319  1  0.70250000  0.61220000  0.66250000  1.0 0.129642747
H  H320  1  0.96530000  0.52600000  0.85100000  1.0 0.1168160747
H  H321  1  0.97600000  0.56370000  0.80150000  1.0 0.129642747
H  H322  1  0.93380000  0.54950000  0.80160000  1.0 0.1396431633
H  H323  1  0.77330000  0.55850000  0.45760000  1.0 0.1491845994
H  H324  1  0.77500000  0.55120000  0.55270000  1.0 0.1588306909
H  H325  1  0.78210000  0.52050000  0.48980000  1.0 0.0986288218
H  H326  1  0.81440000  0.72640000  0.46500000  1.0 0.0677853323
H  H327  1  0.79890000  0.73640000  0.55990000  1.0 0.0534650228
H  H328  1  0.77710000  0.75040000  0.47510000  1.0 0.0180125082
H  H329  1  0.93460000  0.68210000  0.97880000  1.0 0.0400401476
H  H330  1  0.97850000  0.67990000  0.96180000  1.0 0.0099083321
H  H331  1  0.96280000  0.68070000  0.05940000  1.0 0.0400401476
H  H332  1  0.82680000  0.62180000  0.44420000  1.0 0.0986288218
H  H333  1  0.84900000  0.62570000  0.52530000  1.0 0.0986288218
H  H334  1  0.80830000  0.61850000  0.53050000  1.0 0.0986288218
H  H335  1  0.86890000  0.55840000  0.05310000  1.0 0.129642747
H  H336  1  0.86890000  0.55990000  0.94890000  1.0 0.129642747
H  H337  1  0.55930000  0.09500000  0.45160000  1.0 0.3084537484
H  H338  1  0.52710000  0.27510000  0.82160000  1.0 0.129642747
H  H339  1  0.56050000  0.24850000  0.79160000  1.0 0.1396431633
H  H340  1  0.56930000  0.28660000  0.84150000  1.0 0.129642747
H  H341  1  0.65520000  0.29860000  0.68960000  1.0 0.1168160747
H  H342  1  0.63020000  0.26310000  0.71330000  1.0 0.1491845994
H  H343  1  0.61220000  0.29750000  0.66250000  1.0 0.129642747
H  H344  1  0.52600000  0.03470000  0.85100000  1.0 0.1168160747
H  H345  1  0.56370000  0.02400000  0.80150000  1.0 0.129642747
H  H346  1  0.54950000  0.06620000  0.80160000  1.0 0.1396431633
H  H347  1  0.55850000  0.22670000  0.45760000  1.0 0.1491845994
H  H348  1  0.55120000  0.22500000  0.55270000  1.0 0.1588306909
H  H349  1  0.52050000  0.21790000  0.48980000  1.0 0.0986288218
H  H350  1  0.72640000  0.18560000  0.46500000  1.0 0.0677853323
H  H351  1  0.73640000  0.20110000  0.55990000  1.0 0.0534650228
H  H352  1  0.75040000  0.22290000  0.47510000  1.0 0.0180125082
H  H353  1  0.68210000  0.06540000  0.97880000  1.0 0.0400401476
H  H354  1  0.67990000  0.02150000  0.96180000  1.0 0.0099083321
H  H355  1  0.68070000  0.03720000  0.05940000  1.0 0.0400401476
H  H356  1  0.62180000  0.17320000  0.44420000  1.0 0.0986288218
H  H357  1  0.62570000  0.15100000  0.52530000  1.0 0.0986288218
H  H358  1  0.61850000  0.19170000  0.53050000  1.0 0.0986288218
H  H359  1  0.55840000  0.13110000  0.05310000  1.0 0.129642747
H  H360  1  0.55990000  0.13110000  0.94890000  1.0 0.129642747
H  H361  1  0.44070000  0.90500000  0.45160000  1.0 0.3084537484
H  H362  1  0.47290000  0.72490000  0.82160000  1.0 0.129642747
H  H363  1  0.43950000  0.75150000  0.79160000  1.0 0.1396431633
H  H364  1  0.43070000  0.71340000  0.84150000  1.0 0.129642747
H  H365  1  0.34480000  0.70140000  0.68960000  1.0 0.1168160747
H  H366  1  0.36980000  0.73690000  0.71330000  1.0 0.1491845994
H  H367  1  0.38780000  0.70250000  0.66250000  1.0 0.129642747
H  H368  1  0.47400000  0.96530000  0.85100000  1.0 0.1168160747
H  H369  1  0.43630000  0.97600000  0.80150000  1.0 0.129642747
H  H370  1  0.45050000  0.93380000  0.80160000  1.0 0.1396431633
H  H371  1  0.44150000  0.77330000  0.45760000  1.0 0.1491845994
H  H372  1  0.44880000  0.77500000  0.55270000  1.0 0.1588306909
H  H373  1  0.47950000  0.78210000  0.48980000  1.0 0.0986288218
H  H374  1  0.27360000  0.81440000  0.46500000  1.0 0.0677853323
H  H375  1  0.26360000  0.79890000  0.55990000  1.0 0.0534650228
H  H376  1  0.24960000  0.77710000  0.47510000  1.0 0.0180125082
H  H377  1  0.31790000  0.93460000  0.97880000  1.0 0.0400401476
H  H378  1  0.32010000  0.97850000  0.96180000  1.0 0.0099083321
H  H379  1  0.31930000  0.96280000  0.05940000  1.0 0.0400401476
H  H380  1  0.37820000  0.82680000  0.44420000  1.0 0.0986288218
H  H381  1  0.37430000  0.84900000  0.52530000  1.0 0.0986288218
H  H382  1  0.38150000  0.80830000  0.53050000  1.0 0.0986288218
H  H383  1  0.44160000  0.86890000  0.05310000  1.0 0.129642747
H  H384  1  0.44010000  0.86890000  0.94890000  1.0 0.129642747
H  H385  1  0.89770000  0.40560000  0.50000000  1.0 0.2931759123
H  H386  1  0.71750000  0.39460000  0.50000000  1.0 0.1588306909
H  H387  1  0.10230000  0.59440000  0.50000000  1.0 0.2931759123
H  H388  1  0.28250000  0.60540000  0.50000000  1.0 0.1588306909
H  H389  1  0.40560000  0.10230000  0.50000000  1.0 0.2931759123
H  H390  1  0.39460000  0.28250000  0.50000000  1.0 0.1588306909
H  H391  1  0.59440000  0.89770000  0.50000000  1.0 0.2931759123
H  H392  1  0.60540000  0.71750000  0.50000000  1.0 0.1588306909
H  H393  1  0.89770000  0.59440000  0.50000000  1.0 0.2931759123
H  H394  1  0.71750000  0.60540000  0.50000000  1.0 0.1588306909
H  H395  1  0.10230000  0.40560000  0.50000000  1.0 0.2931759123
H  H396  1  0.28250000  0.39460000  0.50000000  1.0 0.1588306909
H  H397  1  0.40560000  0.89770000  0.50000000  1.0 0.2931759123
H  H398  1  0.39460000  0.71750000  0.50000000  1.0 0.1588306909
H  H399  1  0.59440000  0.10230000  0.50000000  1.0 0.2931759123
H  H400  1  0.60540000  0.28250000  0.50000000  1.0 0.1588306909
H  H401  1  0.70860000  0.44890000  0.00000000  1.0 0.1396431633
H  H402  1  0.92030000  0.45920000  0.00000000  1.0 0.1168160747
H  H403  1  0.86880000  0.47940000  0.00000000  1.0 0.0796953481
H  H404  1  0.29140000  0.55110000  0.00000000  1.0 0.1396431633
H  H405  1  0.07970000  0.54080000  0.00000000  1.0 0.1168160747
H  H406  1  0.13120000  0.52060000  0.00000000  1.0 0.0796953481
H  H407  1  0.44890000  0.29140000  0.00000000  1.0 0.1396431633
H  H408  1  0.45920000  0.07970000  0.00000000  1.0 0.1168160747
H  H409  1  0.47940000  0.13120000  0.00000000  1.0 0.0796953481
H  H410  1  0.55110000  0.70860000  0.00000000  1.0 0.1396431633
H  H411  1  0.54080000  0.92030000  0.00000000  1.0 0.1168160747
H  H412  1  0.52060000  0.86880000  0.00000000  1.0 0.0796953481
H  H413  1  0.70860000  0.55110000  0.00000000  1.0 0.1396431633
H  H414  1  0.92030000  0.54080000  0.00000000  1.0 0.1168160747
H  H415  1  0.86880000  0.52060000  0.00000000  1.0 0.0796953481
H  H416  1  0.29140000  0.44890000  0.00000000  1.0 0.1396431633
H  H417  1  0.07970000  0.45920000  0.00000000  1.0 0.1168160747
H  H418  1  0.13120000  0.47940000  0.00000000  1.0 0.0796953481
H  H419  1  0.44890000  0.70860000  0.00000000  1.0 0.1396431633
H  H420  1  0.45920000  0.92030000  0.00000000  1.0 0.1168160747
H  H421  1  0.47940000  0.86880000  0.00000000  1.0 0.0796953481
H  H422  1  0.55110000  0.29140000  0.00000000  1.0 0.1396431633
H  H423  1  0.54080000  0.07970000  0.00000000  1.0 0.1168160747
H  H424  1  0.52060000  0.13120000  0.00000000  1.0 0.0796953481
Pd  Pd1  1  0.83935000  0.44207000  0.50000000  1.0 0.4895307891
Pd  Pd2  1  0.82990000  0.18810000  0.50000000  1.0 -0.0776559465
Pd  Pd3  1  0.16065000  0.55793000  0.50000000  1.0 0.4895307891
Pd  Pd4  1  0.17010000  0.81190000  0.50000000  1.0 -0.0776559465
Pd  Pd5  1  0.44207000  0.16065000  0.50000000  1.0 0.4895307891
Pd  Pd6  1  0.18810000  0.17010000  0.50000000  1.0 -0.0776559465
Pd  Pd7  1  0.55793000  0.83935000  0.50000000  1.0 0.4895307891
Pd  Pd8  1  0.81190000  0.82990000  0.50000000  1.0 -0.0776559465
Pd  Pd9  1  0.83935000  0.55793000  0.50000000  1.0 0.4895307891
Pd  Pd10  1  0.82990000  0.81190000  0.50000000  1.0 -0.0776559465
Pd  Pd11  1  0.16065000  0.44207000  0.50000000  1.0 0.4895307891
Pd  Pd12  1  0.17010000  0.18810000  0.50000000  1.0 -0.0776559465
Pd  Pd13  1  0.44207000  0.83935000  0.50000000  1.0 0.4895307891
Pd  Pd14  1  0.18810000  0.82990000  0.50000000  1.0 -0.0776559465
Pd  Pd15  1  0.55793000  0.16065000  0.50000000  1.0 0.4895307891
Pd  Pd16  1  0.81190000  0.17010000  0.50000000  1.0 -0.0776559465
Pd  Pd17  1  0.83710000  0.23260000  0.00000000  1.0 0.5078701772
Pd  Pd18  1  0.16290000  0.76740000  0.00000000  1.0 0.5078701772
Pd  Pd19  1  0.23260000  0.16290000  0.00000000  1.0 0.5078701772
Pd  Pd20  1  0.76740000  0.83710000  0.00000000  1.0 0.5078701772
Pd  Pd21  1  0.83710000  0.76740000  0.00000000  1.0 0.5078701772
Pd  Pd22  1  0.16290000  0.23260000  0.00000000  1.0 0.5078701772
Pd  Pd23  1  0.23260000  0.83710000  0.00000000  1.0 0.5078701772
Pd  Pd24  1  0.76740000  0.16290000  0.00000000  1.0 0.5078701772
C  C1  1  0.84860000  0.43210000  0.72380000  1.0 0.4279476557
C  C2  1  0.82520000  0.42680000  0.80440000  1.0 0.302727439
C  C3  1  0.80570000  0.29260000  0.77870000  1.0 0.4794773724
C  C4  1  0.78860000  0.31010000  0.69020000  1.0 0.2931759123
C  C5  1  0.92810000  0.35630000  0.80990000  1.0 0.3424640804
C  C6  1  0.92490000  0.33630000  0.71900000  1.0 0.4617928363
C  C7  1  0.79420000  0.45240000  0.92350000  1.0 0.0986288218
C  C8  1  0.75350000  0.44950000  0.92010000  1.0 0.129642747
C  C9  1  0.73490000  0.44780000  0.83750000  1.0 -0.4328569217
C  C10  1  0.75600000  0.31810000  0.57950000  1.0 0.0796953481
C  C11  1  0.73400000  0.35450000  0.58040000  1.0 0.1396431633
C  C12  1  0.72150000  0.36880000  0.68100000  1.0 -0.4153263622
C  C13  1  0.96090000  0.38600000  0.92110000  1.0 0.0534650228
C  C14  1  0.94940000  0.42580000  0.92230000  1.0 0.1396431633
C  C15  1  0.95730000  0.44800000  0.83400000  1.0 -0.4328569217
C  C16  1  0.15140000  0.56790000  0.72380000  1.0 0.4279476557
C  C17  1  0.17480000  0.57320000  0.80440000  1.0 0.302727439
C  C18  1  0.19430000  0.70740000  0.77870000  1.0 0.4794773724
C  C19  1  0.21140000  0.68990000  0.69020000  1.0 0.2931759123
C  C20  1  0.07190000  0.64370000  0.80990000  1.0 0.3424640804
C  C21  1  0.07510000  0.66370000  0.71900000  1.0 0.4617928363
C  C22  1  0.20580000  0.54760000  0.92350000  1.0 0.0986288218
C  C23  1  0.24650000  0.55050000  0.92010000  1.0 0.129642747
C  C24  1  0.26510000  0.55220000  0.83750000  1.0 -0.4328569217
C  C25  1  0.24400000  0.68190000  0.57950000  1.0 0.0796953481
C  C26  1  0.26600000  0.64550000  0.58040000  1.0 0.1396431633
C  C27  1  0.27850000  0.63120000  0.68100000  1.0 -0.4153263622
C  C28  1  0.03910000  0.61400000  0.92110000  1.0 0.0534650228
C  C29  1  0.05060000  0.57420000  0.92230000  1.0 0.1396431633
C  C30  1  0.04270000  0.55200000  0.83400000  1.0 -0.4328569217
C  C31  1  0.43210000  0.15140000  0.72380000  1.0 0.4279476557
C  C32  1  0.42680000  0.17480000  0.80440000  1.0 0.302727439
C  C33  1  0.29260000  0.19430000  0.77870000  1.0 0.4794773724
C  C34  1  0.31010000  0.21140000  0.69020000  1.0 0.2931759123
C  C35  1  0.35630000  0.07190000  0.80990000  1.0 0.3424640804
C  C36  1  0.33630000  0.07510000  0.71900000  1.0 0.4617928363
C  C37  1  0.45240000  0.20580000  0.92350000  1.0 0.0986288218
C  C38  1  0.44950000  0.24650000  0.92010000  1.0 0.129642747
C  C39  1  0.44780000  0.26510000  0.83750000  1.0 -0.4328569217
C  C40  1  0.31810000  0.24400000  0.57950000  1.0 0.0796953481
C  C41  1  0.35450000  0.26600000  0.58040000  1.0 0.1396431633
C  C42  1  0.36880000  0.27850000  0.68100000  1.0 -0.4153263622
C  C43  1  0.38600000  0.03910000  0.92110000  1.0 0.0534650228
C  C44  1  0.42580000  0.05060000  0.92230000  1.0 0.1396431633
C  C45  1  0.44800000  0.04270000  0.83400000  1.0 -0.4328569217
C  C46  1  0.56790000  0.84860000  0.72380000  1.0 0.4279476557
C  C47  1  0.57320000  0.82520000  0.80440000  1.0 0.302727439
C  C48  1  0.70740000  0.80570000  0.77870000  1.0 0.4794773724
C  C49  1  0.68990000  0.78860000  0.69020000  1.0 0.2931759123
C  C50  1  0.64370000  0.92810000  0.80990000  1.0 0.3424640804
C  C51  1  0.66370000  0.92490000  0.71900000  1.0 0.4617928363
C  C52  1  0.54760000  0.79420000  0.92350000  1.0 0.0986288218
C  C53  1  0.55050000  0.75350000  0.92010000  1.0 0.129642747
C  C54  1  0.55220000  0.73490000  0.83750000  1.0 -0.4328569217
C  C55  1  0.68190000  0.75600000  0.57950000  1.0 0.0796953481
C  C56  1  0.64550000  0.73400000  0.58040000  1.0 0.1396431633
C  C57  1  0.63120000  0.72150000  0.68100000  1.0 -0.4153263622
C  C58  1  0.61400000  0.96090000  0.92110000  1.0 0.0534650228
C  C59  1  0.57420000  0.94940000  0.92230000  1.0 0.1396431633
C  C60  1  0.55200000  0.95730000  0.83400000  1.0 -0.4328569217
C  C61  1  0.84860000  0.56790000  0.27620000  1.0 0.4279476557
C  C62  1  0.82520000  0.57320000  0.19560000  1.0 0.302727439
C  C63  1  0.80570000  0.70740000  0.22130000  1.0 0.4794773724
C  C64  1  0.78860000  0.68990000  0.30980000  1.0 0.2931759123
C  C65  1  0.92810000  0.64370000  0.19010000  1.0 0.3424640804
C  C66  1  0.92490000  0.66370000  0.28100000  1.0 0.4617928363
C  C67  1  0.79420000  0.54760000  0.07650000  1.0 0.0986288218
C  C68  1  0.75350000  0.55050000  0.07990000  1.0 0.129642747
C  C69  1  0.73490000  0.55220000  0.16250000  1.0 -0.4328569217
C  C70  1  0.75600000  0.68190000  0.42050000  1.0 0.0796953481
C  C71  1  0.73400000  0.64550000  0.41960000  1.0 0.1396431633
C  C72  1  0.72150000  0.63120000  0.31900000  1.0 -0.4153263622
C  C73  1  0.96090000  0.61400000  0.07890000  1.0 0.0534650228
C  C74  1  0.94940000  0.57420000  0.07770000  1.0 0.1396431633
C  C75  1  0.95730000  0.55200000  0.16600000  1.0 -0.4328569217
C  C76  1  0.15140000  0.43210000  0.27620000  1.0 0.4279476557
C  C77  1  0.17480000  0.42680000  0.19560000  1.0 0.302727439
C  C78  1  0.19430000  0.29260000  0.22130000  1.0 0.4794773724
C  C79  1  0.21140000  0.31010000  0.30980000  1.0 0.2931759123
C  C80  1  0.07190000  0.35630000  0.19010000  1.0 0.3424640804
C  C81  1  0.07510000  0.33630000  0.28100000  1.0 0.4617928363
C  C82  1  0.20580000  0.45240000  0.07650000  1.0 0.0986288218
C  C83  1  0.24650000  0.44950000  0.07990000  1.0 0.129642747
C  C84  1  0.26510000  0.44780000  0.16250000  1.0 -0.4328569217
C  C85  1  0.24400000  0.31810000  0.42050000  1.0 0.0796953481
C  C86  1  0.26600000  0.35450000  0.41960000  1.0 0.1396431633
C  C87  1  0.27850000  0.36880000  0.31900000  1.0 -0.4153263622
C  C88  1  0.03910000  0.38600000  0.07890000  1.0 0.0534650228
C  C89  1  0.05060000  0.42580000  0.07770000  1.0 0.1396431633
C  C90  1  0.04270000  0.44800000  0.16600000  1.0 -0.4328569217
C  C91  1  0.43210000  0.84860000  0.27620000  1.0 0.4279476557
C  C92  1  0.42680000  0.82520000  0.19560000  1.0 0.302727439
C  C93  1  0.29260000  0.80570000  0.22130000  1.0 0.4794773724
C  C94  1  0.31010000  0.78860000  0.30980000  1.0 0.302727439
C  C95  1  0.35630000  0.92810000  0.19010000  1.0 0.3424640804
C  C96  1  0.33630000  0.92490000  0.28100000  1.0 0.4617928363
C  C97  1  0.45240000  0.79420000  0.07650000  1.0 0.0986288218
C  C98  1  0.44950000  0.75350000  0.07990000  1.0 0.129642747
C  C99  1  0.44780000  0.73490000  0.16250000  1.0 -0.4328569217
C  C100  1  0.31810000  0.75600000  0.42050000  1.0 0.0796953481
C  C101  1  0.35450000  0.73400000  0.41960000  1.0 0.1396431633
C  C102  1  0.36880000  0.72150000  0.31900000  1.0 -0.4153263622
C  C103  1  0.38600000  0.96090000  0.07890000  1.0 0.0534650228
C  C104  1  0.42580000  0.94940000  0.07770000  1.0 0.1396431633
C  C105  1  0.44800000  0.95730000  0.16600000  1.0 -0.4328569217
C  C106  1  0.56790000  0.15140000  0.27620000  1.0 0.4279476557
C  C107  1  0.57320000  0.17480000  0.19560000  1.0 0.302727439
C  C108  1  0.70740000  0.19430000  0.22130000  1.0 0.4794773724
C  C109  1  0.68990000  0.21140000  0.30980000  1.0 0.2931759123
C  C110  1  0.64370000  0.07190000  0.19010000  1.0 0.3424640804
C  C111  1  0.66370000  0.07510000  0.28100000  1.0 0.4617928363
C  C112  1  0.54760000  0.20580000  0.07650000  1.0 0.0986288218
C  C113  1  0.55050000  0.24650000  0.07990000  1.0 0.129642747
C  C114  1  0.55220000  0.26510000  0.16250000  1.0 -0.4328569217
C  C115  1  0.68190000  0.24400000  0.42050000  1.0 0.0796953481
C  C116  1  0.64550000  0.26600000  0.41960000  1.0 0.1396431633
C  C117  1  0.63120000  0.27850000  0.31900000  1.0 -0.4153263622
C  C118  1  0.61400000  0.03910000  0.07890000  1.0 0.0534650228
C  C119  1  0.57420000  0.05060000  0.07770000  1.0 0.1396431633
C  C120  1  0.55200000  0.04270000  0.16600000  1.0 -0.4328569217
C  C121  1  0.15140000  0.56790000  0.27620000  1.0 0.4279476557
C  C122  1  0.17480000  0.57320000  0.19560000  1.0 0.302727439
C  C123  1  0.19430000  0.70740000  0.22130000  1.0 0.4794773724
C  C124  1  0.21140000  0.68990000  0.30980000  1.0 0.2931759123
C  C125  1  0.07190000  0.64370000  0.19010000  1.0 0.3424640804
C  C126  1  0.07510000  0.66370000  0.28100000  1.0 0.4617928363
C  C127  1  0.20580000  0.54760000  0.07650000  1.0 0.0986288218
C  C128  1  0.24650000  0.55050000  0.07990000  1.0 0.129642747
C  C129  1  0.26510000  0.55220000  0.16250000  1.0 -0.4328569217
C  C130  1  0.24400000  0.68190000  0.42050000  1.0 0.0796953481
C  C131  1  0.26600000  0.64550000  0.41960000  1.0 0.1396431633
C  C132  1  0.27850000  0.63120000  0.31900000  1.0 -0.4153263622
C  C133  1  0.03910000  0.61400000  0.07890000  1.0 0.0534650228
C  C134  1  0.05060000  0.57420000  0.07770000  1.0 0.1396431633
C  C135  1  0.04270000  0.55200000  0.16600000  1.0 -0.4328569217
C  C136  1  0.84860000  0.43210000  0.27620000  1.0 0.4279476557
C  C137  1  0.82520000  0.42680000  0.19560000  1.0 0.302727439
C  C138  1  0.80570000  0.29260000  0.22130000  1.0 0.4794773724
C  C139  1  0.78860000  0.31010000  0.30980000  1.0 0.2931759123
C  C140  1  0.92810000  0.35630000  0.19010000  1.0 0.3424640804
C  C141  1  0.92490000  0.33630000  0.28100000  1.0 0.4617928363
C  C142  1  0.79420000  0.45240000  0.07650000  1.0 0.0986288218
C  C143  1  0.75350000  0.44950000  0.07990000  1.0 0.129642747
C  C144  1  0.73490000  0.44780000  0.16250000  1.0 -0.4328569217
C  C145  1  0.75600000  0.31810000  0.42050000  1.0 0.0796953481
C  C146  1  0.73400000  0.35450000  0.41960000  1.0 0.1396431633
C  C147  1  0.72150000  0.36880000  0.31900000  1.0 -0.4153263622
C  C148  1  0.96090000  0.38600000  0.07890000  1.0 0.0534650228
C  C149  1  0.94940000  0.42580000  0.07770000  1.0 0.1396431633
C  C150  1  0.95730000  0.44800000  0.16600000  1.0 -0.4328569217
C  C151  1  0.56790000  0.84860000  0.27620000  1.0 0.4279476557
C  C152  1  0.57320000  0.82520000  0.19560000  1.0 0.302727439
C  C153  1  0.70740000  0.80570000  0.22130000  1.0 0.4794773724
C  C154  1  0.68990000  0.78860000  0.30980000  1.0 0.2931759123
C  C155  1  0.64370000  0.92810000  0.19010000  1.0 0.3424640804
C  C156  1  0.66370000  0.92490000  0.28100000  1.0 0.4617928363
C  C157  1  0.54760000  0.79420000  0.07650000  1.0 0.0986288218
C  C158  1  0.55050000  0.75350000  0.07990000  1.0 0.129642747
C  C159  1  0.55220000  0.73490000  0.16250000  1.0 -0.4328569217
C  C160  1  0.68190000  0.75600000  0.42050000  1.0 0.0796953481
C  C161  1  0.64550000  0.73400000  0.41960000  1.0 0.1396431633
C  C162  1  0.63120000  0.72150000  0.31900000  1.0 -0.4153263622
C  C163  1  0.61400000  0.96090000  0.07890000  1.0 0.0534650228
C  C164  1  0.57420000  0.94940000  0.07770000  1.0 0.1396431633
C  C165  1  0.55200000  0.95730000  0.16600000  1.0 -0.4328569217
C  C166  1  0.43210000  0.15140000  0.27620000  1.0 0.4279476557
C  C167  1  0.42680000  0.17480000  0.19560000  1.0 0.302727439
C  C168  1  0.29260000  0.19430000  0.22130000  1.0 0.4794773724
C  C169  1  0.31010000  0.21140000  0.30980000  1.0 0.2931759123
C  C170  1  0.35630000  0.07190000  0.19010000  1.0 0.3424640804
C  C171  1  0.33630000  0.07510000  0.28100000  1.0 0.4617928363
C  C172  1  0.45240000  0.20580000  0.07650000  1.0 0.0986288218
C  C173  1  0.44950000  0.24650000  0.07990000  1.0 0.129642747
C  C174  1  0.44780000  0.26510000  0.16250000  1.0 -0.4328569217
C  C175  1  0.31810000  0.24400000  0.42050000  1.0 0.0796953481
C  C176  1  0.35450000  0.26600000  0.41960000  1.0 0.1396431633
C  C177  1  0.36880000  0.27850000  0.31900000  1.0 -0.4153263622
C  C178  1  0.38600000  0.03910000  0.07890000  1.0 0.0534650228
C  C179  1  0.42580000  0.05060000  0.07770000  1.0 0.1396431633
C  C180  1  0.44800000  0.04270000  0.16600000  1.0 -0.4328569217
C  C181  1  0.15140000  0.43210000  0.72380000  1.0 0.4279476557
C  C182  1  0.17480000  0.42680000  0.80440000  1.0 0.302727439
C  C183  1  0.19430000  0.29260000  0.77870000  1.0 0.4794773724
C  C184  1  0.21140000  0.31010000  0.69020000  1.0 0.2931759123
C  C185  1  0.07190000  0.35630000  0.80990000  1.0 0.3424640804
C  C186  1  0.07510000  0.33630000  0.71900000  1.0 0.4617928363
C  C187  1  0.20580000  0.45240000  0.92350000  1.0 0.0986288218
C  C188  1  0.24650000  0.44950000  0.92010000  1.0 0.129642747
C  C189  1  0.26510000  0.44780000  0.83750000  1.0 -0.4328569217
C  C190  1  0.24400000  0.31810000  0.57950000  1.0 0.0796953481
C  C191  1  0.26600000  0.35450000  0.58040000  1.0 0.1396431633
C  C192  1  0.27850000  0.36880000  0.68100000  1.0 -0.4153263622
C  C193  1  0.03910000  0.38600000  0.92110000  1.0 0.0534650228
C  C194  1  0.05060000  0.42580000  0.92230000  1.0 0.1396431633
C  C195  1  0.04270000  0.44800000  0.83400000  1.0 -0.4328569217
C  C196  1  0.84860000  0.56790000  0.72380000  1.0 0.4279476557
C  C197  1  0.82520000  0.57320000  0.80440000  1.0 0.302727439
C  C198  1  0.80570000  0.70740000  0.77870000  1.0 0.4794773724
C  C199  1  0.78860000  0.68990000  0.69020000  1.0 0.2931759123
C  C200  1  0.92810000  0.64370000  0.80990000  1.0 0.3424640804
C  C201  1  0.92490000  0.66370000  0.71900000  1.0 0.4617928363
C  C202  1  0.79420000  0.54760000  0.92350000  1.0 0.0986288218
C  C203  1  0.75350000  0.55050000  0.92010000  1.0 0.129642747
C  C204  1  0.73490000  0.55220000  0.83750000  1.0 -0.4328569217
C  C205  1  0.75600000  0.68190000  0.57950000  1.0 0.0796953481
C  C206  1  0.73400000  0.64550000  0.58040000  1.0 0.1396431633
C  C207  1  0.72150000  0.63120000  0.68100000  1.0 -0.4153263622
C  C208  1  0.96090000  0.61400000  0.92110000  1.0 0.0534650228
C  C209  1  0.94940000  0.57420000  0.92230000  1.0 0.1396431633
C  C210  1  0.95730000  0.55200000  0.83400000  1.0 -0.4328569217
C  C211  1  0.56790000  0.15140000  0.72380000  1.0 0.4279476557
C  C212  1  0.57320000  0.17480000  0.80440000  1.0 0.302727439
C  C213  1  0.70740000  0.19430000  0.77870000  1.0 0.4794773724
C  C214  1  0.68990000  0.21140000  0.69020000  1.0 0.2931759123
C  C215  1  0.64370000  0.07190000  0.80990000  1.0 0.3424640804
C  C216  1  0.66370000  0.07510000  0.71900000  1.0 0.4617928363
C  C217  1  0.54760000  0.20580000  0.92350000  1.0 0.0986288218
C  C218  1  0.55050000  0.24650000  0.92010000  1.0 0.129642747
C  C219  1  0.55220000  0.26510000  0.83750000  1.0 -0.4328569217
C  C220  1  0.68190000  0.24400000  0.57950000  1.0 0.0796953481
C  C221  1  0.64550000  0.26600000  0.58040000  1.0 0.1396431633
C  C222  1  0.63120000  0.27850000  0.68100000  1.0 -0.4153263622
C  C223  1  0.61400000  0.03910000  0.92110000  1.0 0.0534650228
C  C224  1  0.57420000  0.05060000  0.92230000  1.0 0.1396431633
C  C225  1  0.55200000  0.04270000  0.83400000  1.0 -0.4328569217
C  C226  1  0.43210000  0.84860000  0.72380000  1.0 0.4279476557
C  C227  1  0.42680000  0.82520000  0.80440000  1.0 0.302727439
C  C228  1  0.29260000  0.80570000  0.77870000  1.0 0.4794773724
C  C229  1  0.31010000  0.78860000  0.69020000  1.0 0.2931759123
C  C230  1  0.35630000  0.92810000  0.80990000  1.0 0.3424640804
C  C231  1  0.33630000  0.92490000  0.71900000  1.0 0.4617928363
C  C232  1  0.45240000  0.79420000  0.92350000  1.0 0.0986288218
C  C233  1  0.44950000  0.75350000  0.92010000  1.0 0.129642747
C  C234  1  0.44780000  0.73490000  0.83750000  1.0 -0.4328569217
C  C235  1  0.31810000  0.75600000  0.57950000  1.0 0.0796953481
C  C236  1  0.35450000  0.73400000  0.58040000  1.0 0.1396431633
C  C237  1  0.36880000  0.72150000  0.68100000  1.0 -0.4153263622
C  C238  1  0.38600000  0.96090000  0.92110000  1.0 0.0534650228
C  C239  1  0.42580000  0.94940000  0.92230000  1.0 0.1396431633
C  C240  1  0.44800000  0.95730000  0.83400000  1.0 -0.4328569217
C  C241  1  0.76830000  0.30490000  0.50000000  1.0 0.0180125082
C  C242  1  0.72840000  0.37040000  0.50000000  1.0 -0.365579588
C  C243  1  0.79150000  0.26980000  0.50000000  1.0 -0.2607147922
C  C244  1  0.23170000  0.69510000  0.50000000  1.0 0.0180125082
C  C245  1  0.27160000  0.62960000  0.50000000  1.0 -0.365579588
C  C246  1  0.20850000  0.73020000  0.50000000  1.0 -0.2607147922
C  C247  1  0.30490000  0.23170000  0.50000000  1.0 0.0180125082
C  C248  1  0.37040000  0.27160000  0.50000000  1.0 -0.365579588
C  C249  1  0.26980000  0.20850000  0.50000000  1.0 -0.2607147922
C  C250  1  0.69510000  0.76830000  0.50000000  1.0 0.0180125082
C  C251  1  0.62960000  0.72840000  0.50000000  1.0 -0.365579588
C  C252  1  0.73020000  0.79150000  0.50000000  1.0 -0.2607147922
C  C253  1  0.76830000  0.69510000  0.50000000  1.0 0.0180125082
C  C254  1  0.72840000  0.62960000  0.50000000  1.0 -0.365579588
C  C255  1  0.79150000  0.73020000  0.50000000  1.0 -0.2607147922
C  C256  1  0.23170000  0.30490000  0.50000000  1.0 0.0180125082
C  C257  1  0.27160000  0.37040000  0.50000000  1.0 -0.365579588
C  C258  1  0.20850000  0.26980000  0.50000000  1.0 -0.2607147922
C  C259  1  0.30490000  0.76830000  0.50000000  1.0 0.0180125082
C  C260  1  0.37040000  0.72840000  0.50000000  1.0 -0.365579588
C  C261  1  0.26980000  0.79150000  0.50000000  1.0 -0.2607147922
C  C262  1  0.69510000  0.23170000  0.50000000  1.0 0.0180125082
C  C263  1  0.62960000  0.27160000  0.50000000  1.0 -0.365579588
C  C264  1  0.73020000  0.20850000  0.50000000  1.0 -0.2607147922
C  C265  1  0.81390000  0.45220000  0.00000000  1.0 0.0099083321
C  C266  1  0.73620000  0.44920000  0.00000000  1.0 -0.2510047111
C  C267  1  0.85990000  0.45400000  0.00000000  1.0 -0.4479214564
C  C268  1  0.93390000  0.43590000  0.00000000  1.0 -0.2780808188
C  C269  1  0.95510000  0.36850000  0.00000000  1.0 -0.1100472618
C  C270  1  0.96030000  0.32890000  0.00000000  1.0 -0.1921951525
C  C271  1  0.18610000  0.54780000  0.00000000  1.0 0.0099083321
C  C272  1  0.26380000  0.55080000  0.00000000  1.0 -0.2510047111
C  C273  1  0.14010000  0.54600000  0.00000000  1.0 -0.4479214564
C  C274  1  0.06610000  0.56410000  0.00000000  1.0 -0.2780808188
C  C275  1  0.04490000  0.63150000  0.00000000  1.0 -0.1100472618
C  C276  1  0.03970000  0.67110000  0.00000000  1.0 -0.1921951525
C  C277  1  0.45220000  0.18610000  0.00000000  1.0 0.0099083321
C  C278  1  0.44920000  0.26380000  0.00000000  1.0 -0.2510047111
C  C279  1  0.45400000  0.14010000  0.00000000  1.0 -0.4479214564
C  C280  1  0.43590000  0.06610000  0.00000000  1.0 -0.2780808188
C  C281  1  0.36850000  0.04490000  0.00000000  1.0 -0.1100472618
C  C282  1  0.32890000  0.03970000  0.00000000  1.0 -0.1921951525
C  C283  1  0.54780000  0.81390000  0.00000000  1.0 0.0099083321
C  C284  1  0.55080000  0.73620000  0.00000000  1.0 -0.2510047111
C  C285  1  0.54600000  0.85990000  0.00000000  1.0 -0.4479214564
C  C286  1  0.56410000  0.93390000  0.00000000  1.0 -0.2780808188
C  C287  1  0.63150000  0.95510000  0.00000000  1.0 -0.1100472618
C  C288  1  0.67110000  0.96030000  0.00000000  1.0 -0.1921951525
C  C289  1  0.81390000  0.54780000  0.00000000  1.0 0.0099083321
C  C290  1  0.73620000  0.55080000  0.00000000  1.0 -0.2510047111
C  C291  1  0.85990000  0.54600000  0.00000000  1.0 -0.4479214564
C  C292  1  0.93390000  0.56410000  0.00000000  1.0 -0.2780808188
C  C293  1  0.95510000  0.63150000  0.00000000  1.0 -0.1100472618
C  C294  1  0.96030000  0.67110000  0.00000000  1.0 -0.1921951525
C  C295  1  0.18610000  0.45220000  0.00000000  1.0 0.0099083321
C  C296  1  0.26380000  0.44920000  0.00000000  1.0 -0.2510047111
C  C297  1  0.14010000  0.45400000  0.00000000  1.0 -0.4479214564
C  C298  1  0.06610000  0.43590000  0.00000000  1.0 -0.2780808188
C  C299  1  0.04490000  0.36850000  0.00000000  1.0 -0.1100472618
C  C300  1  0.03970000  0.32890000  0.00000000  1.0 -0.1921951525
C  C301  1  0.45220000  0.81390000  0.00000000  1.0 0.0099083321
C  C302  1  0.44920000  0.73620000  0.00000000  1.0 -0.2510047111
C  C303  1  0.45400000  0.85990000  0.00000000  1.0 -0.4479214564
C  C304  1  0.43590000  0.93390000  0.00000000  1.0 -0.2780808188
C  C305  1  0.36850000  0.95510000  0.00000000  1.0 -0.1100472618
C  C306  1  0.32890000  0.96030000  0.00000000  1.0 -0.1921951525
C  C307  1  0.54780000  0.18610000  0.00000000  1.0 0.0099083321
C  C308  1  0.55080000  0.26380000  0.00000000  1.0 -0.2510047111
C  C309  1  0.54600000  0.14010000  0.00000000  1.0 -0.4479214564
C  C310  1  0.56410000  0.06610000  0.00000000  1.0 -0.2780808188
C  C311  1  0.63150000  0.04490000  0.00000000  1.0 -0.1100472618
C  C312  1  0.67110000  0.03970000  0.00000000  1.0 -0.1921951525
N  N1  1  0.81330000  0.45560000  0.84040000  1.0 -0.3803299941
N  N2  1  0.76170000  0.29530000  0.66270000  1.0 -0.3516896494
N  N3  1  0.95360000  0.36340000  0.83870000  1.0 -0.3266407119
N  N4  1  0.18670000  0.54440000  0.84040000  1.0 -0.3803299941
N  N5  1  0.23830000  0.70470000  0.66270000  1.0 -0.3516896494
N  N6  1  0.04640000  0.63660000  0.83870000  1.0 -0.3266407119
N  N7  1  0.45560000  0.18670000  0.84040000  1.0 -0.3803299941
N  N8  1  0.29530000  0.23830000  0.66270000  1.0 -0.3516896494
N  N9  1  0.36340000  0.04640000  0.83870000  1.0 -0.3266407119
N  N10  1  0.54440000  0.81330000  0.84040000  1.0 -0.3803299941
N  N11  1  0.70470000  0.76170000  0.66270000  1.0 -0.3516896494
N  N12  1  0.63660000  0.95360000  0.83870000  1.0 -0.3266407119
N  N13  1  0.81330000  0.54440000  0.15960000  1.0 -0.3803299941
N  N14  1  0.76170000  0.70470000  0.33730000  1.0 -0.3516896494
N  N15  1  0.95360000  0.63660000  0.16130000  1.0 -0.3266407119
N  N16  1  0.18670000  0.45560000  0.15960000  1.0 -0.3803299941
N  N17  1  0.23830000  0.29530000  0.33730000  1.0 -0.3516896494
N  N18  1  0.04640000  0.36340000  0.16130000  1.0 -0.3266407119
N  N19  1  0.45560000  0.81330000  0.15960000  1.0 -0.3803299941
N  N20  1  0.29530000  0.76170000  0.33730000  1.0 -0.3516896494
N  N21  1  0.36340000  0.95360000  0.16130000  1.0 -0.3266407119
N  N22  1  0.54440000  0.18670000  0.15960000  1.0 -0.3803299941
N  N23  1  0.70470000  0.23830000  0.33730000  1.0 -0.3516896494
N  N24  1  0.63660000  0.04640000  0.16130000  1.0 -0.3266407119
N  N25  1  0.18670000  0.54440000  0.15960000  1.0 -0.3803299941
N  N26  1  0.23830000  0.70470000  0.33730000  1.0 -0.3516896494
N  N27  1  0.04640000  0.63660000  0.16130000  1.0 -0.3266407119
N  N28  1  0.81330000  0.45560000  0.15960000  1.0 -0.3803299941
N  N29  1  0.76170000  0.29530000  0.33730000  1.0 -0.3516896494
N  N30  1  0.95360000  0.36340000  0.16130000  1.0 -0.3266407119
N  N31  1  0.54440000  0.81330000  0.15960000  1.0 -0.3803299941
N  N32  1  0.70470000  0.76170000  0.33730000  1.0 -0.3516896494
N  N33  1  0.63660000  0.95360000  0.16130000  1.0 -0.3266407119
N  N34  1  0.45560000  0.18670000  0.15960000  1.0 -0.3803299941
N  N35  1  0.29530000  0.23830000  0.33730000  1.0 -0.3516896494
N  N36  1  0.36340000  0.04640000  0.16130000  1.0 -0.3266407119
N  N37  1  0.18670000  0.45560000  0.84040000  1.0 -0.3803299941
N  N38  1  0.23830000  0.29530000  0.66270000  1.0 -0.3516896494
N  N39  1  0.04640000  0.36340000  0.83870000  1.0 -0.3266407119
N  N40  1  0.81330000  0.54440000  0.84040000  1.0 -0.3803299941
N  N41  1  0.76170000  0.70470000  0.66270000  1.0 -0.3516896494
N  N42  1  0.95360000  0.63660000  0.83870000  1.0 -0.3266407119
N  N43  1  0.54440000  0.18670000  0.84040000  1.0 -0.3803299941
N  N44  1  0.70470000  0.23830000  0.66270000  1.0 -0.3516896494
N  N45  1  0.63660000  0.04640000  0.83870000  1.0 -0.3266407119
N  N46  1  0.45560000  0.81330000  0.84040000  1.0 -0.3803299941
N  N47  1  0.29530000  0.76170000  0.66270000  1.0 -0.3516896494
N  N48  1  0.36340000  0.95360000  0.83870000  1.0 -0.3266407119
N  N49  1  0.78570000  0.45780000  0.50000000  1.0 -0.4801238082
N  N50  1  0.83020000  0.38580000  0.50000000  1.0 -0.4479214564
N  N51  1  0.89430000  0.43070000  0.50000000  1.0 -0.6220324613
N  N52  1  0.21430000  0.54220000  0.50000000  1.0 -0.4801238082
N  N53  1  0.16980000  0.61420000  0.50000000  1.0 -0.4479214564
N  N54  1  0.10570000  0.56930000  0.50000000  1.0 -0.6220324613
N  N55  1  0.45780000  0.21430000  0.50000000  1.0 -0.4801238082
N  N56  1  0.38580000  0.16980000  0.50000000  1.0 -0.4479214564
N  N57  1  0.43070000  0.10570000  0.50000000  1.0 -0.6220324613
N  N58  1  0.54220000  0.78570000  0.50000000  1.0 -0.4801238082
N  N59  1  0.61420000  0.83020000  0.50000000  1.0 -0.4479214564
N  N60  1  0.56930000  0.89430000  0.50000000  1.0 -0.6220324613
N  N61  1  0.78570000  0.54220000  0.50000000  1.0 -0.4801238082
N  N62  1  0.83020000  0.61420000  0.50000000  1.0 -0.4479214564
N  N63  1  0.89430000  0.56930000  0.50000000  1.0 -0.6220324613
N  N64  1  0.21430000  0.45780000  0.50000000  1.0 -0.4801238082
N  N65  1  0.16980000  0.38580000  0.50000000  1.0 -0.4479214564
N  N66  1  0.10570000  0.43070000  0.50000000  1.0 -0.6220324613
N  N67  1  0.45780000  0.78570000  0.50000000  1.0 -0.4801238082
N  N68  1  0.38580000  0.83020000  0.50000000  1.0 -0.4479214564
N  N69  1  0.43070000  0.89430000  0.50000000  1.0 -0.6220324613
N  N70  1  0.54220000  0.21430000  0.50000000  1.0 -0.4801238082
N  N71  1  0.61420000  0.16980000  0.50000000  1.0 -0.4479214564
N  N72  1  0.56930000  0.10570000  0.50000000  1.0 -0.6220324613
O  O1  1  0.81660000  0.39090000  0.82450000  1.0 -0.493214999
O  O2  1  0.86120000  0.40190000  0.68590000  1.0 -0.4718693417
O  O3  1  0.85440000  0.46250000  0.70340000  1.0 -0.365579588
O  O4  1  0.81060000  0.33830000  0.66860000  1.0 -0.4718693417
O  O5  1  0.83490000  0.30670000  0.80990000  1.0 -0.4718693417
O  O6  1  0.78380000  0.26230000  0.80270000  1.0 -0.4418188219
O  O7  1  0.89490000  0.32970000  0.68370000  1.0 -0.4418188219
O  O8  1  0.89040000  0.36450000  0.83270000  1.0 -0.5207203306
O  O9  1  0.96120000  0.32850000  0.69400000  1.0 -0.493214999
O  O10  1  0.18340000  0.60910000  0.82450000  1.0 -0.493214999
O  O11  1  0.13880000  0.59810000  0.68590000  1.0 -0.4718693417
O  O12  1  0.14560000  0.53750000  0.70340000  1.0 -0.365579588
O  O13  1  0.18940000  0.66170000  0.66860000  1.0 -0.4718693417
O  O14  1  0.16510000  0.69330000  0.80990000  1.0 -0.4718693417
O  O15  1  0.21620000  0.73770000  0.80270000  1.0 -0.4418188219
O  O16  1  0.10510000  0.67030000  0.68370000  1.0 -0.4418188219
O  O17  1  0.10960000  0.63550000  0.83270000  1.0 -0.5207203306
O  O18  1  0.03880000  0.67150000  0.69400000  1.0 -0.493214999
O  O19  1  0.39090000  0.18340000  0.82450000  1.0 -0.493214999
O  O20  1  0.40190000  0.13880000  0.68590000  1.0 -0.4718693417
O  O21  1  0.46250000  0.14560000  0.70340000  1.0 -0.365579588
O  O22  1  0.33830000  0.18940000  0.66860000  1.0 -0.4718693417
O  O23  1  0.30670000  0.16510000  0.80990000  1.0 -0.4718693417
O  O24  1  0.26230000  0.21620000  0.80270000  1.0 -0.4418188219
O  O25  1  0.32970000  0.10510000  0.68370000  1.0 -0.4418188219
O  O26  1  0.36450000  0.10960000  0.83270000  1.0 -0.5207203306
O  O27  1  0.32850000  0.03880000  0.69400000  1.0 -0.493214999
O  O28  1  0.60910000  0.81660000  0.82450000  1.0 -0.493214999
O  O29  1  0.59810000  0.86120000  0.68590000  1.0 -0.4718693417
O  O30  1  0.53750000  0.85440000  0.70340000  1.0 -0.365579588
O  O31  1  0.66170000  0.81060000  0.66860000  1.0 -0.4718693417
O  O32  1  0.69330000  0.83490000  0.80990000  1.0 -0.4718693417
O  O33  1  0.73770000  0.78380000  0.80270000  1.0 -0.4418188219
O  O34  1  0.67030000  0.89490000  0.68370000  1.0 -0.4418188219
O  O35  1  0.63550000  0.89040000  0.83270000  1.0 -0.5207203306
O  O36  1  0.67150000  0.96120000  0.69400000  1.0 -0.493214999
O  O37  1  0.81660000  0.60910000  0.17550000  1.0 -0.493214999
O  O38  1  0.86120000  0.59810000  0.31410000  1.0 -0.4718693417
O  O39  1  0.85440000  0.53750000  0.29660000  1.0 -0.365579588
O  O40  1  0.81060000  0.66170000  0.33140000  1.0 -0.4718693417
O  O41  1  0.83490000  0.69330000  0.19010000  1.0 -0.4718693417
O  O42  1  0.78380000  0.73770000  0.19730000  1.0 -0.4418188219
O  O43  1  0.89490000  0.67030000  0.31630000  1.0 -0.4418188219
O  O44  1  0.89040000  0.63550000  0.16730000  1.0 -0.5207203306
O  O45  1  0.96120000  0.67150000  0.30600000  1.0 -0.493214999
O  O46  1  0.18340000  0.39090000  0.17550000  1.0 -0.493214999
O  O47  1  0.13880000  0.40190000  0.31410000  1.0 -0.4718693417
O  O48  1  0.14560000  0.46250000  0.29660000  1.0 -0.365579588
O  O49  1  0.18940000  0.33830000  0.33140000  1.0 -0.4718693417
O  O50  1  0.16510000  0.30670000  0.19010000  1.0 -0.4718693417
O  O51  1  0.21620000  0.26230000  0.19730000  1.0 -0.4418188219
O  O52  1  0.10510000  0.32970000  0.31630000  1.0 -0.4418188219
O  O53  1  0.10960000  0.36450000  0.16730000  1.0 -0.5207203306
O  O54  1  0.03880000  0.32850000  0.30600000  1.0 -0.493214999
O  O55  1  0.39090000  0.81660000  0.17550000  1.0 -0.493214999
O  O56  1  0.40190000  0.86120000  0.31410000  1.0 -0.4718693417
O  O57  1  0.46250000  0.85440000  0.29660000  1.0 -0.365579588
O  O58  1  0.33830000  0.81060000  0.33140000  1.0 -0.4718693417
O  O59  1  0.30670000  0.83490000  0.19010000  1.0 -0.4718693417
O  O60  1  0.26230000  0.78380000  0.19730000  1.0 -0.4418188219
O  O61  1  0.32970000  0.89490000  0.31630000  1.0 -0.4418188219
O  O62  1  0.36450000  0.89040000  0.16730000  1.0 -0.5207203306
O  O63  1  0.32850000  0.96120000  0.30600000  1.0 -0.493214999
O  O64  1  0.60910000  0.18340000  0.17550000  1.0 -0.493214999
O  O65  1  0.59810000  0.13880000  0.31410000  1.0 -0.4718693417
O  O66  1  0.53750000  0.14560000  0.29660000  1.0 -0.365579588
O  O67  1  0.66170000  0.18940000  0.33140000  1.0 -0.4718693417
O  O68  1  0.69330000  0.16510000  0.19010000  1.0 -0.4718693417
O  O69  1  0.73770000  0.21620000  0.19730000  1.0 -0.4418188219
O  O70  1  0.67030000  0.10510000  0.31630000  1.0 -0.4418188219
O  O71  1  0.63550000  0.10960000  0.16730000  1.0 -0.5207203306
O  O72  1  0.67150000  0.03880000  0.30600000  1.0 -0.493214999
O  O73  1  0.18340000  0.60910000  0.17550000  1.0 -0.493214999
O  O74  1  0.13880000  0.59810000  0.31410000  1.0 -0.4718693417
O  O75  1  0.14560000  0.53750000  0.29660000  1.0 -0.365579588
O  O76  1  0.18940000  0.66170000  0.33140000  1.0 -0.4718693417
O  O77  1  0.16510000  0.69330000  0.19010000  1.0 -0.4718693417
O  O78  1  0.21620000  0.73770000  0.19730000  1.0 -0.4418188219
O  O79  1  0.10510000  0.67030000  0.31630000  1.0 -0.4418188219
O  O80  1  0.10960000  0.63550000  0.16730000  1.0 -0.5207203306
O  O81  1  0.03880000  0.67150000  0.30600000  1.0 -0.493214999
O  O82  1  0.81660000  0.39090000  0.17550000  1.0 -0.493214999
O  O83  1  0.86120000  0.40190000  0.31410000  1.0 -0.4718693417
O  O84  1  0.85440000  0.46250000  0.29660000  1.0 -0.365579588
O  O85  1  0.81060000  0.33830000  0.33140000  1.0 -0.4718693417
O  O86  1  0.83490000  0.30670000  0.19010000  1.0 -0.4718693417
O  O87  1  0.78380000  0.26230000  0.19730000  1.0 -0.4418188219
O  O88  1  0.89490000  0.32970000  0.31630000  1.0 -0.4418188219
O  O89  1  0.89040000  0.36450000  0.16730000  1.0 -0.5207203306
O  O90  1  0.96120000  0.32850000  0.30600000  1.0 -0.493214999
O  O91  1  0.60910000  0.81660000  0.17550000  1.0 -0.493214999
O  O92  1  0.59810000  0.86120000  0.31410000  1.0 -0.4718693417
O  O93  1  0.53750000  0.85440000  0.29660000  1.0 -0.365579588
O  O94  1  0.66170000  0.81060000  0.33140000  1.0 -0.4718693417
O  O95  1  0.69330000  0.83490000  0.19010000  1.0 -0.4718693417
O  O96  1  0.73770000  0.78380000  0.19730000  1.0 -0.4418188219
O  O97  1  0.67030000  0.89490000  0.31630000  1.0 -0.4418188219
O  O98  1  0.63550000  0.89040000  0.16730000  1.0 -0.5207203306
O  O99  1  0.67150000  0.96120000  0.30600000  1.0 -0.493214999
O  O100  1  0.39090000  0.18340000  0.17550000  1.0 -0.493214999
O  O101  1  0.40190000  0.13880000  0.31410000  1.0 -0.4718693417
O  O102  1  0.46250000  0.14560000  0.29660000  1.0 -0.365579588
O  O103  1  0.33830000  0.18940000  0.33140000  1.0 -0.4718693417
O  O104  1  0.30670000  0.16510000  0.19010000  1.0 -0.4718693417
O  O105  1  0.26230000  0.21620000  0.19730000  1.0 -0.4418188219
O  O106  1  0.32970000  0.10510000  0.31630000  1.0 -0.4418188219
O  O107  1  0.36450000  0.10960000  0.16730000  1.0 -0.5207203306
O  O108  1  0.32850000  0.03880000  0.30600000  1.0 -0.493214999
O  O109  1  0.18340000  0.39090000  0.82450000  1.0 -0.493214999
O  O110  1  0.13880000  0.40190000  0.68590000  1.0 -0.4718693417
O  O111  1  0.14560000  0.46250000  0.70340000  1.0 -0.365579588
O  O112  1  0.18940000  0.33830000  0.66860000  1.0 -0.4718693417
O  O113  1  0.16510000  0.30670000  0.80990000  1.0 -0.4718693417
O  O114  1  0.21620000  0.26230000  0.80270000  1.0 -0.4418188219
O  O115  1  0.10510000  0.32970000  0.68370000  1.0 -0.4418188219
O  O116  1  0.10960000  0.36450000  0.83270000  1.0 -0.5207203306
O  O117  1  0.03880000  0.32850000  0.69400000  1.0 -0.493214999
O  O118  1  0.81660000  0.60910000  0.82450000  1.0 -0.493214999
O  O119  1  0.86120000  0.59810000  0.68590000  1.0 -0.4718693417
O  O120  1  0.85440000  0.53750000  0.70340000  1.0 -0.365579588
O  O121  1  0.81060000  0.66170000  0.66860000  1.0 -0.4718693417
O  O122  1  0.83490000  0.69330000  0.80990000  1.0 -0.4718693417
O  O123  1  0.78380000  0.73770000  0.80270000  1.0 -0.4418188219
O  O124  1  0.89490000  0.67030000  0.68370000  1.0 -0.4418188219
O  O125  1  0.89040000  0.63550000  0.83270000  1.0 -0.5207203306
O  O126  1  0.96120000  0.67150000  0.69400000  1.0 -0.493214999
O  O127  1  0.60910000  0.18340000  0.82450000  1.0 -0.493214999
O  O128  1  0.59810000  0.13880000  0.68590000  1.0 -0.4718693417
O  O129  1  0.53750000  0.14560000  0.70340000  1.0 -0.365579588
O  O130  1  0.66170000  0.18940000  0.66860000  1.0 -0.4718693417
O  O131  1  0.69330000  0.16510000  0.80990000  1.0 -0.4718693417
O  O132  1  0.73770000  0.21620000  0.80270000  1.0 -0.4418188219
O  O133  1  0.67030000  0.10510000  0.68370000  1.0 -0.4418188219
O  O134  1  0.63550000  0.10960000  0.83270000  1.0 -0.5207203306
O  O135  1  0.67150000  0.03880000  0.69400000  1.0 -0.493214999
O  O136  1  0.39090000  0.81660000  0.82450000  1.0 -0.493214999
O  O137  1  0.40190000  0.86120000  0.68590000  1.0 -0.4718693417
O  O138  1  0.46250000  0.85440000  0.70340000  1.0 -0.365579588
O  O139  1  0.33830000  0.81060000  0.66860000  1.0 -0.4718693417
O  O140  1  0.30670000  0.83490000  0.80990000  1.0 -0.4718693417
O  O141  1  0.26230000  0.78380000  0.80270000  1.0 -0.4418188219
O  O142  1  0.32970000  0.89490000  0.68370000  1.0 -0.4418188219
O  O143  1  0.36450000  0.89040000  0.83270000  1.0 -0.5207203306
O  O144  1  0.32850000  0.96120000  0.69400000  1.0 -0.493214999
O  O145  1  0.90690000  0.23820000  0.50000000  1.0 -0.0606520098
O  O146  1  0.68080000  0.45550000  0.50000000  1.0 -0.1996170633
O  O147  1  0.61120000  0.42040000  0.50000000  1.0 0.0099083321
O  O148  1  0.09310000  0.76180000  0.50000000  1.0 -0.051831119
O  O149  1  0.31920000  0.54450000  0.50000000  1.0 -0.1996170633
O  O150  1  0.38880000  0.57960000  0.50000000  1.0 0.0099083321
O  O151  1  0.23820000  0.09310000  0.50000000  1.0 -0.051831119
O  O152  1  0.45550000  0.31920000  0.50000000  1.0 -0.1996170633
O  O153  1  0.42040000  0.38880000  0.50000000  1.0 0.0099083321
O  O154  1  0.76180000  0.90690000  0.50000000  1.0 -0.051831119
O  O155  1  0.54450000  0.68080000  0.50000000  1.0 -0.1996170633
O  O156  1  0.57960000  0.61120000  0.50000000  1.0 0.0099083321
O  O157  1  0.90690000  0.76180000  0.50000000  1.0 -0.051831119
O  O158  1  0.68080000  0.54450000  0.50000000  1.0 -0.1996170633
O  O159  1  0.61120000  0.57960000  0.50000000  1.0 0.0099083321
O  O160  1  0.09310000  0.23820000  0.50000000  1.0 -0.051831119
O  O161  1  0.31920000  0.45550000  0.50000000  1.0 -0.1996170633
O  O162  1  0.38880000  0.42040000  0.50000000  1.0 0.0099083321
O  O163  1  0.23820000  0.90690000  0.50000000  1.0 -0.0606520098
O  O164  1  0.45550000  0.68080000  0.50000000  1.0 -0.1996170633
O  O165  1  0.42040000  0.61120000  0.50000000  1.0 0.0099083321
O  O166  1  0.76180000  0.09310000  0.50000000  1.0 -0.051831119
O  O167  1  0.54450000  0.31920000  0.50000000  1.0 -0.1996170633
O  O168  1  0.57960000  0.38880000  0.50000000  1.0 0.0099083321
O  O169  1  0.85090000  0.50000000  0.50000000  1.0 -0.323631575
O  O170  1  0.14910000  0.50000000  0.50000000  1.0 -0.3266407119
O  O171  1  0.50000000  0.14910000  0.50000000  1.0 -0.323631575
O  O172  1  0.50000000  0.85090000  0.50000000  1.0 -0.323631575
O  O173  1  0.91990000  0.50000000  0.61270000  1.0 -0.1829863318
O  O174  1  0.70400000  0.50000000  0.35010000  1.0 -0.1100472618
O  O175  1  0.77620000  0.50000000  0.65470000  1.0 -0.1597030681
O  O176  1  0.08010000  0.50000000  0.61270000  1.0 -0.1921951525
O  O177  1  0.29600000  0.50000000  0.35010000  1.0 -0.1100472618
O  O178  1  0.22380000  0.50000000  0.65470000  1.0 -0.1597030681
O  O179  1  0.50000000  0.08010000  0.61270000  1.0 -0.1921951525
O  O180  1  0.50000000  0.29600000  0.35010000  1.0 -0.1100472618
O  O181  1  0.50000000  0.22380000  0.65470000  1.0 -0.1597030681
O  O182  1  0.50000000  0.91990000  0.61270000  1.0 -0.1829863318
O  O183  1  0.50000000  0.70400000  0.35010000  1.0 -0.1100472618
O  O184  1  0.50000000  0.77620000  0.65470000  1.0 -0.1597030681
O  O185  1  0.91990000  0.50000000  0.38730000  1.0 -0.1829863318
O  O186  1  0.70400000  0.50000000  0.64990000  1.0 -0.1100472618
O  O187  1  0.77620000  0.50000000  0.34530000  1.0 -0.1597030681
O  O188  1  0.08010000  0.50000000  0.38730000  1.0 -0.1921951525
O  O189  1  0.29600000  0.50000000  0.64990000  1.0 -0.1100472618
O  O190  1  0.22380000  0.50000000  0.34530000  1.0 -0.1597030681
O  O191  1  0.50000000  0.91990000  0.38730000  1.0 -0.1829863318
O  O192  1  0.50000000  0.70400000  0.64990000  1.0 -0.1100472618
O  O193  1  0.50000000  0.77620000  0.34530000  1.0 -0.1597030681
O  O194  1  0.50000000  0.08010000  0.38730000  1.0 -0.1921951525
O  O195  1  0.50000000  0.29600000  0.64990000  1.0 -0.1100472618
O  O196  1  0.50000000  0.22380000  0.34530000  1.0 -0.1597030681
O  O197  1  0.86750000  0.34920000  0.00000000  1.0 0.28138339
O  O198  1  0.79240000  0.31110000  0.00000000  1.0 0.1064257569
O  O199  1  0.88960000  0.15690000  0.00000000  1.0 0.129642747
O  O200  1  0.13250000  0.65080000  0.00000000  1.0 0.2931759123
O  O201  1  0.20760000  0.68890000  0.00000000  1.0 0.0986288218
O  O202  1  0.11040000  0.84310000  0.00000000  1.0 0.129642747
O  O203  1  0.34920000  0.13250000  0.00000000  1.0 0.2931759123
O  O204  1  0.31110000  0.20760000  0.00000000  1.0 0.0986288218
O  O205  1  0.15690000  0.11040000  0.00000000  1.0 0.129642747
O  O206  1  0.65080000  0.86750000  0.00000000  1.0 0.28138339
O  O207  1  0.68890000  0.79240000  0.00000000  1.0 0.1064257569
O  O208  1  0.84310000  0.88960000  0.00000000  1.0 0.129642747
O  O209  1  0.86750000  0.65080000  0.00000000  1.0 0.28138339
O  O210  1  0.79240000  0.68890000  0.00000000  1.0 0.1064257569
O  O211  1  0.88960000  0.84310000  0.00000000  1.0 0.129642747
O  O212  1  0.13250000  0.34920000  0.00000000  1.0 0.2931759123
O  O213  1  0.20760000  0.31110000  0.00000000  1.0 0.0986288218
O  O214  1  0.11040000  0.15690000  0.00000000  1.0 0.129642747
O  O215  1  0.34920000  0.86750000  0.00000000  1.0 0.28138339
O  O216  1  0.31110000  0.79240000  0.00000000  1.0 0.1064257569
O  O217  1  0.15690000  0.88960000  0.00000000  1.0 0.129642747
O  O218  1  0.65080000  0.13250000  0.00000000  1.0 0.2931759123
O  O219  1  0.68890000  0.20760000  0.00000000  1.0 0.0986288218
O  O220  1  0.84310000  0.11040000  0.00000000  1.0 0.129642747
O  O221  1  0.00000000  0.35540000  0.50000000  1.0 0.2343733258
O  O222  1  0.00000000  0.64460000  0.50000000  1.0 0.2366608627
O  O223  1  0.35540000  0.00000000  0.50000000  1.0 0.2343733258
O  O224  1  0.64460000  0.00000000  0.50000000  1.0 0.2366608627
O  O225  1  0.71070000  0.28930000  0.84690000  1.0 -0.0683075232
O  O226  1  0.28930000  0.71070000  0.84690000  1.0 -0.0683075232
O  O227  1  0.28930000  0.28930000  0.84690000  1.0 -0.0683075232
O  O228  1  0.71070000  0.71070000  0.84690000  1.0 -0.0683075232
O  O229  1  0.71070000  0.71070000  0.15310000  1.0 -0.0683075232
O  O230  1  0.28930000  0.28930000  0.15310000  1.0 -0.0683075232
O  O231  1  0.28930000  0.71070000  0.15310000  1.0 -0.0683075232
O  O232  1  0.71070000  0.28930000  0.15310000  1.0 -0.0683075232
O  O233  1  0.00000000  0.40440000  0.66300000  1.0 -0.2510047111
O  O234  1  0.00000000  0.28190000  0.81870000  1.0 -0.0196565824
O  O235  1  0.00000000  0.59560000  0.66300000  1.0 -0.2654464148
O  O236  1  0.00000000  0.71810000  0.81870000  1.0 -0.0196565824
O  O237  1  0.40440000  0.00000000  0.66300000  1.0 -0.2510047111
O  O238  1  0.28190000  0.00000000  0.81870000  1.0 -0.0196565824
O  O239  1  0.59560000  0.00000000  0.66300000  1.0 -0.2607147922
O  O240  1  0.71810000  0.00000000  0.81870000  1.0 -0.0196565824
O  O241  1  0.00000000  0.59560000  0.33700000  1.0 -0.2607147922
O  O242  1  0.00000000  0.71810000  0.18130000  1.0 -0.0196565824
O  O243  1  0.00000000  0.40440000  0.33700000  1.0 -0.2510047111
O  O244  1  0.00000000  0.28190000  0.18130000  1.0 -0.0196565824
O  O245  1  0.40440000  0.00000000  0.33700000  1.0 -0.2510047111
O  O246  1  0.28190000  0.00000000  0.18130000  1.0 -0.0196565824
O  O247  1  0.59560000  0.00000000  0.33700000  1.0 -0.2607147922
O  O248  1  0.71810000  0.00000000  0.18130000  1.0 -0.0196565824
