# DDEC6 charges by PACMAN v1.1 (https://github.com/mtap-research/PACMAN-charge/)
data_JEBWEV_ion_pacman
_symmetry_space_group_name_H-M   'P 1'
_cell_length_a   35.79400000
_cell_length_b   35.79400000
_cell_length_c   15.06300000
_cell_angle_alpha   90.00000000
_cell_angle_beta   90.00000000
_cell_angle_gamma   90.00000000
_symmetry_Int_Tables_number   1
_chemical_formula_structural   Na2Cu3Ni2H39C39(N2O7)3
_chemical_formula_sum   'Na16 Cu24 Ni16 H312 C312 N48 O168'
_cell_volume   19298.87279747
_cell_formula_units_Z   8
loop_
 _symmetry_equiv_pos_site_id
 _symmetry_equiv_pos_as_xyz
  1  'x, y, z'
loop_
 _atom_site_type_symbol
 _atom_site_label
 _atom_site_symmetry_multiplicity
 _atom_site_fract_x
 _atom_site_fract_y
 _atom_site_fract_z
 _atom_site_occupancy
 _atom_site_charge
Na  Na1  1  0.77410000  0.77410000  0.07000000  1.0 0.8612753475
Na  Na2  1  0.22590000  0.22590000  0.07000000  1.0 0.8612753475
Na  Na3  1  0.77410000  0.22590000  0.07000000  1.0 0.8612753475
Na  Na4  1  0.22590000  0.77410000  0.07000000  1.0 0.8612753475
Na  Na5  1  0.77410000  0.22590000  0.93000000  1.0 0.8612753475
Na  Na6  1  0.22590000  0.77410000  0.93000000  1.0 0.8612753475
Na  Na7  1  0.77410000  0.77410000  0.93000000  1.0 0.8612753475
Na  Na8  1  0.22590000  0.22590000  0.93000000  1.0 0.8612753475
Na  Na9  1  0.13970000  0.34220000  0.00000000  1.0 0.8520632186
Na  Na10  1  0.86030000  0.65780000  0.00000000  1.0 0.8520632186
Na  Na11  1  0.34220000  0.86030000  0.00000000  1.0 0.8520632186
Na  Na12  1  0.65780000  0.13970000  0.00000000  1.0 0.8520632186
Na  Na13  1  0.13970000  0.65780000  0.00000000  1.0 0.8520632186
Na  Na14  1  0.86030000  0.34220000  0.00000000  1.0 0.8520632186
Na  Na15  1  0.34220000  0.13970000  0.00000000  1.0 0.8520632186
Na  Na16  1  0.65780000  0.86030000  0.00000000  1.0 0.8520632186
Cu  Cu1  1  0.50000000  0.83328000  0.22759000  1.0 0.6043782839
Cu  Cu2  1  0.50000000  0.16672000  0.22759000  1.0 0.6043782839
Cu  Cu3  1  0.83328000  0.50000000  0.22759000  1.0 0.6060790269
Cu  Cu4  1  0.16672000  0.50000000  0.22759000  1.0 0.6043782839
Cu  Cu5  1  0.50000000  0.16672000  0.77241000  1.0 0.6043782839
Cu  Cu6  1  0.50000000  0.83328000  0.77241000  1.0 0.6060790269
Cu  Cu7  1  0.83328000  0.50000000  0.77241000  1.0 0.6060790269
Cu  Cu8  1  0.16672000  0.50000000  0.77241000  1.0 0.6043782839
Cu  Cu9  1  0.73932000  0.73932000  0.26654000  1.0 0.7158262977
Cu  Cu10  1  0.26068000  0.26068000  0.26654000  1.0 0.7158262977
Cu  Cu11  1  0.73932000  0.26068000  0.26654000  1.0 0.7158262977
Cu  Cu12  1  0.26068000  0.73932000  0.26654000  1.0 0.7158262977
Cu  Cu13  1  0.73932000  0.26068000  0.73346000  1.0 0.7158262977
Cu  Cu14  1  0.26068000  0.73932000  0.73346000  1.0 0.7158262977
Cu  Cu15  1  0.73932000  0.73932000  0.73346000  1.0 0.7158262977
Cu  Cu16  1  0.26068000  0.26068000  0.73346000  1.0 0.7158262977
Cu  Cu17  1  0.65339000  0.00000000  0.23295000  1.0 0.6817876347
Cu  Cu18  1  0.34661000  0.00000000  0.23295000  1.0 0.6817876347
Cu  Cu19  1  0.00000000  0.34661000  0.23295000  1.0 0.6817876347
Cu  Cu20  1  0.00000000  0.65339000  0.23295000  1.0 0.6817876347
Cu  Cu21  1  0.65339000  0.00000000  0.76705000  1.0 0.6817876347
Cu  Cu22  1  0.34661000  0.00000000  0.76705000  1.0 0.6817876347
Cu  Cu23  1  0.00000000  0.65339000  0.76705000  1.0 0.6817876347
Cu  Cu24  1  0.00000000  0.34661000  0.76705000  1.0 0.6817876347
Ni  Ni1  1  0.64622000  0.85242000  0.25326000  1.0 0.9214814553
Ni  Ni2  1  0.35378000  0.14758000  0.25326000  1.0 0.9214814553
Ni  Ni3  1  0.85242000  0.35378000  0.25326000  1.0 0.9214814553
Ni  Ni4  1  0.14758000  0.64622000  0.25326000  1.0 0.9214814553
Ni  Ni5  1  0.64622000  0.14758000  0.74674000  1.0 0.9214814553
Ni  Ni6  1  0.35378000  0.85242000  0.74674000  1.0 0.9214814553
Ni  Ni7  1  0.85242000  0.64622000  0.74674000  1.0 0.9214814553
Ni  Ni8  1  0.14758000  0.35378000  0.74674000  1.0 0.9214814553
Ni  Ni9  1  0.35378000  0.14758000  0.74674000  1.0 0.9214814553
Ni  Ni10  1  0.64622000  0.85242000  0.74674000  1.0 0.9214814553
Ni  Ni11  1  0.14758000  0.64622000  0.74674000  1.0 0.9214814553
Ni  Ni12  1  0.85242000  0.35378000  0.74674000  1.0 0.9214814553
Ni  Ni13  1  0.35378000  0.85242000  0.25326000  1.0 0.9214814553
Ni  Ni14  1  0.64622000  0.14758000  0.25326000  1.0 0.9214814553
Ni  Ni15  1  0.14758000  0.35378000  0.25326000  1.0 0.9214814553
Ni  Ni16  1  0.85242000  0.64622000  0.25326000  1.0 0.9214814553
H  H1  1  0.52820000  0.71940000  0.17120000  1.0 0.1216410496
H  H2  1  0.57280000  0.71930000  0.16680000  1.0 0.1487016826
H  H3  1  0.55140000  0.75210000  0.21780000  1.0 0.1389497468
H  H4  1  0.61440000  0.69010000  0.34270000  1.0 0.1216410496
H  H5  1  0.62320000  0.73060000  0.30310000  1.0 0.1577317366
H  H6  1  0.65260000  0.69730000  0.29000000  1.0 0.1389497468
H  H7  1  0.56400000  0.92580000  0.19670000  1.0 0.1577317366
H  H8  1  0.56500000  0.97030000  0.20660000  1.0 0.1389497468
H  H9  1  0.53040000  0.95050000  0.15840000  1.0 0.1327442111
H  H10  1  0.54790000  0.86780000  0.93870000  1.0 0.0914831507
H  H11  1  0.52370000  0.86690000  0.02810000  1.0 0.0770688328
H  H12  1  0.56830000  0.86850000  0.03320000  1.0 0.0914831507
H  H13  1  0.74910000  0.78210000  0.47100000  1.0 0.0481801978
H  H14  1  0.71770000  0.81400000  0.46770000  1.0 0.0770688328
H  H15  1  0.73260000  0.79890000  0.56130000  1.0 0.0481801978
H  H16  1  0.68940000  0.97520000  0.96360000  1.0 0.0560952188
H  H17  1  0.68910000  0.95730000  0.06100000  1.0 0.0481801978
H  H18  1  0.68860000  0.93080000  0.97550000  1.0 0.0481801978
H  H19  1  0.47180000  0.28060000  0.17120000  1.0 0.1216410496
H  H20  1  0.42720000  0.28070000  0.16680000  1.0 0.1487016826
H  H21  1  0.44860000  0.24790000  0.21780000  1.0 0.1389497468
H  H22  1  0.38560000  0.30990000  0.34270000  1.0 0.1216410496
H  H23  1  0.37680000  0.26940000  0.30310000  1.0 0.1577317366
H  H24  1  0.34740000  0.30270000  0.29000000  1.0 0.1389497468
H  H25  1  0.43600000  0.07420000  0.19670000  1.0 0.1577317366
H  H26  1  0.43500000  0.02970000  0.20660000  1.0 0.1389497468
H  H27  1  0.46960000  0.04950000  0.15840000  1.0 0.1327442111
H  H28  1  0.45210000  0.13220000  0.93870000  1.0 0.0914831507
H  H29  1  0.47630000  0.13310000  0.02810000  1.0 0.0770688328
H  H30  1  0.43170000  0.13150000  0.03320000  1.0 0.0914831507
H  H31  1  0.25090000  0.21790000  0.47100000  1.0 0.0481801978
H  H32  1  0.28230000  0.18600000  0.46770000  1.0 0.0770688328
H  H33  1  0.26740000  0.20110000  0.56130000  1.0 0.0481801978
H  H34  1  0.31060000  0.02480000  0.96360000  1.0 0.0560952188
H  H35  1  0.31090000  0.04270000  0.06100000  1.0 0.0481801978
H  H36  1  0.31140000  0.06920000  0.97550000  1.0 0.0481801978
H  H37  1  0.71940000  0.47180000  0.17120000  1.0 0.1216410496
H  H38  1  0.71930000  0.42720000  0.16680000  1.0 0.1487016826
H  H39  1  0.75210000  0.44860000  0.21780000  1.0 0.1389497468
H  H40  1  0.69010000  0.38560000  0.34270000  1.0 0.1216410496
H  H41  1  0.73060000  0.37680000  0.30310000  1.0 0.1577317366
H  H42  1  0.69730000  0.34740000  0.29000000  1.0 0.1389497468
H  H43  1  0.92580000  0.43600000  0.19670000  1.0 0.1577317366
H  H44  1  0.97030000  0.43500000  0.20660000  1.0 0.1389497468
H  H45  1  0.95050000  0.46960000  0.15840000  1.0 0.1327442111
H  H46  1  0.86780000  0.45210000  0.93870000  1.0 0.0914831507
H  H47  1  0.86690000  0.47630000  0.02810000  1.0 0.0770688328
H  H48  1  0.86850000  0.43170000  0.03320000  1.0 0.0914831507
H  H49  1  0.78210000  0.25090000  0.47100000  1.0 0.0481801978
H  H50  1  0.81400000  0.28230000  0.46770000  1.0 0.0770688328
H  H51  1  0.79890000  0.26740000  0.56130000  1.0 0.0481801978
H  H52  1  0.97520000  0.31060000  0.96360000  1.0 0.0560952188
H  H53  1  0.95730000  0.31090000  0.06100000  1.0 0.0481801978
H  H54  1  0.93080000  0.31140000  0.97550000  1.0 0.0481801978
H  H55  1  0.28060000  0.52820000  0.17120000  1.0 0.1216410496
H  H56  1  0.28070000  0.57280000  0.16680000  1.0 0.1487016826
H  H57  1  0.24790000  0.55140000  0.21780000  1.0 0.1389497468
H  H58  1  0.30990000  0.61440000  0.34270000  1.0 0.1216410496
H  H59  1  0.26940000  0.62320000  0.30310000  1.0 0.1577317366
H  H60  1  0.30270000  0.65260000  0.29000000  1.0 0.1389497468
H  H61  1  0.07420000  0.56400000  0.19670000  1.0 0.1577317366
H  H62  1  0.02970000  0.56500000  0.20660000  1.0 0.1389497468
H  H63  1  0.04950000  0.53040000  0.15840000  1.0 0.1327442111
H  H64  1  0.13220000  0.54790000  0.93870000  1.0 0.0914831507
H  H65  1  0.13310000  0.52370000  0.02810000  1.0 0.0770688328
H  H66  1  0.13150000  0.56830000  0.03320000  1.0 0.0914831507
H  H67  1  0.21790000  0.74910000  0.47100000  1.0 0.0481801978
H  H68  1  0.18600000  0.71770000  0.46770000  1.0 0.0770688328
H  H69  1  0.20110000  0.73260000  0.56130000  1.0 0.0481801978
H  H70  1  0.02480000  0.68940000  0.96360000  1.0 0.0560952188
H  H71  1  0.04270000  0.68910000  0.06100000  1.0 0.0481801978
H  H72  1  0.06920000  0.68860000  0.97550000  1.0 0.0481801978
H  H73  1  0.52820000  0.28060000  0.82880000  1.0 0.1216410496
H  H74  1  0.57280000  0.28070000  0.83320000  1.0 0.1487016826
H  H75  1  0.55140000  0.24790000  0.78220000  1.0 0.1389497468
H  H76  1  0.61440000  0.30990000  0.65730000  1.0 0.1216410496
H  H77  1  0.62320000  0.26940000  0.69690000  1.0 0.1577317366
H  H78  1  0.65260000  0.30270000  0.71000000  1.0 0.1389497468
H  H79  1  0.56400000  0.07420000  0.80330000  1.0 0.1577317366
H  H80  1  0.56500000  0.02970000  0.79340000  1.0 0.1389497468
H  H81  1  0.53040000  0.04950000  0.84160000  1.0 0.1327442111
H  H82  1  0.54790000  0.13220000  0.06130000  1.0 0.0914831507
H  H83  1  0.52370000  0.13310000  0.97190000  1.0 0.0770688328
H  H84  1  0.56830000  0.13150000  0.96680000  1.0 0.0914831507
H  H85  1  0.74910000  0.21790000  0.52900000  1.0 0.0481801978
H  H86  1  0.71770000  0.18600000  0.53230000  1.0 0.0770688328
H  H87  1  0.73260000  0.20110000  0.43870000  1.0 0.0481801978
H  H88  1  0.68940000  0.02480000  0.03640000  1.0 0.0560952188
H  H89  1  0.68910000  0.04270000  0.93900000  1.0 0.0481801978
H  H90  1  0.68860000  0.06920000  0.02450000  1.0 0.0429608249
H  H91  1  0.47180000  0.71940000  0.82880000  1.0 0.1216410496
H  H92  1  0.42720000  0.71930000  0.83320000  1.0 0.1487016826
H  H93  1  0.44860000  0.75210000  0.78220000  1.0 0.1389497468
H  H94  1  0.38560000  0.69010000  0.65730000  1.0 0.1216410496
H  H95  1  0.37680000  0.73060000  0.69690000  1.0 0.1577317366
H  H96  1  0.34740000  0.69730000  0.71000000  1.0 0.1389497468
H  H97  1  0.43600000  0.92580000  0.80330000  1.0 0.1577317366
H  H98  1  0.43500000  0.97030000  0.79340000  1.0 0.1389497468
H  H99  1  0.46960000  0.95050000  0.84160000  1.0 0.1327442111
H  H100  1  0.45210000  0.86780000  0.06130000  1.0 0.0914831507
H  H101  1  0.47630000  0.86690000  0.97190000  1.0 0.0770688328
H  H102  1  0.43170000  0.86850000  0.96680000  1.0 0.0914831507
H  H103  1  0.25090000  0.78210000  0.52900000  1.0 0.0481801978
H  H104  1  0.28230000  0.81400000  0.53230000  1.0 0.0770688328
H  H105  1  0.26740000  0.79890000  0.43870000  1.0 0.0481801978
H  H106  1  0.31060000  0.97520000  0.03640000  1.0 0.0560952188
H  H107  1  0.31090000  0.95730000  0.93900000  1.0 0.0481801978
H  H108  1  0.31140000  0.93080000  0.02450000  1.0 0.0429608249
H  H109  1  0.71940000  0.52820000  0.82880000  1.0 0.1216410496
H  H110  1  0.71930000  0.57280000  0.83320000  1.0 0.1487016826
H  H111  1  0.75210000  0.55140000  0.78220000  1.0 0.1389497468
H  H112  1  0.69010000  0.61440000  0.65730000  1.0 0.1216410496
H  H113  1  0.73060000  0.62320000  0.69690000  1.0 0.1577317366
H  H114  1  0.69730000  0.65260000  0.71000000  1.0 0.1389497468
H  H115  1  0.92580000  0.56400000  0.80330000  1.0 0.1577317366
H  H116  1  0.97030000  0.56500000  0.79340000  1.0 0.1389497468
H  H117  1  0.95050000  0.53040000  0.84160000  1.0 0.1327442111
H  H118  1  0.86780000  0.54790000  0.06130000  1.0 0.0914831507
H  H119  1  0.86690000  0.52370000  0.97190000  1.0 0.0770688328
H  H120  1  0.86850000  0.56830000  0.96680000  1.0 0.0914831507
H  H121  1  0.78210000  0.74910000  0.52900000  1.0 0.0481801978
H  H122  1  0.81400000  0.71770000  0.53230000  1.0 0.0770688328
H  H123  1  0.79890000  0.73260000  0.43870000  1.0 0.0481801978
H  H124  1  0.97520000  0.68940000  0.03640000  1.0 0.0560952188
H  H125  1  0.95730000  0.68910000  0.93900000  1.0 0.0481801978
H  H126  1  0.93080000  0.68860000  0.02450000  1.0 0.0429608249
H  H127  1  0.28060000  0.47180000  0.82880000  1.0 0.1216410496
H  H128  1  0.28070000  0.42720000  0.83320000  1.0 0.1487016826
H  H129  1  0.24790000  0.44860000  0.78220000  1.0 0.1389497468
H  H130  1  0.30990000  0.38560000  0.65730000  1.0 0.1216410496
H  H131  1  0.26940000  0.37680000  0.69690000  1.0 0.1577317366
H  H132  1  0.30270000  0.34740000  0.71000000  1.0 0.1389497468
H  H133  1  0.07420000  0.43600000  0.80330000  1.0 0.1577317366
H  H134  1  0.02970000  0.43500000  0.79340000  1.0 0.1389497468
H  H135  1  0.04950000  0.46960000  0.84160000  1.0 0.1327442111
H  H136  1  0.13220000  0.45210000  0.06130000  1.0 0.0914831507
H  H137  1  0.13310000  0.47630000  0.97190000  1.0 0.0770688328
H  H138  1  0.13150000  0.43170000  0.96680000  1.0 0.0914831507
H  H139  1  0.21790000  0.25090000  0.52900000  1.0 0.0481801978
H  H140  1  0.18600000  0.28230000  0.53230000  1.0 0.0770688328
H  H141  1  0.20110000  0.26740000  0.43870000  1.0 0.0481801978
H  H142  1  0.02480000  0.31060000  0.03640000  1.0 0.0560952188
H  H143  1  0.04270000  0.31090000  0.93900000  1.0 0.0481801978
H  H144  1  0.06920000  0.31140000  0.02450000  1.0 0.0429608249
H  H145  1  0.47180000  0.28060000  0.82880000  1.0 0.1216410496
H  H146  1  0.42720000  0.28070000  0.83320000  1.0 0.1487016826
H  H147  1  0.44860000  0.24790000  0.78220000  1.0 0.1389497468
H  H148  1  0.38560000  0.30990000  0.65730000  1.0 0.1216410496
H  H149  1  0.37680000  0.26940000  0.69690000  1.0 0.1577317366
H  H150  1  0.34740000  0.30270000  0.71000000  1.0 0.1389497468
H  H151  1  0.43600000  0.07420000  0.80330000  1.0 0.1577317366
H  H152  1  0.43500000  0.02970000  0.79340000  1.0 0.1389497468
H  H153  1  0.46960000  0.04950000  0.84160000  1.0 0.1327442111
H  H154  1  0.45210000  0.13220000  0.06130000  1.0 0.0914831507
H  H155  1  0.47630000  0.13310000  0.97190000  1.0 0.0770688328
H  H156  1  0.43170000  0.13150000  0.96680000  1.0 0.0914831507
H  H157  1  0.25090000  0.21790000  0.52900000  1.0 0.0481801978
H  H158  1  0.28230000  0.18600000  0.53230000  1.0 0.0770688328
H  H159  1  0.26740000  0.20110000  0.43870000  1.0 0.0481801978
H  H160  1  0.31060000  0.02480000  0.03640000  1.0 0.0560952188
H  H161  1  0.31090000  0.04270000  0.93900000  1.0 0.0481801978
H  H162  1  0.31140000  0.06920000  0.02450000  1.0 0.0429608249
H  H163  1  0.52820000  0.71940000  0.82880000  1.0 0.1216410496
H  H164  1  0.57280000  0.71930000  0.83320000  1.0 0.1487016826
H  H165  1  0.55140000  0.75210000  0.78220000  1.0 0.1389497468
H  H166  1  0.61440000  0.69010000  0.65730000  1.0 0.1216410496
H  H167  1  0.62320000  0.73060000  0.69690000  1.0 0.1577317366
H  H168  1  0.65260000  0.69730000  0.71000000  1.0 0.1389497468
H  H169  1  0.56400000  0.92580000  0.80330000  1.0 0.1577317366
H  H170  1  0.56500000  0.97030000  0.79340000  1.0 0.1389497468
H  H171  1  0.53040000  0.95050000  0.84160000  1.0 0.1327442111
H  H172  1  0.54790000  0.86780000  0.06130000  1.0 0.0914831507
H  H173  1  0.52370000  0.86690000  0.97190000  1.0 0.0770688328
H  H174  1  0.56830000  0.86850000  0.96680000  1.0 0.0914831507
H  H175  1  0.74910000  0.78210000  0.52900000  1.0 0.0481801978
H  H176  1  0.71770000  0.81400000  0.53230000  1.0 0.0770688328
H  H177  1  0.73260000  0.79890000  0.43870000  1.0 0.0481801978
H  H178  1  0.68940000  0.97520000  0.03640000  1.0 0.0560952188
H  H179  1  0.68910000  0.95730000  0.93900000  1.0 0.0481801978
H  H180  1  0.68860000  0.93080000  0.02450000  1.0 0.0429608249
H  H181  1  0.28060000  0.52820000  0.82880000  1.0 0.1216410496
H  H182  1  0.28070000  0.57280000  0.83320000  1.0 0.1487016826
H  H183  1  0.24790000  0.55140000  0.78220000  1.0 0.1389497468
H  H184  1  0.30990000  0.61440000  0.65730000  1.0 0.1216410496
H  H185  1  0.26940000  0.62320000  0.69690000  1.0 0.1577317366
H  H186  1  0.30270000  0.65260000  0.71000000  1.0 0.1389497468
H  H187  1  0.07420000  0.56400000  0.80330000  1.0 0.1577317366
H  H188  1  0.02970000  0.56500000  0.79340000  1.0 0.1389497468
H  H189  1  0.04950000  0.53040000  0.84160000  1.0 0.1327442111
H  H190  1  0.13220000  0.54790000  0.06130000  1.0 0.0914831507
H  H191  1  0.13310000  0.52370000  0.97190000  1.0 0.0770688328
H  H192  1  0.13150000  0.56830000  0.96680000  1.0 0.0914831507
H  H193  1  0.21790000  0.74910000  0.52900000  1.0 0.0481801978
H  H194  1  0.18600000  0.71770000  0.53230000  1.0 0.0770688328
H  H195  1  0.20110000  0.73260000  0.43870000  1.0 0.0481801978
H  H196  1  0.02480000  0.68940000  0.03640000  1.0 0.0560952188
H  H197  1  0.04270000  0.68910000  0.93900000  1.0 0.0481801978
H  H198  1  0.06920000  0.68860000  0.02450000  1.0 0.0429608249
H  H199  1  0.71940000  0.47180000  0.82880000  1.0 0.1216410496
H  H200  1  0.71930000  0.42720000  0.83320000  1.0 0.1487016826
H  H201  1  0.75210000  0.44860000  0.78220000  1.0 0.1389497468
H  H202  1  0.69010000  0.38560000  0.65730000  1.0 0.1216410496
H  H203  1  0.73060000  0.37680000  0.69690000  1.0 0.1577317366
H  H204  1  0.69730000  0.34740000  0.71000000  1.0 0.1389497468
H  H205  1  0.92580000  0.43600000  0.80330000  1.0 0.1577317366
H  H206  1  0.97030000  0.43500000  0.79340000  1.0 0.1389497468
H  H207  1  0.95050000  0.46960000  0.84160000  1.0 0.1327442111
H  H208  1  0.86780000  0.45210000  0.06130000  1.0 0.0914831507
H  H209  1  0.86690000  0.47630000  0.97190000  1.0 0.0770688328
H  H210  1  0.86850000  0.43170000  0.96680000  1.0 0.0914831507
H  H211  1  0.78210000  0.25090000  0.52900000  1.0 0.0481801978
H  H212  1  0.81400000  0.28230000  0.53230000  1.0 0.0770688328
H  H213  1  0.79890000  0.26740000  0.43870000  1.0 0.0481801978
H  H214  1  0.97520000  0.31060000  0.03640000  1.0 0.0560952188
H  H215  1  0.95730000  0.31090000  0.93900000  1.0 0.0481801978
H  H216  1  0.93080000  0.31140000  0.02450000  1.0 0.0429608249
H  H217  1  0.47180000  0.71940000  0.17120000  1.0 0.1216410496
H  H218  1  0.42720000  0.71930000  0.16680000  1.0 0.1487016826
H  H219  1  0.44860000  0.75210000  0.21780000  1.0 0.1389497468
H  H220  1  0.38560000  0.69010000  0.34270000  1.0 0.1216410496
H  H221  1  0.37680000  0.73060000  0.30310000  1.0 0.1577317366
H  H222  1  0.34740000  0.69730000  0.29000000  1.0 0.1389497468
H  H223  1  0.43600000  0.92580000  0.19670000  1.0 0.1577317366
H  H224  1  0.43500000  0.97030000  0.20660000  1.0 0.1389497468
H  H225  1  0.46960000  0.95050000  0.15840000  1.0 0.1327442111
H  H226  1  0.45210000  0.86780000  0.93870000  1.0 0.0914831507
H  H227  1  0.47630000  0.86690000  0.02810000  1.0 0.0770688328
H  H228  1  0.43170000  0.86850000  0.03320000  1.0 0.0914831507
H  H229  1  0.25090000  0.78210000  0.47100000  1.0 0.0481801978
H  H230  1  0.28230000  0.81400000  0.46770000  1.0 0.0770688328
H  H231  1  0.26740000  0.79890000  0.56130000  1.0 0.0481801978
H  H232  1  0.31060000  0.97520000  0.96360000  1.0 0.0560952188
H  H233  1  0.31090000  0.95730000  0.06100000  1.0 0.0481801978
H  H234  1  0.31140000  0.93080000  0.97550000  1.0 0.0481801978
H  H235  1  0.52820000  0.28060000  0.17120000  1.0 0.1216410496
H  H236  1  0.57280000  0.28070000  0.16680000  1.0 0.1487016826
H  H237  1  0.55140000  0.24790000  0.21780000  1.0 0.1389497468
H  H238  1  0.61440000  0.30990000  0.34270000  1.0 0.1216410496
H  H239  1  0.62320000  0.26940000  0.30310000  1.0 0.1577317366
H  H240  1  0.65260000  0.30270000  0.29000000  1.0 0.1389497468
H  H241  1  0.56400000  0.07420000  0.19670000  1.0 0.1577317366
H  H242  1  0.56500000  0.02970000  0.20660000  1.0 0.1389497468
H  H243  1  0.53040000  0.04950000  0.15840000  1.0 0.1327442111
H  H244  1  0.54790000  0.13220000  0.93870000  1.0 0.0914831507
H  H245  1  0.52370000  0.13310000  0.02810000  1.0 0.0770688328
H  H246  1  0.56830000  0.13150000  0.03320000  1.0 0.0914831507
H  H247  1  0.74910000  0.21790000  0.47100000  1.0 0.0481801978
H  H248  1  0.71770000  0.18600000  0.46770000  1.0 0.0770688328
H  H249  1  0.73260000  0.20110000  0.56130000  1.0 0.0481801978
H  H250  1  0.68940000  0.02480000  0.96360000  1.0 0.0560952188
H  H251  1  0.68910000  0.04270000  0.06100000  1.0 0.0481801978
H  H252  1  0.68860000  0.06920000  0.97550000  1.0 0.0481801978
H  H253  1  0.28060000  0.47180000  0.17120000  1.0 0.1216410496
H  H254  1  0.28070000  0.42720000  0.16680000  1.0 0.1487016826
H  H255  1  0.24790000  0.44860000  0.21780000  1.0 0.1389497468
H  H256  1  0.30990000  0.38560000  0.34270000  1.0 0.1216410496
H  H257  1  0.26940000  0.37680000  0.30310000  1.0 0.1577317366
H  H258  1  0.30270000  0.34740000  0.29000000  1.0 0.1389497468
H  H259  1  0.07420000  0.43600000  0.19670000  1.0 0.1577317366
H  H260  1  0.02970000  0.43500000  0.20660000  1.0 0.1389497468
H  H261  1  0.04950000  0.46960000  0.15840000  1.0 0.1327442111
H  H262  1  0.13220000  0.45210000  0.93870000  1.0 0.0914831507
H  H263  1  0.13310000  0.47630000  0.02810000  1.0 0.0770688328
H  H264  1  0.13150000  0.43170000  0.03320000  1.0 0.0914831507
H  H265  1  0.21790000  0.25090000  0.47100000  1.0 0.0481801978
H  H266  1  0.18600000  0.28230000  0.46770000  1.0 0.0770688328
H  H267  1  0.20110000  0.26740000  0.56130000  1.0 0.0481801978
H  H268  1  0.02480000  0.31060000  0.96360000  1.0 0.0560952188
H  H269  1  0.04270000  0.31090000  0.06100000  1.0 0.0481801978
H  H270  1  0.06920000  0.31140000  0.97550000  1.0 0.0481801978
H  H271  1  0.71940000  0.52820000  0.17120000  1.0 0.1216410496
H  H272  1  0.71930000  0.57280000  0.16680000  1.0 0.1487016826
H  H273  1  0.75210000  0.55140000  0.21780000  1.0 0.1389497468
H  H274  1  0.69010000  0.61440000  0.34270000  1.0 0.1216410496
H  H275  1  0.73060000  0.62320000  0.30310000  1.0 0.1577317366
H  H276  1  0.69730000  0.65260000  0.29000000  1.0 0.1389497468
H  H277  1  0.92580000  0.56400000  0.19670000  1.0 0.1577317366
H  H278  1  0.97030000  0.56500000  0.20660000  1.0 0.1389497468
H  H279  1  0.95050000  0.53040000  0.15840000  1.0 0.1327442111
H  H280  1  0.86780000  0.54790000  0.93870000  1.0 0.0914831507
H  H281  1  0.86690000  0.52370000  0.02810000  1.0 0.0770688328
H  H282  1  0.86850000  0.56830000  0.03320000  1.0 0.0914831507
H  H283  1  0.78210000  0.74910000  0.47100000  1.0 0.0481801978
H  H284  1  0.81400000  0.71770000  0.46770000  1.0 0.0770688328
H  H285  1  0.79890000  0.73260000  0.56130000  1.0 0.0481801978
H  H286  1  0.97520000  0.68940000  0.96360000  1.0 0.0560952188
H  H287  1  0.95730000  0.68910000  0.06100000  1.0 0.0481801978
H  H288  1  0.93080000  0.68860000  0.97550000  1.0 0.0481801978
H  H289  1  0.61950000  0.69190000  0.50000000  1.0 0.1686641523
H  H290  1  0.38050000  0.30810000  0.50000000  1.0 0.1686641523
H  H291  1  0.69190000  0.38050000  0.50000000  1.0 0.1686641523
H  H292  1  0.30810000  0.61950000  0.50000000  1.0 0.1686641523
H  H293  1  0.61950000  0.30810000  0.50000000  1.0 0.1686641523
H  H294  1  0.38050000  0.69190000  0.50000000  1.0 0.1686641523
H  H295  1  0.69190000  0.61950000  0.50000000  1.0 0.1686641523
H  H296  1  0.30810000  0.38050000  0.50000000  1.0 0.1686641523
H  H297  1  0.54990000  0.71440000  0.00000000  1.0 0.1487016826
H  H298  1  0.53370000  0.94970000  0.00000000  1.0 0.1327442111
H  H299  1  0.45010000  0.28560000  0.00000000  1.0 0.1487016826
H  H300  1  0.46630000  0.05030000  0.00000000  1.0 0.1327442111
H  H301  1  0.71440000  0.45010000  0.00000000  1.0 0.1487016826
H  H302  1  0.94970000  0.46630000  0.00000000  1.0 0.1327442111
H  H303  1  0.28560000  0.54990000  0.00000000  1.0 0.1487016826
H  H304  1  0.05030000  0.53370000  0.00000000  1.0 0.1327442111
H  H305  1  0.54990000  0.28560000  0.00000000  1.0 0.1487016826
H  H306  1  0.53370000  0.05030000  0.00000000  1.0 0.1327442111
H  H307  1  0.45010000  0.71440000  0.00000000  1.0 0.1487016826
H  H308  1  0.46630000  0.94970000  0.00000000  1.0 0.1327442111
H  H309  1  0.71440000  0.54990000  0.00000000  1.0 0.1487016826
H  H310  1  0.94970000  0.53370000  0.00000000  1.0 0.1327442111
H  H311  1  0.28560000  0.45010000  0.00000000  1.0 0.1487016826
H  H312  1  0.05030000  0.46630000  0.00000000  1.0 0.1327442111
C  C1  1  0.56680000  0.85190000  0.28230000  1.0 0.4565866073
C  C2  1  0.57810000  0.82550000  0.20040000  1.0 0.3772520074
C  C3  1  0.70450000  0.80300000  0.22120000  1.0 0.4891585955
C  C4  1  0.68630000  0.78970000  0.30740000  1.0 0.3326516026
C  C5  1  0.64570000  0.92430000  0.19840000  1.0 0.3326516026
C  C6  1  0.66650000  0.92710000  0.28230000  1.0 0.444516391
C  C7  1  0.54790000  0.79590000  0.07880000  1.0 0.1061911649
C  C8  1  0.54910000  0.75750000  0.08210000  1.0 0.0914831507
C  C9  1  0.55050000  0.73510000  0.16690000  1.0 -0.4122220477
C  C10  1  0.68310000  0.74730000  0.42170000  1.0 0.0914831507
C  C11  1  0.65390000  0.71950000  0.41960000  1.0 0.1327442111
C  C12  1  0.63420000  0.70830000  0.33050000  1.0 -0.4122220477
C  C13  1  0.61560000  0.95450000  0.07660000  1.0 0.0690555894
C  C14  1  0.57680000  0.95240000  0.08320000  1.0 0.0914831507
C  C15  1  0.55740000  0.94950000  0.16820000  1.0 -0.4301373497
C  C16  1  0.43320000  0.14810000  0.28230000  1.0 0.4565866073
C  C17  1  0.42190000  0.17450000  0.20040000  1.0 0.3772520074
C  C18  1  0.29550000  0.19700000  0.22120000  1.0 0.4891585955
C  C19  1  0.31370000  0.21030000  0.30740000  1.0 0.3326516026
C  C20  1  0.35430000  0.07570000  0.19840000  1.0 0.3326516026
C  C21  1  0.33350000  0.07290000  0.28230000  1.0 0.444516391
C  C22  1  0.45210000  0.20410000  0.07880000  1.0 0.1061911649
C  C23  1  0.45090000  0.24250000  0.08210000  1.0 0.0914831507
C  C24  1  0.44950000  0.26490000  0.16690000  1.0 -0.4122220477
C  C25  1  0.31690000  0.25270000  0.42170000  1.0 0.0914831507
C  C26  1  0.34610000  0.28050000  0.41960000  1.0 0.1327442111
C  C27  1  0.36580000  0.29170000  0.33050000  1.0 -0.4122220477
C  C28  1  0.38440000  0.04550000  0.07660000  1.0 0.0690555894
C  C29  1  0.42320000  0.04760000  0.08320000  1.0 0.0914831507
C  C30  1  0.44260000  0.05050000  0.16820000  1.0 -0.4301373497
C  C31  1  0.85190000  0.43320000  0.28230000  1.0 0.4565866073
C  C32  1  0.82550000  0.42190000  0.20040000  1.0 0.3772520074
C  C33  1  0.80300000  0.29550000  0.22120000  1.0 0.4891585955
C  C34  1  0.78970000  0.31370000  0.30740000  1.0 0.3326516026
C  C35  1  0.92430000  0.35430000  0.19840000  1.0 0.3326516026
C  C36  1  0.92710000  0.33350000  0.28230000  1.0 0.444516391
C  C37  1  0.79590000  0.45210000  0.07880000  1.0 0.1061911649
C  C38  1  0.75750000  0.45090000  0.08210000  1.0 0.0914831507
C  C39  1  0.73510000  0.44950000  0.16690000  1.0 -0.4122220477
C  C40  1  0.74730000  0.31690000  0.42170000  1.0 0.0914831507
C  C41  1  0.71950000  0.34610000  0.41960000  1.0 0.1327442111
C  C42  1  0.70830000  0.36580000  0.33050000  1.0 -0.4122220477
C  C43  1  0.95450000  0.38440000  0.07660000  1.0 0.0690555894
C  C44  1  0.95240000  0.42320000  0.08320000  1.0 0.0914831507
C  C45  1  0.94950000  0.44260000  0.16820000  1.0 -0.4301373497
C  C46  1  0.14810000  0.56680000  0.28230000  1.0 0.4565866073
C  C47  1  0.17450000  0.57810000  0.20040000  1.0 0.3772520074
C  C48  1  0.19700000  0.70450000  0.22120000  1.0 0.4891585955
C  C49  1  0.21030000  0.68630000  0.30740000  1.0 0.3326516026
C  C50  1  0.07570000  0.64570000  0.19840000  1.0 0.3326516026
C  C51  1  0.07290000  0.66650000  0.28230000  1.0 0.444516391
C  C52  1  0.20410000  0.54790000  0.07880000  1.0 0.1061911649
C  C53  1  0.24250000  0.54910000  0.08210000  1.0 0.0914831507
C  C54  1  0.26490000  0.55050000  0.16690000  1.0 -0.4122220477
C  C55  1  0.25270000  0.68310000  0.42170000  1.0 0.0914831507
C  C56  1  0.28050000  0.65390000  0.41960000  1.0 0.1327442111
C  C57  1  0.29170000  0.63420000  0.33050000  1.0 -0.4122220477
C  C58  1  0.04550000  0.61560000  0.07660000  1.0 0.0690555894
C  C59  1  0.04760000  0.57680000  0.08320000  1.0 0.0914831507
C  C60  1  0.05050000  0.55740000  0.16820000  1.0 -0.4301373497
C  C61  1  0.56680000  0.14810000  0.71770000  1.0 0.4565866073
C  C62  1  0.57810000  0.17450000  0.79960000  1.0 0.3772520074
C  C63  1  0.70450000  0.19700000  0.77880000  1.0 0.4891585955
C  C64  1  0.68630000  0.21030000  0.69260000  1.0 0.3326516026
C  C65  1  0.64570000  0.07570000  0.80160000  1.0 0.3326516026
C  C66  1  0.66650000  0.07290000  0.71770000  1.0 0.444516391
C  C67  1  0.54790000  0.20410000  0.92120000  1.0 0.1061911649
C  C68  1  0.54910000  0.24250000  0.91790000  1.0 0.0914831507
C  C69  1  0.55050000  0.26490000  0.83310000  1.0 -0.4122220477
C  C70  1  0.68310000  0.25270000  0.57830000  1.0 0.0914831507
C  C71  1  0.65390000  0.28050000  0.58040000  1.0 0.1327442111
C  C72  1  0.63420000  0.29170000  0.66950000  1.0 -0.4122220477
C  C73  1  0.61560000  0.04550000  0.92340000  1.0 0.0690555894
C  C74  1  0.57680000  0.04760000  0.91680000  1.0 0.0914831507
C  C75  1  0.55740000  0.05050000  0.83180000  1.0 -0.4301373497
C  C76  1  0.43320000  0.85190000  0.71770000  1.0 0.4565866073
C  C77  1  0.42190000  0.82550000  0.79960000  1.0 0.3772520074
C  C78  1  0.29550000  0.80300000  0.77880000  1.0 0.4891585955
C  C79  1  0.31370000  0.78970000  0.69260000  1.0 0.3326516026
C  C80  1  0.35430000  0.92430000  0.80160000  1.0 0.3326516026
C  C81  1  0.33350000  0.92710000  0.71770000  1.0 0.444516391
C  C82  1  0.45210000  0.79590000  0.92120000  1.0 0.1061911649
C  C83  1  0.45090000  0.75750000  0.91790000  1.0 0.0914831507
C  C84  1  0.44950000  0.73510000  0.83310000  1.0 -0.4122220477
C  C85  1  0.31690000  0.74730000  0.57830000  1.0 0.0914831507
C  C86  1  0.34610000  0.71950000  0.58040000  1.0 0.1327442111
C  C87  1  0.36580000  0.70830000  0.66950000  1.0 -0.4122220477
C  C88  1  0.38440000  0.95450000  0.92340000  1.0 0.0690555894
C  C89  1  0.42320000  0.95240000  0.91680000  1.0 0.0914831507
C  C90  1  0.44260000  0.94950000  0.83180000  1.0 -0.4301373497
C  C91  1  0.85190000  0.56680000  0.71770000  1.0 0.4565866073
C  C92  1  0.82550000  0.57810000  0.79960000  1.0 0.3772520074
C  C93  1  0.80300000  0.70450000  0.77880000  1.0 0.4891585955
C  C94  1  0.78970000  0.68630000  0.69260000  1.0 0.3326516026
C  C95  1  0.92430000  0.64570000  0.80160000  1.0 0.3326516026
C  C96  1  0.92710000  0.66650000  0.71770000  1.0 0.444516391
C  C97  1  0.79590000  0.54790000  0.92120000  1.0 0.1061911649
C  C98  1  0.75750000  0.54910000  0.91790000  1.0 0.0914831507
C  C99  1  0.73510000  0.55050000  0.83310000  1.0 -0.4122220477
C  C100  1  0.74730000  0.68310000  0.57830000  1.0 0.0914831507
C  C101  1  0.71950000  0.65390000  0.58040000  1.0 0.1327442111
C  C102  1  0.70830000  0.63420000  0.66950000  1.0 -0.4122220477
C  C103  1  0.95450000  0.61560000  0.92340000  1.0 0.0690555894
C  C104  1  0.95240000  0.57680000  0.91680000  1.0 0.0914831507
C  C105  1  0.94950000  0.55740000  0.83180000  1.0 -0.4301373497
C  C106  1  0.14810000  0.43320000  0.71770000  1.0 0.4565866073
C  C107  1  0.17450000  0.42190000  0.79960000  1.0 0.3772520074
C  C108  1  0.19700000  0.29550000  0.77880000  1.0 0.4891585955
C  C109  1  0.21030000  0.31370000  0.69260000  1.0 0.3326516026
C  C110  1  0.07570000  0.35430000  0.80160000  1.0 0.3326516026
C  C111  1  0.07290000  0.33350000  0.71770000  1.0 0.444516391
C  C112  1  0.20410000  0.45210000  0.92120000  1.0 0.1061911649
C  C113  1  0.24250000  0.45090000  0.91790000  1.0 0.0914831507
C  C114  1  0.26490000  0.44950000  0.83310000  1.0 -0.4122220477
C  C115  1  0.25270000  0.31690000  0.57830000  1.0 0.0914831507
C  C116  1  0.28050000  0.34610000  0.58040000  1.0 0.1327442111
C  C117  1  0.29170000  0.36580000  0.66950000  1.0 -0.4122220477
C  C118  1  0.04550000  0.38440000  0.92340000  1.0 0.0690555894
C  C119  1  0.04760000  0.42320000  0.91680000  1.0 0.0914831507
C  C120  1  0.05050000  0.44260000  0.83180000  1.0 -0.4301373497
C  C121  1  0.43320000  0.14810000  0.71770000  1.0 0.4565866073
C  C122  1  0.42190000  0.17450000  0.79960000  1.0 0.3772520074
C  C123  1  0.29550000  0.19700000  0.77880000  1.0 0.4891585955
C  C124  1  0.31370000  0.21030000  0.69260000  1.0 0.3326516026
C  C125  1  0.35430000  0.07570000  0.80160000  1.0 0.3326516026
C  C126  1  0.33350000  0.07290000  0.71770000  1.0 0.444516391
C  C127  1  0.45210000  0.20410000  0.92120000  1.0 0.1061911649
C  C128  1  0.45090000  0.24250000  0.91790000  1.0 0.0914831507
C  C129  1  0.44950000  0.26490000  0.83310000  1.0 -0.4122220477
C  C130  1  0.31690000  0.25270000  0.57830000  1.0 0.0914831507
C  C131  1  0.34610000  0.28050000  0.58040000  1.0 0.1327442111
C  C132  1  0.36580000  0.29170000  0.66950000  1.0 -0.4122220477
C  C133  1  0.38440000  0.04550000  0.92340000  1.0 0.0690555894
C  C134  1  0.42320000  0.04760000  0.91680000  1.0 0.0914831507
C  C135  1  0.44260000  0.05050000  0.83180000  1.0 -0.4301373497
C  C136  1  0.56680000  0.85190000  0.71770000  1.0 0.4565866073
C  C137  1  0.57810000  0.82550000  0.79960000  1.0 0.3772520074
C  C138  1  0.70450000  0.80300000  0.77880000  1.0 0.4891585955
C  C139  1  0.68630000  0.78970000  0.69260000  1.0 0.3326516026
C  C140  1  0.64570000  0.92430000  0.80160000  1.0 0.3326516026
C  C141  1  0.66650000  0.92710000  0.71770000  1.0 0.444516391
C  C142  1  0.54790000  0.79590000  0.92120000  1.0 0.1061911649
C  C143  1  0.54910000  0.75750000  0.91790000  1.0 0.0914831507
C  C144  1  0.55050000  0.73510000  0.83310000  1.0 -0.4122220477
C  C145  1  0.68310000  0.74730000  0.57830000  1.0 0.0914831507
C  C146  1  0.65390000  0.71950000  0.58040000  1.0 0.1327442111
C  C147  1  0.63420000  0.70830000  0.66950000  1.0 -0.4122220477
C  C148  1  0.61560000  0.95450000  0.92340000  1.0 0.0690555894
C  C149  1  0.57680000  0.95240000  0.91680000  1.0 0.0914831507
C  C150  1  0.55740000  0.94950000  0.83180000  1.0 -0.4301373497
C  C151  1  0.14810000  0.56680000  0.71770000  1.0 0.4565866073
C  C152  1  0.17450000  0.57810000  0.79960000  1.0 0.3772520074
C  C153  1  0.19700000  0.70450000  0.77880000  1.0 0.4891585955
C  C154  1  0.21030000  0.68630000  0.69260000  1.0 0.3326516026
C  C155  1  0.07570000  0.64570000  0.80160000  1.0 0.3326516026
C  C156  1  0.07290000  0.66650000  0.71770000  1.0 0.444516391
C  C157  1  0.20410000  0.54790000  0.92120000  1.0 0.1061911649
C  C158  1  0.24250000  0.54910000  0.91790000  1.0 0.0914831507
C  C159  1  0.26490000  0.55050000  0.83310000  1.0 -0.4122220477
C  C160  1  0.25270000  0.68310000  0.57830000  1.0 0.0914831507
C  C161  1  0.28050000  0.65390000  0.58040000  1.0 0.1327442111
C  C162  1  0.29170000  0.63420000  0.66950000  1.0 -0.4122220477
C  C163  1  0.04550000  0.61560000  0.92340000  1.0 0.0690555894
C  C164  1  0.04760000  0.57680000  0.91680000  1.0 0.0914831507
C  C165  1  0.05050000  0.55740000  0.83180000  1.0 -0.4301373497
C  C166  1  0.85190000  0.43320000  0.71770000  1.0 0.4565866073
C  C167  1  0.82550000  0.42190000  0.79960000  1.0 0.3772520074
C  C168  1  0.80300000  0.29550000  0.77880000  1.0 0.4891585955
C  C169  1  0.78970000  0.31370000  0.69260000  1.0 0.3326516026
C  C170  1  0.92430000  0.35430000  0.80160000  1.0 0.3326516026
C  C171  1  0.92710000  0.33350000  0.71770000  1.0 0.444516391
C  C172  1  0.79590000  0.45210000  0.92120000  1.0 0.1061911649
C  C173  1  0.75750000  0.45090000  0.91790000  1.0 0.0914831507
C  C174  1  0.73510000  0.44950000  0.83310000  1.0 -0.4122220477
C  C175  1  0.74730000  0.31690000  0.57830000  1.0 0.0914831507
C  C176  1  0.71950000  0.34610000  0.58040000  1.0 0.1327442111
C  C177  1  0.70830000  0.36580000  0.66950000  1.0 -0.4122220477
C  C178  1  0.95450000  0.38440000  0.92340000  1.0 0.0690555894
C  C179  1  0.95240000  0.42320000  0.91680000  1.0 0.0914831507
C  C180  1  0.94950000  0.44260000  0.83180000  1.0 -0.4301373497
C  C181  1  0.43320000  0.85190000  0.28230000  1.0 0.4565866073
C  C182  1  0.42190000  0.82550000  0.20040000  1.0 0.3772520074
C  C183  1  0.29550000  0.80300000  0.22120000  1.0 0.4891585955
C  C184  1  0.31370000  0.78970000  0.30740000  1.0 0.3326516026
C  C185  1  0.35430000  0.92430000  0.19840000  1.0 0.3326516026
C  C186  1  0.33350000  0.92710000  0.28230000  1.0 0.444516391
C  C187  1  0.45210000  0.79590000  0.07880000  1.0 0.1061911649
C  C188  1  0.45090000  0.75750000  0.08210000  1.0 0.0914831507
C  C189  1  0.44950000  0.73510000  0.16690000  1.0 -0.4122220477
C  C190  1  0.31690000  0.74730000  0.42170000  1.0 0.0914831507
C  C191  1  0.34610000  0.71950000  0.41960000  1.0 0.1327442111
C  C192  1  0.36580000  0.70830000  0.33050000  1.0 -0.4122220477
C  C193  1  0.38440000  0.95450000  0.07660000  1.0 0.0690555894
C  C194  1  0.42320000  0.95240000  0.08320000  1.0 0.0914831507
C  C195  1  0.44260000  0.94950000  0.16820000  1.0 -0.4301373497
C  C196  1  0.56680000  0.14810000  0.28230000  1.0 0.4565866073
C  C197  1  0.57810000  0.17450000  0.20040000  1.0 0.3772520074
C  C198  1  0.70450000  0.19700000  0.22120000  1.0 0.4891585955
C  C199  1  0.68630000  0.21030000  0.30740000  1.0 0.3326516026
C  C200  1  0.64570000  0.07570000  0.19840000  1.0 0.3326516026
C  C201  1  0.66650000  0.07290000  0.28230000  1.0 0.444516391
C  C202  1  0.54790000  0.20410000  0.07880000  1.0 0.1061911649
C  C203  1  0.54910000  0.24250000  0.08210000  1.0 0.0914831507
C  C204  1  0.55050000  0.26490000  0.16690000  1.0 -0.4122220477
C  C205  1  0.68310000  0.25270000  0.42170000  1.0 0.0914831507
C  C206  1  0.65390000  0.28050000  0.41960000  1.0 0.1327442111
C  C207  1  0.63420000  0.29170000  0.33050000  1.0 -0.4122220477
C  C208  1  0.61560000  0.04550000  0.07660000  1.0 0.0690555894
C  C209  1  0.57680000  0.04760000  0.08320000  1.0 0.0914831507
C  C210  1  0.55740000  0.05050000  0.16820000  1.0 -0.4301373497
C  C211  1  0.14810000  0.43320000  0.28230000  1.0 0.4565866073
C  C212  1  0.17450000  0.42190000  0.20040000  1.0 0.3772520074
C  C213  1  0.19700000  0.29550000  0.22120000  1.0 0.4891585955
C  C214  1  0.21030000  0.31370000  0.30740000  1.0 0.3326516026
C  C215  1  0.07570000  0.35430000  0.19840000  1.0 0.3326516026
C  C216  1  0.07290000  0.33350000  0.28230000  1.0 0.444516391
C  C217  1  0.20410000  0.45210000  0.07880000  1.0 0.1061911649
C  C218  1  0.24250000  0.45090000  0.08210000  1.0 0.0914831507
C  C219  1  0.26490000  0.44950000  0.16690000  1.0 -0.4122220477
C  C220  1  0.25270000  0.31690000  0.42170000  1.0 0.0914831507
C  C221  1  0.28050000  0.34610000  0.41960000  1.0 0.1327442111
C  C222  1  0.29170000  0.36580000  0.33050000  1.0 -0.4122220477
C  C223  1  0.04550000  0.38440000  0.07660000  1.0 0.0690555894
C  C224  1  0.04760000  0.42320000  0.08320000  1.0 0.0914831507
C  C225  1  0.05050000  0.44260000  0.16820000  1.0 -0.4301373497
C  C226  1  0.85190000  0.56680000  0.28230000  1.0 0.4565866073
C  C227  1  0.82550000  0.57810000  0.20040000  1.0 0.3772520074
C  C228  1  0.80300000  0.70450000  0.22120000  1.0 0.4891585955
C  C229  1  0.78970000  0.68630000  0.30740000  1.0 0.3326516026
C  C230  1  0.92430000  0.64570000  0.19840000  1.0 0.3326516026
C  C231  1  0.92710000  0.66650000  0.28230000  1.0 0.444516391
C  C232  1  0.79590000  0.54790000  0.07880000  1.0 0.1061911649
C  C233  1  0.75750000  0.54910000  0.08210000  1.0 0.0914831507
C  C234  1  0.73510000  0.55050000  0.16690000  1.0 -0.4122220477
C  C235  1  0.74730000  0.68310000  0.42170000  1.0 0.0914831507
C  C236  1  0.71950000  0.65390000  0.41960000  1.0 0.1327442111
C  C237  1  0.70830000  0.63420000  0.33050000  1.0 -0.4122220477
C  C238  1  0.95450000  0.61560000  0.07660000  1.0 0.0690555894
C  C239  1  0.95240000  0.57680000  0.08320000  1.0 0.0914831507
C  C240  1  0.94950000  0.55740000  0.16820000  1.0 -0.4301373497
C  C241  1  0.69550000  0.76140000  0.50000000  1.0 -0.0247262196
C  C242  1  0.64020000  0.70850000  0.50000000  1.0 -0.2598884976
C  C243  1  0.72660000  0.79200000  0.50000000  1.0 -0.2219270604
C  C244  1  0.30450000  0.23860000  0.50000000  1.0 -0.0247262196
C  C245  1  0.35980000  0.29150000  0.50000000  1.0 -0.2598884976
C  C246  1  0.27340000  0.20800000  0.50000000  1.0 -0.2219270604
C  C247  1  0.76140000  0.30450000  0.50000000  1.0 -0.0247262196
C  C248  1  0.70850000  0.35980000  0.50000000  1.0 -0.2598884976
C  C249  1  0.79200000  0.27340000  0.50000000  1.0 -0.2219270604
C  C250  1  0.23860000  0.69550000  0.50000000  1.0 -0.0256760264
C  C251  1  0.29150000  0.64020000  0.50000000  1.0 -0.2598884976
C  C252  1  0.20800000  0.72660000  0.50000000  1.0 -0.2219270604
C  C253  1  0.69550000  0.23860000  0.50000000  1.0 -0.0247262196
C  C254  1  0.64020000  0.29150000  0.50000000  1.0 -0.2598884976
C  C255  1  0.72660000  0.20800000  0.50000000  1.0 -0.2219270604
C  C256  1  0.30450000  0.76140000  0.50000000  1.0 -0.0256760264
C  C257  1  0.35980000  0.70850000  0.50000000  1.0 -0.2598884976
C  C258  1  0.27340000  0.79200000  0.50000000  1.0 -0.2219270604
C  C259  1  0.76140000  0.69550000  0.50000000  1.0 -0.0247262196
C  C260  1  0.70850000  0.64020000  0.50000000  1.0 -0.2598884976
C  C261  1  0.79200000  0.72660000  0.50000000  1.0 -0.2219270604
C  C262  1  0.23860000  0.30450000  0.50000000  1.0 -0.0247262196
C  C263  1  0.29150000  0.35980000  0.50000000  1.0 -0.2598884976
C  C264  1  0.20800000  0.27340000  0.50000000  1.0 -0.2219270604
C  C265  1  0.54840000  0.81780000  0.00000000  1.0 -0.012399883
C  C266  1  0.54940000  0.74090000  0.00000000  1.0 -0.2445061929
C  C267  1  0.54690000  0.85860000  0.00000000  1.0 -0.3223898611
C  C268  1  0.56020000  0.95130000  0.00000000  1.0 -0.2219270604
C  C269  1  0.63690000  0.95530000  0.00000000  1.0 -0.012399883
C  C270  1  0.67990000  0.95460000  0.00000000  1.0 -0.2219270604
C  C271  1  0.45160000  0.18220000  0.00000000  1.0 -0.012399883
C  C272  1  0.45060000  0.25910000  0.00000000  1.0 -0.2445061929
C  C273  1  0.45310000  0.14140000  0.00000000  1.0 -0.3223898611
C  C274  1  0.43980000  0.04870000  0.00000000  1.0 -0.2219270604
C  C275  1  0.36310000  0.04470000  0.00000000  1.0 -0.012399883
C  C276  1  0.32010000  0.04540000  0.00000000  1.0 -0.2146519424
C  C277  1  0.81780000  0.45160000  0.00000000  1.0 -0.012399883
C  C278  1  0.74090000  0.45060000  0.00000000  1.0 -0.2445061929
C  C279  1  0.85860000  0.45310000  0.00000000  1.0 -0.3223898611
C  C280  1  0.95130000  0.43980000  0.00000000  1.0 -0.2219270604
C  C281  1  0.95530000  0.36310000  0.00000000  1.0 -0.012399883
C  C282  1  0.95460000  0.32010000  0.00000000  1.0 -0.2219270604
C  C283  1  0.18220000  0.54840000  0.00000000  1.0 -0.012399883
C  C284  1  0.25910000  0.54940000  0.00000000  1.0 -0.2445061929
C  C285  1  0.14140000  0.54690000  0.00000000  1.0 -0.3223898611
C  C286  1  0.04870000  0.56020000  0.00000000  1.0 -0.2219270604
C  C287  1  0.04470000  0.63690000  0.00000000  1.0 -0.012399883
C  C288  1  0.04540000  0.67990000  0.00000000  1.0 -0.2219270604
C  C289  1  0.54840000  0.18220000  0.00000000  1.0 -0.012399883
C  C290  1  0.54940000  0.25910000  0.00000000  1.0 -0.2445061929
C  C291  1  0.54690000  0.14140000  0.00000000  1.0 -0.3223898611
C  C292  1  0.56020000  0.04870000  0.00000000  1.0 -0.2219270604
C  C293  1  0.63690000  0.04470000  0.00000000  1.0 -0.012399883
C  C294  1  0.67990000  0.04540000  0.00000000  1.0 -0.2146519424
C  C295  1  0.45160000  0.81780000  0.00000000  1.0 -0.012399883
C  C296  1  0.45060000  0.74090000  0.00000000  1.0 -0.2445061929
C  C297  1  0.45310000  0.85860000  0.00000000  1.0 -0.3223898611
C  C298  1  0.43980000  0.95130000  0.00000000  1.0 -0.2219270604
C  C299  1  0.36310000  0.95530000  0.00000000  1.0 -0.012399883
C  C300  1  0.32010000  0.95460000  0.00000000  1.0 -0.2219270604
C  C301  1  0.81780000  0.54840000  0.00000000  1.0 -0.012399883
C  C302  1  0.74090000  0.54940000  0.00000000  1.0 -0.2445061929
C  C303  1  0.85860000  0.54690000  0.00000000  1.0 -0.3223898611
C  C304  1  0.95130000  0.56020000  0.00000000  1.0 -0.2219270604
C  C305  1  0.95530000  0.63690000  0.00000000  1.0 -0.012399883
C  C306  1  0.95460000  0.67990000  0.00000000  1.0 -0.2219270604
C  C307  1  0.18220000  0.45160000  0.00000000  1.0 -0.012399883
C  C308  1  0.25910000  0.45060000  0.00000000  1.0 -0.2445061929
C  C309  1  0.14140000  0.45310000  0.00000000  1.0 -0.3223898611
C  C310  1  0.04870000  0.43980000  0.00000000  1.0 -0.2219270604
C  C311  1  0.04470000  0.36310000  0.00000000  1.0 -0.012399883
C  C312  1  0.04540000  0.32010000  0.00000000  1.0 -0.2146519424
N  N1  1  0.54500000  0.81680000  0.16140000  1.0 -0.4960931385
N  N2  1  0.69740000  0.76010000  0.33900000  1.0 -0.3791620037
N  N3  1  0.63610000  0.95710000  0.16280000  1.0 -0.4122220477
N  N4  1  0.45500000  0.18320000  0.16140000  1.0 -0.4960931385
N  N5  1  0.30260000  0.23990000  0.33900000  1.0 -0.3791620037
N  N6  1  0.36390000  0.04290000  0.16280000  1.0 -0.4122220477
N  N7  1  0.81680000  0.45500000  0.16140000  1.0 -0.4960931385
N  N8  1  0.76010000  0.30260000  0.33900000  1.0 -0.3791620037
N  N9  1  0.95710000  0.36390000  0.16280000  1.0 -0.4122220477
N  N10  1  0.18320000  0.54500000  0.16140000  1.0 -0.4960931385
N  N11  1  0.23990000  0.69740000  0.33900000  1.0 -0.3791620037
N  N12  1  0.04290000  0.63610000  0.16280000  1.0 -0.4122220477
N  N13  1  0.54500000  0.18320000  0.83860000  1.0 -0.4960931385
N  N14  1  0.69740000  0.23990000  0.66100000  1.0 -0.3791620037
N  N15  1  0.63610000  0.04290000  0.83720000  1.0 -0.4122220477
N  N16  1  0.45500000  0.81680000  0.83860000  1.0 -0.4960931385
N  N17  1  0.30260000  0.76010000  0.66100000  1.0 -0.3791620037
N  N18  1  0.36390000  0.95710000  0.83720000  1.0 -0.4122220477
N  N19  1  0.81680000  0.54500000  0.83860000  1.0 -0.4960931385
N  N20  1  0.76010000  0.69740000  0.66100000  1.0 -0.3791620037
N  N21  1  0.95710000  0.63610000  0.83720000  1.0 -0.4122220477
N  N22  1  0.18320000  0.45500000  0.83860000  1.0 -0.4960931385
N  N23  1  0.23990000  0.30260000  0.66100000  1.0 -0.3791620037
N  N24  1  0.04290000  0.36390000  0.83720000  1.0 -0.4122220477
N  N25  1  0.45500000  0.18320000  0.83860000  1.0 -0.4960931385
N  N26  1  0.30260000  0.23990000  0.66100000  1.0 -0.3791620037
N  N27  1  0.36390000  0.04290000  0.83720000  1.0 -0.4122220477
N  N28  1  0.54500000  0.81680000  0.83860000  1.0 -0.4960931385
N  N29  1  0.69740000  0.76010000  0.66100000  1.0 -0.3791620037
N  N30  1  0.63610000  0.95710000  0.83720000  1.0 -0.4122220477
N  N31  1  0.18320000  0.54500000  0.83860000  1.0 -0.4960931385
N  N32  1  0.23990000  0.69740000  0.66100000  1.0 -0.3791620037
N  N33  1  0.04290000  0.63610000  0.83720000  1.0 -0.4122220477
N  N34  1  0.81680000  0.45500000  0.83860000  1.0 -0.4960931385
N  N35  1  0.76010000  0.30260000  0.66100000  1.0 -0.3791620037
N  N36  1  0.95710000  0.36390000  0.83720000  1.0 -0.4122220477
N  N37  1  0.45500000  0.81680000  0.16140000  1.0 -0.4960931385
N  N38  1  0.30260000  0.76010000  0.33900000  1.0 -0.3791620037
N  N39  1  0.36390000  0.95710000  0.16280000  1.0 -0.4122220477
N  N40  1  0.54500000  0.18320000  0.16140000  1.0 -0.4960931385
N  N41  1  0.69740000  0.23990000  0.33900000  1.0 -0.3791620037
N  N42  1  0.63610000  0.04290000  0.16280000  1.0 -0.4122220477
N  N43  1  0.18320000  0.45500000  0.16140000  1.0 -0.4960931385
N  N44  1  0.23990000  0.30260000  0.33900000  1.0 -0.3791620037
N  N45  1  0.04290000  0.36390000  0.16280000  1.0 -0.4122220477
N  N46  1  0.81680000  0.54500000  0.16140000  1.0 -0.4960931385
N  N47  1  0.76010000  0.69740000  0.33900000  1.0 -0.3791620037
N  N48  1  0.95710000  0.63610000  0.16280000  1.0 -0.4122220477
O  O1  1  0.60920000  0.81820000  0.18080000  1.0 -0.3791620037
O  O2  1  0.59740000  0.86500000  0.31910000  1.0 -0.4809052816
O  O3  1  0.53510000  0.86030000  0.30350000  1.0 -0.3920601974
O  O4  1  0.66010000  0.81120000  0.33720000  1.0 -0.4171296186
O  O5  1  0.69240000  0.83420000  0.18820000  1.0 -0.4809052816
O  O6  1  0.73050000  0.78410000  0.19290000  1.0 -0.4439815334
O  O7  1  0.67400000  0.89540000  0.32090000  1.0 -0.4621756888
O  O8  1  0.63770000  0.89370000  0.16520000  1.0 -0.4621756888
O  O9  1  0.67380000  0.95930000  0.31070000  1.0 -0.4301373497
O  O10  1  0.39080000  0.18180000  0.18080000  1.0 -0.3791620037
O  O11  1  0.40260000  0.13500000  0.31910000  1.0 -0.4809052816
O  O12  1  0.46490000  0.13970000  0.30350000  1.0 -0.3920601974
O  O13  1  0.33990000  0.18880000  0.33720000  1.0 -0.4171296186
O  O14  1  0.30760000  0.16580000  0.18820000  1.0 -0.4809052816
O  O15  1  0.26950000  0.21590000  0.19290000  1.0 -0.4439815334
O  O16  1  0.32600000  0.10460000  0.32090000  1.0 -0.4621756888
O  O17  1  0.36230000  0.10630000  0.16520000  1.0 -0.4621756888
O  O18  1  0.32620000  0.04070000  0.31070000  1.0 -0.4301373497
O  O19  1  0.81820000  0.39080000  0.18080000  1.0 -0.3791620037
O  O20  1  0.86500000  0.40260000  0.31910000  1.0 -0.4809052816
O  O21  1  0.86030000  0.46490000  0.30350000  1.0 -0.3920601974
O  O22  1  0.81120000  0.33990000  0.33720000  1.0 -0.4171296186
O  O23  1  0.83420000  0.30760000  0.18820000  1.0 -0.4809052816
O  O24  1  0.78410000  0.26950000  0.19290000  1.0 -0.4439815334
O  O25  1  0.89540000  0.32600000  0.32090000  1.0 -0.4621756888
O  O26  1  0.89370000  0.36230000  0.16520000  1.0 -0.4621756888
O  O27  1  0.95930000  0.32620000  0.31070000  1.0 -0.4301373497
O  O28  1  0.18180000  0.60920000  0.18080000  1.0 -0.3791620037
O  O29  1  0.13500000  0.59740000  0.31910000  1.0 -0.4809052816
O  O30  1  0.13970000  0.53510000  0.30350000  1.0 -0.3920601974
O  O31  1  0.18880000  0.66010000  0.33720000  1.0 -0.4171296186
O  O32  1  0.16580000  0.69240000  0.18820000  1.0 -0.4809052816
O  O33  1  0.21590000  0.73050000  0.19290000  1.0 -0.4439815334
O  O34  1  0.10460000  0.67400000  0.32090000  1.0 -0.4621756888
O  O35  1  0.10630000  0.63770000  0.16520000  1.0 -0.4621756888
O  O36  1  0.04070000  0.67380000  0.31070000  1.0 -0.4301373497
O  O37  1  0.60920000  0.18180000  0.81920000  1.0 -0.3791620037
O  O38  1  0.59740000  0.13500000  0.68090000  1.0 -0.4809052816
O  O39  1  0.53510000  0.13970000  0.69650000  1.0 -0.3920601974
O  O40  1  0.66010000  0.18880000  0.66280000  1.0 -0.4171296186
O  O41  1  0.69240000  0.16580000  0.81180000  1.0 -0.4809052816
O  O42  1  0.73050000  0.21590000  0.80710000  1.0 -0.4439815334
O  O43  1  0.67400000  0.10460000  0.67910000  1.0 -0.4621756888
O  O44  1  0.63770000  0.10630000  0.83480000  1.0 -0.4621756888
O  O45  1  0.67380000  0.04070000  0.68930000  1.0 -0.4301373497
O  O46  1  0.39080000  0.81820000  0.81920000  1.0 -0.3791620037
O  O47  1  0.40260000  0.86500000  0.68090000  1.0 -0.4809052816
O  O48  1  0.46490000  0.86030000  0.69650000  1.0 -0.3920601974
O  O49  1  0.33990000  0.81120000  0.66280000  1.0 -0.4171296186
O  O50  1  0.30760000  0.83420000  0.81180000  1.0 -0.4809052816
O  O51  1  0.26950000  0.78410000  0.80710000  1.0 -0.4439815334
O  O52  1  0.32600000  0.89540000  0.67910000  1.0 -0.4621756888
O  O53  1  0.36230000  0.89370000  0.83480000  1.0 -0.4621756888
O  O54  1  0.32620000  0.95930000  0.68930000  1.0 -0.4301373497
O  O55  1  0.81820000  0.60920000  0.81920000  1.0 -0.3791620037
O  O56  1  0.86500000  0.59740000  0.68090000  1.0 -0.4809052816
O  O57  1  0.86030000  0.53510000  0.69650000  1.0 -0.3920601974
O  O58  1  0.81120000  0.66010000  0.66280000  1.0 -0.4171296186
O  O59  1  0.83420000  0.69240000  0.81180000  1.0 -0.4809052816
O  O60  1  0.78410000  0.73050000  0.80710000  1.0 -0.4439815334
O  O61  1  0.89540000  0.67400000  0.67910000  1.0 -0.4621756888
O  O62  1  0.89370000  0.63770000  0.83480000  1.0 -0.4621756888
O  O63  1  0.95930000  0.67380000  0.68930000  1.0 -0.4301373497
O  O64  1  0.18180000  0.39080000  0.81920000  1.0 -0.3791620037
O  O65  1  0.13500000  0.40260000  0.68090000  1.0 -0.4809052816
O  O66  1  0.13970000  0.46490000  0.69650000  1.0 -0.3920601974
O  O67  1  0.18880000  0.33990000  0.66280000  1.0 -0.4171296186
O  O68  1  0.16580000  0.30760000  0.81180000  1.0 -0.4809052816
O  O69  1  0.21590000  0.26950000  0.80710000  1.0 -0.4439815334
O  O70  1  0.10460000  0.32600000  0.67910000  1.0 -0.4621756888
O  O71  1  0.10630000  0.36230000  0.83480000  1.0 -0.4621756888
O  O72  1  0.04070000  0.32620000  0.68930000  1.0 -0.4301373497
O  O73  1  0.39080000  0.18180000  0.81920000  1.0 -0.3791620037
O  O74  1  0.40260000  0.13500000  0.68090000  1.0 -0.4809052816
O  O75  1  0.46490000  0.13970000  0.69650000  1.0 -0.3920601974
O  O76  1  0.33990000  0.18880000  0.66280000  1.0 -0.4171296186
O  O77  1  0.30760000  0.16580000  0.81180000  1.0 -0.4809052816
O  O78  1  0.26950000  0.21590000  0.80710000  1.0 -0.4439815334
O  O79  1  0.32600000  0.10460000  0.67910000  1.0 -0.4621756888
O  O80  1  0.36230000  0.10630000  0.83480000  1.0 -0.4621756888
O  O81  1  0.32620000  0.04070000  0.68930000  1.0 -0.4301373497
O  O82  1  0.60920000  0.81820000  0.81920000  1.0 -0.3791620037
O  O83  1  0.59740000  0.86500000  0.68090000  1.0 -0.4809052816
O  O84  1  0.53510000  0.86030000  0.69650000  1.0 -0.3920601974
O  O85  1  0.66010000  0.81120000  0.66280000  1.0 -0.4171296186
O  O86  1  0.69240000  0.83420000  0.81180000  1.0 -0.4809052816
O  O87  1  0.73050000  0.78410000  0.80710000  1.0 -0.4439815334
O  O88  1  0.67400000  0.89540000  0.67910000  1.0 -0.4621756888
O  O89  1  0.63770000  0.89370000  0.83480000  1.0 -0.4621756888
O  O90  1  0.67380000  0.95930000  0.68930000  1.0 -0.4301373497
O  O91  1  0.18180000  0.60920000  0.81920000  1.0 -0.3791620037
O  O92  1  0.13500000  0.59740000  0.68090000  1.0 -0.4809052816
O  O93  1  0.13970000  0.53510000  0.69650000  1.0 -0.3920601974
O  O94  1  0.18880000  0.66010000  0.66280000  1.0 -0.4171296186
O  O95  1  0.16580000  0.69240000  0.81180000  1.0 -0.4809052816
O  O96  1  0.21590000  0.73050000  0.80710000  1.0 -0.4439815334
O  O97  1  0.10460000  0.67400000  0.67910000  1.0 -0.4621756888
O  O98  1  0.10630000  0.63770000  0.83480000  1.0 -0.4621756888
O  O99  1  0.04070000  0.67380000  0.68930000  1.0 -0.4301373497
O  O100  1  0.81820000  0.39080000  0.81920000  1.0 -0.3791620037
O  O101  1  0.86500000  0.40260000  0.68090000  1.0 -0.4809052816
O  O102  1  0.86030000  0.46490000  0.69650000  1.0 -0.3920601974
O  O103  1  0.81120000  0.33990000  0.66280000  1.0 -0.4171296186
O  O104  1  0.83420000  0.30760000  0.81180000  1.0 -0.4809052816
O  O105  1  0.78410000  0.26950000  0.80710000  1.0 -0.4439815334
O  O106  1  0.89540000  0.32600000  0.67910000  1.0 -0.4621756888
O  O107  1  0.89370000  0.36230000  0.83480000  1.0 -0.4621756888
O  O108  1  0.95930000  0.32620000  0.68930000  1.0 -0.4301373497
O  O109  1  0.39080000  0.81820000  0.18080000  1.0 -0.3791620037
O  O110  1  0.40260000  0.86500000  0.31910000  1.0 -0.4809052816
O  O111  1  0.46490000  0.86030000  0.30350000  1.0 -0.3920601974
O  O112  1  0.33990000  0.81120000  0.33720000  1.0 -0.4171296186
O  O113  1  0.30760000  0.83420000  0.18820000  1.0 -0.4809052816
O  O114  1  0.26950000  0.78410000  0.19290000  1.0 -0.4439815334
O  O115  1  0.32600000  0.89540000  0.32090000  1.0 -0.4621756888
O  O116  1  0.36230000  0.89370000  0.16520000  1.0 -0.4621756888
O  O117  1  0.32620000  0.95930000  0.31070000  1.0 -0.4301373497
O  O118  1  0.60920000  0.18180000  0.18080000  1.0 -0.3791620037
O  O119  1  0.59740000  0.13500000  0.31910000  1.0 -0.4809052816
O  O120  1  0.53510000  0.13970000  0.30350000  1.0 -0.3920601974
O  O121  1  0.66010000  0.18880000  0.33720000  1.0 -0.4171296186
O  O122  1  0.69240000  0.16580000  0.18820000  1.0 -0.4809052816
O  O123  1  0.73050000  0.21590000  0.19290000  1.0 -0.4439815334
O  O124  1  0.67400000  0.10460000  0.32090000  1.0 -0.4621756888
O  O125  1  0.63770000  0.10630000  0.16520000  1.0 -0.4621756888
O  O126  1  0.67380000  0.04070000  0.31070000  1.0 -0.4301373497
O  O127  1  0.18180000  0.39080000  0.18080000  1.0 -0.3791620037
O  O128  1  0.13500000  0.40260000  0.31910000  1.0 -0.4809052816
O  O129  1  0.13970000  0.46490000  0.30350000  1.0 -0.3920601974
O  O130  1  0.18880000  0.33990000  0.33720000  1.0 -0.4171296186
O  O131  1  0.16580000  0.30760000  0.18820000  1.0 -0.4809052816
O  O132  1  0.21590000  0.26950000  0.19290000  1.0 -0.4439815334
O  O133  1  0.10460000  0.32600000  0.32090000  1.0 -0.4621756888
O  O134  1  0.10630000  0.36230000  0.16520000  1.0 -0.4621756888
O  O135  1  0.04070000  0.32620000  0.31070000  1.0 -0.4301373497
O  O136  1  0.81820000  0.60920000  0.18080000  1.0 -0.3791620037
O  O137  1  0.86500000  0.59740000  0.31910000  1.0 -0.4809052816
O  O138  1  0.86030000  0.53510000  0.30350000  1.0 -0.3920601974
O  O139  1  0.81120000  0.66010000  0.33720000  1.0 -0.4171296186
O  O140  1  0.83420000  0.69240000  0.18820000  1.0 -0.4809052816
O  O141  1  0.78410000  0.73050000  0.19290000  1.0 -0.4439815334
O  O142  1  0.89540000  0.67400000  0.32090000  1.0 -0.4621756888
O  O143  1  0.89370000  0.63770000  0.16520000  1.0 -0.4621756888
O  O144  1  0.95930000  0.67380000  0.31070000  1.0 -0.4301373497
O  O145  1  0.70540000  0.70540000  0.15030000  1.0 -0.2524983636
O  O146  1  0.81790000  0.81790000  0.13990000  1.0 -0.4809052816
O  O147  1  0.29460000  0.29460000  0.15030000  1.0 -0.2598884976
O  O148  1  0.18210000  0.18210000  0.13990000  1.0 -0.4809052816
O  O149  1  0.70540000  0.29460000  0.15030000  1.0 -0.2524983636
O  O150  1  0.81790000  0.18210000  0.13990000  1.0 -0.4809052816
O  O151  1  0.29460000  0.70540000  0.15030000  1.0 -0.2598884976
O  O152  1  0.18210000  0.81790000  0.13990000  1.0 -0.4809052816
O  O153  1  0.70540000  0.29460000  0.84970000  1.0 -0.2524983636
O  O154  1  0.81790000  0.18210000  0.86010000  1.0 -0.4809052816
O  O155  1  0.29460000  0.70540000  0.84970000  1.0 -0.2598884976
O  O156  1  0.18210000  0.81790000  0.86010000  1.0 -0.4809052816
O  O157  1  0.70540000  0.70540000  0.84970000  1.0 -0.2524983636
O  O158  1  0.81790000  0.81790000  0.86010000  1.0 -0.4809052816
O  O159  1  0.29460000  0.29460000  0.84970000  1.0 -0.2598884976
O  O160  1  0.18210000  0.18210000  0.86010000  1.0 -0.4809052816
O  O161  1  0.71740000  0.80550000  0.00000000  1.0 -0.4621756888
O  O162  1  0.28260000  0.19450000  0.00000000  1.0 -0.4621756888
O  O163  1  0.80550000  0.28260000  0.00000000  1.0 -0.4621756888
O  O164  1  0.19450000  0.71740000  0.00000000  1.0 -0.4621756888
O  O165  1  0.71740000  0.19450000  0.00000000  1.0 -0.4621756888
O  O166  1  0.28260000  0.80550000  0.00000000  1.0 -0.4621756888
O  O167  1  0.80550000  0.71740000  0.00000000  1.0 -0.4621756888
O  O168  1  0.19450000  0.28260000  0.00000000  1.0 -0.4621756888
