# DDEC6 charges by PACMAN v1.1 (https://github.com/mtap-research/PACMAN-charge/)
data_JEDJUY_ASR_pacman
_symmetry_space_group_name_H-M   'P 1'
_cell_length_a   7.11900000
_cell_length_b   8.78300000
_cell_length_c   15.06700000
_cell_angle_alpha   79.61000000
_cell_angle_beta   87.52000000
_cell_angle_gamma   83.21000000
_symmetry_Int_Tables_number   1
_chemical_formula_structural   KGdH2C10O9
_chemical_formula_sum   'K2 Gd2 H4 C20 O18'
_cell_volume   919.90293850
_cell_formula_units_Z   2
loop_
 _symmetry_equiv_pos_site_id
 _symmetry_equiv_pos_as_xyz
  1  'x, y, z'
loop_
 _atom_site_type_symbol
 _atom_site_label
 _atom_site_symmetry_multiplicity
 _atom_site_fract_x
 _atom_site_fract_y
 _atom_site_fract_z
 _atom_site_occupancy
 _atom_site_charge
K  K1  1  0.98627000  0.44818000  0.87249000  1.0 0.8851186187
K  K2  1  0.01373000  0.55182000  0.12751000  1.0 0.8851186187
Gd  Gd1  1  0.47604000  0.60982000  0.77491000  1.0 1.9309929163
Gd  Gd2  1  0.52396000  0.39018000  0.22509000  1.0 1.9309929163
H  H1  1  0.67540000  0.50880000  0.51390000  1.0 0.1377541871
H  H2  1  0.32460000  0.49120000  0.48610000  1.0 0.1377541871
H  H3  1  0.37340000  0.96540000  0.14580000  1.0 0.1338291616
H  H4  1  0.62660000  0.03460000  0.85420000  1.0 0.1338291616
C  C1  1  0.80640000  0.50550000  0.50810000  1.0 -0.1139795817
C  C2  1  0.19360000  0.49450000  0.49190000  1.0 -0.1139795817
C  C3  1  0.90790000  0.53370000  0.57850000  1.0 -0.0096244923
C  C4  1  0.09210000  0.46630000  0.42150000  1.0 -0.0096244923
C  C5  1  0.89560000  0.47240000  0.42910000  1.0 -0.0344830453
C  C6  1  0.10440000  0.52760000  0.57090000  1.0 -0.0372468294
C  C7  1  0.79220000  0.57080000  0.66000000  1.0 0.6020650715
C  C8  1  0.20780000  0.42920000  0.34000000  1.0 0.6020650715
C  C9  1  0.77800000  0.44140000  0.35540000  1.0 0.5793842823
C  C10  1  0.22200000  0.55860000  0.64460000  1.0 0.5793842823
C  C11  1  0.51200000  0.85070000  0.05320000  1.0 -0.0213451571
C  C12  1  0.48800000  0.14930000  0.94680000  1.0 -0.0213451571
C  C13  1  0.70140000  0.73790000  0.92970000  1.0 0.6181153209
C  C14  1  0.29860000  0.26210000  0.07030000  1.0 0.6181153209
C  C15  1  0.58970000  0.87270000  0.96490000  1.0 -0.0372468294
C  C16  1  0.41030000  0.12730000  0.03510000  1.0 -0.0372468294
C  C17  1  0.42380000  0.97910000  0.08730000  1.0 -0.1227744407
C  C18  1  0.57620000  0.02090000  0.91270000  1.0 -0.1227744407
C  C19  1  0.51230000  0.69200000  0.10900000  1.0 0.5793842823
C  C20  1  0.48770000  0.30800000  0.89100000  1.0 0.5793842823
O  O1  1  0.71230000  0.70640000  0.65772000  1.0 -0.577280119
O  O2  1  0.28770000  0.29360000  0.34228000  1.0 -0.577280119
O  O3  1  0.76090000  0.46220000  0.72380000  1.0 -0.6523077636
O  O4  1  0.23910000  0.53780000  0.27620000  1.0 -0.6523077636
O  O5  1  0.85410000  0.40820000  0.28369000  1.0 -0.617469713
O  O6  1  0.14590000  0.59180000  0.71631000  1.0 -0.617469713
O  O7  1  0.60200000  0.44720000  0.36921000  1.0 -0.5875334292
O  O8  1  0.39800000  0.55280000  0.63079000  1.0 -0.5875334292
O  O9  1  0.68000000  0.72990000  0.84773000  1.0 -0.6523077636
O  O10  1  0.32000000  0.27010000  0.15227000  1.0 -0.6523077636
O  O11  1  0.80680000  0.64560000  0.98224000  1.0 -0.5399067252
O  O12  1  0.19320000  0.35440000  0.01776000  1.0 -0.5399067252
O  O13  1  0.41560000  0.59560000  0.08583000  1.0 -0.5345038026
O  O14  1  0.58440000  0.40440000  0.91417000  1.0 -0.5399067252
O  O15  1  0.60620000  0.65740000  0.18104000  1.0 -0.6274309307
O  O16  1  0.39380000  0.34260000  0.81896000  1.0 -0.6274309307
O  O17  1  0.26920000  0.65620000  0.90260000  1.0 -0.3322705477
O  O18  1  0.73080000  0.34380000  0.09740000  1.0 -0.3364628404
