# DDEC6 charges by PACMAN v1.1 (https://github.com/mtap-research/PACMAN-charge/)
data_JEDKEJ_ASR_pacman
_symmetry_space_group_name_H-M   'P 1'
_cell_length_a   18.00500000
_cell_length_b   23.73200000
_cell_length_c   23.23500000
_cell_angle_alpha   90.00000000
_cell_angle_beta   90.46000000
_cell_angle_gamma   90.00000000
_symmetry_Int_Tables_number   1
_chemical_formula_structural   Cr2Cu3H39(C16N7)3
_chemical_formula_sum   'Cr8 Cu12 H156 C192 N84'
_cell_volume   9927.87145587
_cell_formula_units_Z   4
loop_
 _symmetry_equiv_pos_site_id
 _symmetry_equiv_pos_as_xyz
  1  'x, y, z'
loop_
 _atom_site_type_symbol
 _atom_site_label
 _atom_site_symmetry_multiplicity
 _atom_site_fract_x
 _atom_site_fract_y
 _atom_site_fract_z
 _atom_site_occupancy
 _atom_site_charge
Cr  Cr1  1  0.50000000  0.50000000  0.50000000  1.0 0.6970765777
Cr  Cr2  1  0.50000000  0.00000000  0.00000000  1.0 0.6970765777
Cr  Cr3  1  0.00000000  0.50000000  0.50000000  1.0 0.7307463772
Cr  Cr4  1  0.00000000  0.00000000  0.00000000  1.0 0.7307463772
Cr  Cr5  1  0.99259000  0.34799000  0.14725000  1.0 0.7125683613
Cr  Cr6  1  0.00741000  0.84799000  0.35275000  1.0 0.7125683613
Cr  Cr7  1  0.00741000  0.65201000  0.85275000  1.0 0.7125683613
Cr  Cr8  1  0.99259000  0.15201000  0.64725000  1.0 0.7125683613
Cu  Cu1  1  0.74313000  0.44359000  0.59892000  1.0 0.5859291739
Cu  Cu2  1  0.25687000  0.94359000  0.90108000  1.0 0.5859291739
Cu  Cu3  1  0.25687000  0.55641000  0.40108000  1.0 0.5859291739
Cu  Cu4  1  0.74313000  0.05641000  0.09892000  1.0 0.5859291739
Cu  Cu5  1  0.87734000  0.48569000  0.29351000  1.0 0.6216704435
Cu  Cu6  1  0.12266000  0.98569000  0.20649000  1.0 0.6216704435
Cu  Cu7  1  0.12266000  0.51431000  0.70649000  1.0 0.6216704435
Cu  Cu8  1  0.87734000  0.01431000  0.79351000  1.0 0.6216704435
Cu  Cu9  1  0.91219000  0.71269000  0.50928000  1.0 0.5997459776
Cu  Cu10  1  0.08781000  0.21269000  0.99072000  1.0 0.5997459776
Cu  Cu11  1  0.08781000  0.28731000  0.49072000  1.0 0.5997459776
Cu  Cu12  1  0.91219000  0.78731000  0.00928000  1.0 0.5997459776
H  H1  1  0.65990000  0.54750000  0.64270000  1.0 0.1292016332
H  H2  1  0.34010000  0.04750000  0.85730000  1.0 0.1292016332
H  H3  1  0.34010000  0.45250000  0.35730000  1.0 0.1292016332
H  H4  1  0.65990000  0.95250000  0.14270000  1.0 0.1292016332
H  H5  1  0.67130000  0.61620000  0.71380000  1.0 0.149915555
H  H6  1  0.32870000  0.11620000  0.78620000  1.0 0.149915555
H  H7  1  0.32870000  0.38380000  0.28620000  1.0 0.149915555
H  H8  1  0.67130000  0.88380000  0.21380000  1.0 0.149915555
H  H9  1  0.77430000  0.62210000  0.75110000  1.0 0.149915555
H  H10  1  0.22570000  0.12210000  0.74890000  1.0 0.149915555
H  H11  1  0.22570000  0.37790000  0.24890000  1.0 0.149915555
H  H12  1  0.77430000  0.87790000  0.25110000  1.0 0.149915555
H  H13  1  0.86010000  0.55430000  0.75760000  1.0 0.149915555
H  H14  1  0.13990000  0.05430000  0.74240000  1.0 0.149915555
H  H15  1  0.13990000  0.44570000  0.24240000  1.0 0.149915555
H  H16  1  0.86010000  0.94570000  0.25760000  1.0 0.149915555
H  H17  1  0.88900000  0.43430000  0.70760000  1.0 0.1292016332
H  H18  1  0.11100000  0.93430000  0.79240000  1.0 0.1292016332
H  H19  1  0.11100000  0.56570000  0.29240000  1.0 0.1292016332
H  H20  1  0.88900000  0.06570000  0.20760000  1.0 0.1292016332
H  H21  1  0.90340000  0.45900000  0.64590000  1.0 0.1415347792
H  H22  1  0.09660000  0.95900000  0.85410000  1.0 0.1415347792
H  H23  1  0.09660000  0.54100000  0.35410000  1.0 0.1415347792
H  H24  1  0.90340000  0.04100000  0.14590000  1.0 0.1415347792
H  H25  1  0.89940000  0.38900000  0.59570000  1.0 0.1415347792
H  H26  1  0.10060000  0.88900000  0.90430000  1.0 0.1415347792
H  H27  1  0.10060000  0.61100000  0.40430000  1.0 0.1415347792
H  H28  1  0.89940000  0.11100000  0.09570000  1.0 0.1415347792
H  H29  1  0.88770000  0.34350000  0.64420000  1.0 0.1415347792
H  H30  1  0.11230000  0.84350000  0.85580000  1.0 0.1415347792
H  H31  1  0.11230000  0.65650000  0.35580000  1.0 0.1415347792
H  H32  1  0.88770000  0.15650000  0.14420000  1.0 0.1415347792
H  H33  1  0.86560000  0.26430000  0.57440000  1.0 0.149915555
H  H34  1  0.13440000  0.76430000  0.92560000  1.0 0.149915555
H  H35  1  0.13440000  0.73570000  0.42560000  1.0 0.149915555
H  H36  1  0.86560000  0.23570000  0.07440000  1.0 0.149915555
H  H37  1  0.78790000  0.22590000  0.51570000  1.0 0.1292016332
H  H38  1  0.21210000  0.72590000  0.98430000  1.0 0.1292016332
H  H39  1  0.21210000  0.77410000  0.48430000  1.0 0.1292016332
H  H40  1  0.78790000  0.27410000  0.01570000  1.0 0.1292016332
H  H41  1  0.68240000  0.27000000  0.48050000  1.0 0.1415347792
H  H42  1  0.31760000  0.77000000  0.01950000  1.0 0.1415347792
H  H43  1  0.31760000  0.73000000  0.51950000  1.0 0.1415347792
H  H44  1  0.68240000  0.23000000  0.98050000  1.0 0.1415347792
H  H45  1  0.65910000  0.36330000  0.52200000  1.0 0.1197437377
H  H46  1  0.34090000  0.86330000  0.97800000  1.0 0.1197437377
H  H47  1  0.34090000  0.63670000  0.47800000  1.0 0.1197437377
H  H48  1  0.65910000  0.13670000  0.02200000  1.0 0.1197437377
H  H49  1  0.81360000  0.36540000  0.27360000  1.0 0.1197437377
H  H50  1  0.18640000  0.86540000  0.22640000  1.0 0.1197437377
H  H51  1  0.18640000  0.63460000  0.72640000  1.0 0.1197437377
H  H52  1  0.81360000  0.13460000  0.77360000  1.0 0.1197437377
H  H53  1  0.72740000  0.30700000  0.31250000  1.0 0.1415347792
H  H54  1  0.27260000  0.80700000  0.18750000  1.0 0.1415347792
H  H55  1  0.27260000  0.69300000  0.68750000  1.0 0.1415347792
H  H56  1  0.72740000  0.19300000  0.81250000  1.0 0.1415347792
H  H57  1  0.65130000  0.34290000  0.38340000  1.0 0.1292016332
H  H58  1  0.34870000  0.84290000  0.11660000  1.0 0.1292016332
H  H59  1  0.34870000  0.65710000  0.61660000  1.0 0.1292016332
H  H60  1  0.65130000  0.15710000  0.88340000  1.0 0.1292016332
H  H61  1  0.66950000  0.43290000  0.41870000  1.0 0.149915555
H  H62  1  0.33050000  0.93290000  0.08130000  1.0 0.149915555
H  H63  1  0.33050000  0.56710000  0.58130000  1.0 0.149915555
H  H64  1  0.66950000  0.06710000  0.91870000  1.0 0.149915555
H  H65  1  0.81050000  0.50960000  0.41660000  1.0 0.149915555
H  H66  1  0.18950000  0.00960000  0.08340000  1.0 0.149915555
H  H67  1  0.18950000  0.49040000  0.58340000  1.0 0.149915555
H  H68  1  0.81050000  0.99040000  0.91660000  1.0 0.149915555
H  H69  1  0.73180000  0.53070000  0.39610000  1.0 0.149915555
H  H70  1  0.26820000  0.03070000  0.10390000  1.0 0.149915555
H  H71  1  0.26820000  0.46930000  0.60390000  1.0 0.149915555
H  H72  1  0.73180000  0.96930000  0.89610000  1.0 0.149915555
H  H73  1  0.82230000  0.62040000  0.35710000  1.0 0.1292016332
H  H74  1  0.17770000  0.12040000  0.14290000  1.0 0.1292016332
H  H75  1  0.17770000  0.37960000  0.64290000  1.0 0.1292016332
H  H76  1  0.82230000  0.87960000  0.85710000  1.0 0.1292016332
H  H77  1  0.88210000  0.58070000  0.38560000  1.0 0.1415347792
H  H78  1  0.11790000  0.08070000  0.11440000  1.0 0.1415347792
H  H79  1  0.11790000  0.41930000  0.61440000  1.0 0.1415347792
H  H80  1  0.88210000  0.91930000  0.88560000  1.0 0.1415347792
H  H81  1  0.92120000  0.68350000  0.32170000  1.0 0.149915555
H  H82  1  0.07880000  0.18350000  0.17830000  1.0 0.149915555
H  H83  1  0.07880000  0.31650000  0.67830000  1.0 0.149915555
H  H84  1  0.92120000  0.81650000  0.82170000  1.0 0.149915555
H  H85  1  0.00620000  0.69520000  0.25050000  1.0 0.1197437377
H  H86  1  0.99380000  0.19520000  0.24950000  1.0 0.1197437377
H  H87  1  0.99380000  0.30480000  0.74950000  1.0 0.1197437377
H  H88  1  0.00620000  0.80480000  0.75050000  1.0 0.1197437377
H  H89  1  0.04120000  0.62390000  0.18310000  1.0 0.1292016332
H  H90  1  0.95880000  0.12390000  0.31690000  1.0 0.1292016332
H  H91  1  0.95880000  0.37610000  0.81690000  1.0 0.1292016332
H  H92  1  0.04120000  0.87610000  0.68310000  1.0 0.1292016332
H  H93  1  0.98880000  0.53330000  0.20430000  1.0 0.1197437377
H  H94  1  0.01120000  0.03330000  0.29570000  1.0 0.1197437377
H  H95  1  0.01120000  0.46670000  0.79570000  1.0 0.1197437377
H  H96  1  0.98880000  0.96670000  0.70430000  1.0 0.1197437377
H  H97  1  0.81030000  0.74120000  0.41140000  1.0 0.1292016332
H  H98  1  0.18970000  0.24120000  0.08860000  1.0 0.1292016332
H  H99  1  0.18970000  0.25880000  0.58860000  1.0 0.1292016332
H  H100  1  0.81030000  0.75880000  0.91140000  1.0 0.1292016332
H  H101  1  0.69340000  0.72160000  0.37530000  1.0 0.149915555
H  H102  1  0.30660000  0.22160000  0.12470000  1.0 0.149915555
H  H103  1  0.30660000  0.27840000  0.62470000  1.0 0.149915555
H  H104  1  0.69340000  0.77840000  0.87530000  1.0 0.149915555
H  H105  1  0.63760000  0.65470000  0.42130000  1.0 0.149915555
H  H106  1  0.36240000  0.15470000  0.07870000  1.0 0.149915555
H  H107  1  0.36240000  0.34530000  0.57870000  1.0 0.149915555
H  H108  1  0.63760000  0.84530000  0.92130000  1.0 0.149915555
H  H109  1  0.67030000  0.61360000  0.50800000  1.0 0.1550055482
H  H110  1  0.32970000  0.11360000  0.99200000  1.0 0.1550055482
H  H111  1  0.32970000  0.38640000  0.49200000  1.0 0.1550055482
H  H112  1  0.67030000  0.88640000  0.00800000  1.0 0.1550055482
H  H113  1  0.84150000  0.60140000  0.55620000  1.0 0.1415347792
H  H114  1  0.15850000  0.10140000  0.94380000  1.0 0.1415347792
H  H115  1  0.15850000  0.39860000  0.44380000  1.0 0.1415347792
H  H116  1  0.84150000  0.89860000  0.05620000  1.0 0.1415347792
H  H117  1  0.78140000  0.62960000  0.59550000  1.0 0.1292016332
H  H118  1  0.21860000  0.12960000  0.90450000  1.0 0.1292016332
H  H119  1  0.21860000  0.37040000  0.40450000  1.0 0.1292016332
H  H120  1  0.78140000  0.87040000  0.09550000  1.0 0.1292016332
H  H121  1  0.91280000  0.65410000  0.65640000  1.0 0.1415347792
H  H122  1  0.08720000  0.15410000  0.84360000  1.0 0.1415347792
H  H123  1  0.08720000  0.34590000  0.34360000  1.0 0.1415347792
H  H124  1  0.91280000  0.84590000  0.15640000  1.0 0.1415347792
H  H125  1  0.94510000  0.62100000  0.60360000  1.0 0.1415347792
H  H126  1  0.05490000  0.12100000  0.89640000  1.0 0.1415347792
H  H127  1  0.05490000  0.37900000  0.39640000  1.0 0.1415347792
H  H128  1  0.94510000  0.87900000  0.10360000  1.0 0.1415347792
H  H129  1  0.04230000  0.68620000  0.69060000  1.0 0.149915555
H  H130  1  0.95770000  0.18620000  0.80940000  1.0 0.149915555
H  H131  1  0.95770000  0.31380000  0.30940000  1.0 0.149915555
H  H132  1  0.04230000  0.81380000  0.19060000  1.0 0.149915555
H  H133  1  0.14240000  0.74720000  0.67240000  1.0 0.1197437377
H  H134  1  0.85760000  0.24720000  0.82760000  1.0 0.1197437377
H  H135  1  0.85760000  0.25280000  0.32760000  1.0 0.1197437377
H  H136  1  0.14240000  0.75280000  0.17240000  1.0 0.1197437377
H  H137  1  0.14060000  0.80410000  0.59160000  1.0 0.1415347792
H  H138  1  0.85940000  0.30410000  0.90840000  1.0 0.1415347792
H  H139  1  0.85940000  0.19590000  0.40840000  1.0 0.1415347792
H  H140  1  0.14060000  0.69590000  0.09160000  1.0 0.1415347792
H  H141  1  0.04970000  0.78870000  0.52350000  1.0 0.1197437377
H  H142  1  0.95030000  0.28870000  0.97650000  1.0 0.1197437377
H  H143  1  0.95030000  0.21130000  0.47650000  1.0 0.1197437377
H  H144  1  0.04970000  0.71130000  0.02350000  1.0 0.1197437377
H  H145  1  0.77240000  0.40580000  0.65300000  1.0 0.1886993535
H  H146  1  0.22760000  0.90580000  0.84700000  1.0 0.1886993535
H  H147  1  0.22760000  0.59420000  0.34700000  1.0 0.1886993535
H  H148  1  0.77240000  0.09420000  0.15300000  1.0 0.1886993535
H  H149  1  0.80430000  0.52930000  0.30090000  1.0 0.1886993535
H  H150  1  0.19570000  0.02930000  0.19910000  1.0 0.1886993535
H  H151  1  0.19570000  0.47070000  0.69910000  1.0 0.1886993535
H  H152  1  0.80430000  0.97070000  0.80090000  1.0 0.1886993535
H  H153  1  0.86310000  0.71260000  0.57050000  1.0 0.1886993535
H  H154  1  0.13690000  0.21260000  0.92950000  1.0 0.1886993535
H  H155  1  0.13690000  0.28740000  0.42950000  1.0 0.1886993535
H  H156  1  0.86310000  0.78740000  0.07050000  1.0 0.1886993535
C  C1  1  0.70230000  0.54750000  0.66590000  1.0 0.0808534585
C  C2  1  0.29770000  0.04750000  0.83410000  1.0 0.0808534585
C  C3  1  0.29770000  0.45250000  0.33410000  1.0 0.0808534585
C  C4  1  0.70230000  0.95250000  0.16590000  1.0 0.0808534585
C  C5  1  0.70870000  0.59020000  0.70630000  1.0 -0.1400751472
C  C6  1  0.29130000  0.09020000  0.79370000  1.0 -0.1400751472
C  C7  1  0.29130000  0.40980000  0.29370000  1.0 -0.1400751472
C  C8  1  0.70870000  0.90980000  0.20630000  1.0 -0.1400751472
C  C9  1  0.76490000  0.58990000  0.72950000  1.0 -0.0490856618
C  C10  1  0.23510000  0.08990000  0.77050000  1.0 -0.0490856618
C  C11  1  0.23510000  0.41010000  0.27050000  1.0 -0.0490856618
C  C12  1  0.76490000  0.91010000  0.22950000  1.0 -0.0490856618
C  C13  1  0.82090000  0.55120000  0.73140000  1.0 -0.18771302
C  C14  1  0.17910000  0.05120000  0.76860000  1.0 -0.18771302
C  C15  1  0.17910000  0.44880000  0.26860000  1.0 -0.18771302
C  C16  1  0.82090000  0.94880000  0.23140000  1.0 -0.18771302
C  C17  1  0.81610000  0.50280000  0.68830000  1.0 0.1840503054
C  C18  1  0.18390000  0.00280000  0.81170000  1.0 0.1840503054
C  C19  1  0.18390000  0.49720000  0.31170000  1.0 0.1840503054
C  C20  1  0.81610000  0.99720000  0.18830000  1.0 0.1886993535
C  C21  1  0.86500000  0.44870000  0.67300000  1.0 -0.1808842484
C  C22  1  0.13500000  0.94870000  0.82700000  1.0 -0.1808842484
C  C23  1  0.13500000  0.55130000  0.32700000  1.0 -0.1808842484
C  C24  1  0.86500000  0.05130000  0.17300000  1.0 -0.1808842484
C  C25  1  0.86250000  0.36940000  0.61840000  1.0 -0.1713477739
C  C26  1  0.13750000  0.86940000  0.88160000  1.0 -0.1713477739
C  C27  1  0.13750000  0.63060000  0.38160000  1.0 -0.1713477739
C  C28  1  0.86250000  0.13060000  0.11840000  1.0 -0.1713477739
C  C29  1  0.81140000  0.34000000  0.58190000  1.0 0.1731110252
C  C30  1  0.18860000  0.84000000  0.91810000  1.0 0.1731110252
C  C31  1  0.18860000  0.66000000  0.41810000  1.0 0.1731110252
C  C32  1  0.81140000  0.16000000  0.08190000  1.0 0.1731110252
C  C33  1  0.82400000  0.28430000  0.56220000  1.0 -0.1268951548
C  C34  1  0.17600000  0.78430000  0.93780000  1.0 -0.1268951548
C  C35  1  0.17600000  0.71570000  0.43780000  1.0 -0.1268951548
C  C36  1  0.82400000  0.21570000  0.06220000  1.0 -0.1268951548
C  C37  1  0.77790000  0.26240000  0.52800000  1.0 -0.0490856618
C  C38  1  0.22210000  0.76240000  0.97200000  1.0 -0.0490856618
C  C39  1  0.22210000  0.73760000  0.47200000  1.0 -0.0490856618
C  C40  1  0.77790000  0.23760000  0.02800000  1.0 -0.0490856618
C  C41  1  0.71420000  0.28700000  0.50690000  1.0 -0.1808842484
C  C42  1  0.28580000  0.78700000  0.99310000  1.0 -0.1808842484
C  C43  1  0.28580000  0.71300000  0.49310000  1.0 -0.1808842484
C  C44  1  0.71420000  0.21300000  0.00690000  1.0 -0.1808842484
C  C45  1  0.70250000  0.34400000  0.53140000  1.0 0.1292016332
C  C46  1  0.29750000  0.84400000  0.96860000  1.0 0.1292016332
C  C47  1  0.29750000  0.65600000  0.46860000  1.0 0.1292016332
C  C48  1  0.70250000  0.15600000  0.03140000  1.0 0.1292016332
C  C49  1  0.78570000  0.37880000  0.30420000  1.0 0.0808534585
C  C50  1  0.21430000  0.87880000  0.19580000  1.0 0.0808534585
C  C51  1  0.21430000  0.62120000  0.69580000  1.0 0.0808534585
C  C52  1  0.78570000  0.12120000  0.80420000  1.0 0.0808534585
C  C53  1  0.73310000  0.34370000  0.32590000  1.0 -0.1713477739
C  C54  1  0.26690000  0.84370000  0.17410000  1.0 -0.1713477739
C  C55  1  0.26690000  0.65630000  0.67410000  1.0 -0.1713477739
C  C56  1  0.73310000  0.15630000  0.82590000  1.0 -0.1713477739
C  C57  1  0.68900000  0.36510000  0.36840000  1.0 -0.0372761004
C  C58  1  0.31100000  0.86510000  0.13160000  1.0 -0.0372761004
C  C59  1  0.31100000  0.63490000  0.63160000  1.0 -0.0372761004
C  C60  1  0.68900000  0.13490000  0.86840000  1.0 -0.0372761004
C  C61  1  0.69950000  0.41910000  0.38940000  1.0 -0.161606757
C  C62  1  0.30050000  0.91910000  0.11060000  1.0 -0.161606757
C  C63  1  0.30050000  0.58090000  0.61060000  1.0 -0.161606757
C  C64  1  0.69950000  0.08090000  0.88940000  1.0 -0.161606757
C  C65  1  0.75740000  0.45370000  0.36550000  1.0 0.2535948418
C  C66  1  0.24260000  0.95370000  0.13450000  1.0 0.2535948418
C  C67  1  0.24260000  0.54630000  0.63450000  1.0 0.2535948418
C  C68  1  0.75740000  0.04630000  0.86550000  1.0 0.2535948418
C  C69  1  0.77620000  0.51100000  0.38420000  1.0 -0.1808842484
C  C70  1  0.22380000  0.01100000  0.11580000  1.0 -0.1808842484
C  C71  1  0.22380000  0.48900000  0.61580000  1.0 -0.1808842484
C  C72  1  0.77620000  0.98900000  0.88420000  1.0 -0.1808842484
C  C73  1  0.85440000  0.58820000  0.35050000  1.0 -0.1713477739
C  C74  1  0.14560000  0.08820000  0.14950000  1.0 -0.1713477739
C  C75  1  0.14560000  0.41180000  0.64950000  1.0 -0.1713477739
C  C76  1  0.85440000  0.91180000  0.85050000  1.0 -0.1713477739
C  C77  1  0.90770000  0.60140000  0.30220000  1.0 0.2172118016
C  C78  1  0.09230000  0.10140000  0.19780000  1.0 0.2172118016
C  C79  1  0.09230000  0.39860000  0.69780000  1.0 0.2172118016
C  C80  1  0.90770000  0.89860000  0.80220000  1.0 0.2172118016
C  C81  1  0.93500000  0.65410000  0.29770000  1.0 -0.1713477739
C  C82  1  0.06500000  0.15410000  0.20230000  1.0 -0.1713477739
C  C83  1  0.06500000  0.34590000  0.70230000  1.0 -0.1713477739
C  C84  1  0.93500000  0.84590000  0.79770000  1.0 -0.1713477739
C  C85  1  0.98480000  0.65980000  0.25440000  1.0 -0.0209302856
C  C86  1  0.01520000  0.15980000  0.24560000  1.0 -0.0209302856
C  C87  1  0.01520000  0.34020000  0.74560000  1.0 -0.0209302856
C  C88  1  0.98480000  0.84020000  0.75440000  1.0 -0.0209302856
C  C89  1  0.00890000  0.61730000  0.21340000  1.0 -0.1808842484
C  C90  1  0.99110000  0.11730000  0.28660000  1.0 -0.1808842484
C  C91  1  0.99110000  0.38270000  0.78660000  1.0 -0.1808842484
C  C92  1  0.00890000  0.88270000  0.71340000  1.0 -0.1808842484
C  C93  1  0.97580000  0.56440000  0.22640000  1.0 0.0808534585
C  C94  1  0.02420000  0.06440000  0.27360000  1.0 0.0808534585
C  C95  1  0.02420000  0.43560000  0.77360000  1.0 0.0808534585
C  C96  1  0.97580000  0.93560000  0.72640000  1.0 0.0808534585
C  C97  1  0.78100000  0.71530000  0.43090000  1.0 0.0492914636
C  C98  1  0.21900000  0.21530000  0.06910000  1.0 0.0492914636
C  C99  1  0.21900000  0.28470000  0.56910000  1.0 0.0492914636
C  C100  1  0.78100000  0.78470000  0.93090000  1.0 0.0492914636
C  C101  1  0.71350000  0.70430000  0.40780000  1.0 -0.1503005046
C  C102  1  0.28650000  0.20430000  0.09220000  1.0 -0.1503005046
C  C103  1  0.28650000  0.29570000  0.59220000  1.0 -0.1503005046
C  C104  1  0.71350000  0.79570000  0.90780000  1.0 -0.1503005046
C  C105  1  0.68240000  0.66690000  0.43710000  1.0 -0.0596839488
C  C106  1  0.31760000  0.16690000  0.06290000  1.0 -0.0596839488
C  C107  1  0.31760000  0.33310000  0.56290000  1.0 -0.0596839488
C  C108  1  0.68240000  0.83310000  0.93710000  1.0 -0.0596839488
C  C109  1  0.70130000  0.63930000  0.48970000  1.0 -0.1957740746
C  C110  1  0.29870000  0.13930000  0.01030000  1.0 -0.18771302
C  C111  1  0.29870000  0.36070000  0.51030000  1.0 -0.1957740746
C  C112  1  0.70130000  0.86070000  0.98970000  1.0 -0.1957740746
C  C113  1  0.77370000  0.65530000  0.51170000  1.0 0.2313428819
C  C114  1  0.22630000  0.15530000  0.98830000  1.0 0.2313428819
C  C115  1  0.22630000  0.34470000  0.48830000  1.0 0.2313428819
C  C116  1  0.77370000  0.84470000  0.01170000  1.0 0.2313428819
C  C117  1  0.81580000  0.63640000  0.56430000  1.0 -0.1713477739
C  C118  1  0.18420000  0.13640000  0.93570000  1.0 -0.1713477739
C  C119  1  0.18420000  0.36360000  0.43570000  1.0 -0.1713477739
C  C120  1  0.81580000  0.86360000  0.06430000  1.0 -0.1713477739
C  C121  1  0.92890000  0.65780000  0.61690000  1.0 -0.1808842484
C  C122  1  0.07110000  0.15780000  0.88310000  1.0 -0.1808842484
C  C123  1  0.07110000  0.34220000  0.38310000  1.0 -0.1808842484
C  C124  1  0.92890000  0.84220000  0.11690000  1.0 -0.1808842484
C  C125  1  0.99260000  0.69950000  0.61340000  1.0 0.2313428819
C  C126  1  0.00740000  0.19950000  0.88660000  1.0 0.2313428819
C  C127  1  0.00740000  0.30050000  0.38660000  1.0 0.2313428819
C  C128  1  0.99260000  0.80050000  0.11340000  1.0 0.2313428819
C  C129  1  0.04520000  0.70610000  0.65620000  1.0 -0.161606757
C  C130  1  0.95480000  0.20610000  0.84380000  1.0 -0.161606757
C  C131  1  0.95480000  0.29390000  0.34380000  1.0 -0.161606757
C  C132  1  0.04520000  0.79390000  0.15620000  1.0 -0.161606757
C  C133  1  0.10370000  0.74420000  0.64590000  1.0 -0.029683955
C  C134  1  0.89630000  0.24420000  0.85410000  1.0 -0.029683955
C  C135  1  0.89630000  0.25580000  0.35410000  1.0 -0.029683955
C  C136  1  0.10370000  0.75580000  0.14590000  1.0 -0.029683955
C  C137  1  0.10430000  0.77680000  0.59730000  1.0 -0.1713477739
C  C138  1  0.89570000  0.27680000  0.90270000  1.0 -0.1713477739
C  C139  1  0.89570000  0.22320000  0.40270000  1.0 -0.1713477739
C  C140  1  0.10430000  0.72320000  0.09730000  1.0 -0.1713477739
C  C141  1  0.04920000  0.76770000  0.55730000  1.0 0.1014129706
C  C142  1  0.95080000  0.26770000  0.94270000  1.0 0.1014129706
C  C143  1  0.95080000  0.23230000  0.44270000  1.0 0.1014129706
C  C144  1  0.04920000  0.73230000  0.05730000  1.0 0.1014129706
C  C145  1  0.60040000  0.48280000  0.53760000  1.0 -0.0067472164
C  C146  1  0.39960000  0.98280000  0.96240000  1.0 -0.0067472164
C  C147  1  0.39960000  0.51720000  0.46240000  1.0 -0.0067472164
C  C148  1  0.60040000  0.01720000  0.03760000  1.0 -0.0067472164
C  C149  1  0.55290000  0.52910000  0.42550000  1.0 -0.1069247536
C  C150  1  0.44710000  0.02910000  0.07450000  1.0 -0.1069247536
C  C151  1  0.44710000  0.47090000  0.57450000  1.0 -0.1069247536
C  C152  1  0.55290000  0.97090000  0.92550000  1.0 -0.1069247536
C  C153  1  0.49940000  0.41790000  0.46590000  1.0 -0.0742350705
C  C154  1  0.50060000  0.91790000  0.03410000  1.0 -0.0742350705
C  C155  1  0.50060000  0.58210000  0.53410000  1.0 -0.0742350705
C  C156  1  0.49940000  0.08210000  0.96590000  1.0 -0.0742350705
C  C157  1  0.88960000  0.48850000  0.52410000  1.0 -0.1202646382
C  C158  1  0.11040000  0.98850000  0.97590000  1.0 -0.1202646382
C  C159  1  0.11040000  0.51150000  0.47590000  1.0 -0.1202646382
C  C160  1  0.88960000  0.01150000  0.02410000  1.0 -0.1202646382
C  C161  1  0.97290000  0.48250000  0.41540000  1.0 -0.1268951548
C  C162  1  0.02710000  0.98250000  0.08460000  1.0 -0.1268951548
C  C163  1  0.02710000  0.51750000  0.58460000  1.0 -0.1268951548
C  C164  1  0.97290000  0.01750000  0.91540000  1.0 -0.1268951548
C  C165  1  0.97840000  0.58390000  0.48640000  1.0 -0.1268951548
C  C166  1  0.02160000  0.08390000  0.01360000  1.0 -0.1268951548
C  C167  1  0.02160000  0.41610000  0.51360000  1.0 -0.1268951548
C  C168  1  0.97840000  0.91610000  0.98640000  1.0 -0.1268951548
C  C169  1  0.95130000  0.40500000  0.20530000  1.0 -0.0209302856
C  C170  1  0.04870000  0.90500000  0.29470000  1.0 -0.0209302856
C  C171  1  0.04870000  0.59500000  0.79470000  1.0 -0.0209302856
C  C172  1  0.95130000  0.09500000  0.70530000  1.0 -0.0209302856
C  C173  1  0.06460000  0.40770000  0.12260000  1.0 -0.1503005046
C  C174  1  0.93540000  0.90770000  0.37740000  1.0 -0.1503005046
C  C175  1  0.93540000  0.59230000  0.87740000  1.0 -0.1503005046
C  C176  1  0.06460000  0.09230000  0.62260000  1.0 -0.1503005046
C  C177  1  0.06850000  0.31690000  0.20550000  1.0 -0.1268951548
C  C178  1  0.93150000  0.81690000  0.29450000  1.0 -0.1268951548
C  C179  1  0.93150000  0.68310000  0.79450000  1.0 -0.1268951548
C  C180  1  0.06850000  0.18310000  0.70550000  1.0 -0.1268951548
C  C181  1  0.91720000  0.29070000  0.18030000  1.0 -0.1400751472
C  C182  1  0.08280000  0.79070000  0.31970000  1.0 -0.1400751472
C  C183  1  0.08280000  0.70930000  0.81970000  1.0 -0.1400751472
C  C184  1  0.91720000  0.20930000  0.68030000  1.0 -0.1400751472
C  C185  1  0.91810000  0.37150000  0.08500000  1.0 -0.1400751472
C  C186  1  0.08190000  0.87150000  0.41500000  1.0 -0.1400751472
C  C187  1  0.08190000  0.62850000  0.91500000  1.0 -0.1400751472
C  C188  1  0.91810000  0.12850000  0.58500000  1.0 -0.1400751472
C  C189  1  0.96690000  0.79250000  0.41030000  1.0 -0.0372761004
C  C190  1  0.03310000  0.29250000  0.08970000  1.0 -0.0372761004
C  C191  1  0.03310000  0.20750000  0.58970000  1.0 -0.0372761004
C  C192  1  0.96690000  0.70750000  0.91030000  1.0 -0.0372761004
N  N1  1  0.75030000  0.50760000  0.65740000  1.0 -0.2718440853
N  N2  1  0.24970000  0.00760000  0.84260000  1.0 -0.2718440853
N  N3  1  0.24970000  0.49240000  0.34260000  1.0 -0.2718440853
N  N4  1  0.75030000  0.99240000  0.15740000  1.0 -0.2718440853
N  N5  1  0.81980000  0.40750000  0.64920000  1.0 -0.1808842484
N  N6  1  0.18020000  0.90750000  0.85080000  1.0 -0.1808842484
N  N7  1  0.18020000  0.59250000  0.35080000  1.0 -0.1808842484
N  N8  1  0.81980000  0.09250000  0.14920000  1.0 -0.1808842484
N  N9  1  0.74850000  0.36710000  0.56420000  1.0 -0.241202278
N  N10  1  0.25150000  0.86710000  0.93580000  1.0 -0.241202278
N  N11  1  0.25150000  0.63290000  0.43580000  1.0 -0.241202278
N  N12  1  0.74850000  0.13290000  0.06420000  1.0 -0.241202278
N  N13  1  0.80120000  0.43150000  0.32310000  1.0 -0.2882990502
N  N14  1  0.19880000  0.93150000  0.17690000  1.0 -0.2882990502
N  N15  1  0.19880000  0.56850000  0.67690000  1.0 -0.2882990502
N  N16  1  0.80120000  0.06850000  0.82310000  1.0 -0.2882990502
N  N17  1  0.81030000  0.54020000  0.33590000  1.0 -0.1808842484
N  N18  1  0.18970000  0.04020000  0.16410000  1.0 -0.1808842484
N  N19  1  0.18970000  0.45980000  0.66410000  1.0 -0.1808842484
N  N20  1  0.81030000  0.95980000  0.83590000  1.0 -0.1808842484
N  N21  1  0.92600000  0.55710000  0.26960000  1.0 -0.2718440853
N  N22  1  0.07400000  0.05710000  0.23040000  1.0 -0.2718440853
N  N23  1  0.07400000  0.44290000  0.73040000  1.0 -0.2718440853
N  N24  1  0.92600000  0.94290000  0.76960000  1.0 -0.2718440853
N  N25  1  0.81000000  0.69310000  0.47860000  1.0 -0.2718440853
N  N26  1  0.19000000  0.19310000  0.02140000  1.0 -0.2718440853
N  N27  1  0.19000000  0.30690000  0.52140000  1.0 -0.2718440853
N  N28  1  0.81000000  0.80690000  0.97860000  1.0 -0.2718440853
N  N29  1  0.86740000  0.67790000  0.58080000  1.0 -0.18771302
N  N30  1  0.13260000  0.17790000  0.91920000  1.0 -0.18771302
N  N31  1  0.13260000  0.32210000  0.41920000  1.0 -0.18771302
N  N32  1  0.86740000  0.82210000  0.08080000  1.0 -0.18771302
N  N33  1  0.99610000  0.73090000  0.56450000  1.0 -0.2567213289
N  N34  1  0.00390000  0.23090000  0.93550000  1.0 -0.2567213289
N  N35  1  0.00390000  0.26910000  0.43550000  1.0 -0.2567213289
N  N36  1  0.99610000  0.76910000  0.06450000  1.0 -0.2567213289
N  N37  1  0.65390000  0.47030000  0.55850000  1.0 -0.3414522894
N  N38  1  0.34610000  0.97030000  0.94150000  1.0 -0.3414522894
N  N39  1  0.34610000  0.52970000  0.44150000  1.0 -0.3414522894
N  N40  1  0.65390000  0.02970000  0.05850000  1.0 -0.3414522894
N  N41  1  0.58150000  0.54620000  0.38540000  1.0 -0.3246431835
N  N42  1  0.41850000  0.04620000  0.11460000  1.0 -0.3246431835
N  N43  1  0.41850000  0.45380000  0.61460000  1.0 -0.3246431835
N  N44  1  0.58150000  0.95380000  0.88540000  1.0 -0.3246431835
N  N45  1  0.50080000  0.37480000  0.44870000  1.0 -0.3277523592
N  N46  1  0.49920000  0.87480000  0.05130000  1.0 -0.3277523592
N  N47  1  0.49920000  0.62520000  0.55130000  1.0 -0.3277523592
N  N48  1  0.50080000  0.12520000  0.94870000  1.0 -0.3277523592
N  N49  1  0.83070000  0.48070000  0.53910000  1.0 -0.3619409996
N  N50  1  0.16930000  0.98070000  0.96090000  1.0 -0.3619409996
N  N51  1  0.16930000  0.51930000  0.46090000  1.0 -0.3619409996
N  N52  1  0.83070000  0.01930000  0.03910000  1.0 -0.3619409996
N  N53  1  0.95470000  0.47450000  0.36850000  1.0 -0.3619409996
N  N54  1  0.04530000  0.97450000  0.13150000  1.0 -0.3619409996
N  N55  1  0.04530000  0.52550000  0.63150000  1.0 -0.3619409996
N  N56  1  0.95470000  0.02550000  0.86850000  1.0 -0.3619409996
N  N57  1  0.96450000  0.63000000  0.47950000  1.0 -0.36599214
N  N58  1  0.03550000  0.13000000  0.02050000  1.0 -0.3619409996
N  N59  1  0.03550000  0.37000000  0.52050000  1.0 -0.3619409996
N  N60  1  0.96450000  0.87000000  0.97950000  1.0 -0.36599214
N  N61  1  0.92470000  0.43620000  0.23860000  1.0 -0.3619409996
N  N62  1  0.07530000  0.93620000  0.26140000  1.0 -0.3619409996
N  N63  1  0.07530000  0.56380000  0.76140000  1.0 -0.3619409996
N  N64  1  0.92470000  0.06380000  0.73860000  1.0 -0.3619409996
N  N65  1  0.10230000  0.44470000  0.11190000  1.0 -0.241202278
N  N66  1  0.89770000  0.94470000  0.38810000  1.0 -0.241202278
N  N67  1  0.89770000  0.55530000  0.88810000  1.0 -0.241202278
N  N68  1  0.10230000  0.05530000  0.61190000  1.0 -0.241202278
N  N69  1  0.10920000  0.29790000  0.23530000  1.0 -0.3277523592
N  N70  1  0.89080000  0.79790000  0.26470000  1.0 -0.3277523592
N  N71  1  0.89080000  0.70210000  0.76470000  1.0 -0.3277523592
N  N72  1  0.10920000  0.20210000  0.73530000  1.0 -0.3277523592
N  N73  1  0.87490000  0.26140000  0.20050000  1.0 -0.3414522894
N  N74  1  0.12510000  0.76140000  0.29950000  1.0 -0.3414522894
N  N75  1  0.12510000  0.73860000  0.79950000  1.0 -0.3414522894
N  N76  1  0.87490000  0.23860000  0.70050000  1.0 -0.3414522894
N  N77  1  0.87670000  0.38230000  0.04890000  1.0 -0.2499996126
N  N78  1  0.12330000  0.88230000  0.45110000  1.0 -0.2499996126
N  N79  1  0.12330000  0.61770000  0.95110000  1.0 -0.2499996126
N  N80  1  0.87670000  0.11770000  0.54890000  1.0 -0.2499996126
N  N81  1  0.94570000  0.76260000  0.44650000  1.0 -0.3527015261
N  N82  1  0.05430000  0.26260000  0.05350000  1.0 -0.3527015261
N  N83  1  0.05430000  0.23740000  0.55350000  1.0 -0.3527015261
N  N84  1  0.94570000  0.73740000  0.94650000  1.0 -0.3527015261
