# DDEC6 charges by PACMAN v1.1 (https://github.com/mtap-research/PACMAN-charge/)
data_JEFWUQ_ASR_pacman
_symmetry_space_group_name_H-M   'P 1'
_cell_length_a   14.41140000
_cell_length_b   19.88110000
_cell_length_c   27.56500000
_cell_angle_alpha   90.00000000
_cell_angle_beta   90.00000000
_cell_angle_gamma   90.00000000
_symmetry_Int_Tables_number   1
_chemical_formula_structural   Co2SiH26W12C45(N3O10)3
_chemical_formula_sum   'Co8 Si4 H104 W48 C180 N36 O120'
_cell_volume   7897.77176635
_cell_formula_units_Z   4
loop_
 _symmetry_equiv_pos_site_id
 _symmetry_equiv_pos_as_xyz
  1  'x, y, z'
loop_
 _atom_site_type_symbol
 _atom_site_label
 _atom_site_symmetry_multiplicity
 _atom_site_fract_x
 _atom_site_fract_y
 _atom_site_fract_z
 _atom_site_occupancy
 _atom_site_charge
Co  Co1  1  0.77200000  0.33722000  0.63433000  1.0 0.5805654117
Co  Co2  1  0.32760000  0.32575000  0.84402000  1.0 0.563894529
Co  Co3  1  0.22800000  0.83722000  0.36567000  1.0 0.5805654117
Co  Co4  1  0.67240000  0.82575000  0.15598000  1.0 0.563894529
Co  Co5  1  0.72800000  0.33722000  0.13433000  1.0 0.5805654117
Co  Co6  1  0.17240000  0.32575000  0.34402000  1.0 0.563894529
Co  Co7  1  0.27200000  0.83722000  0.86567000  1.0 0.5805654117
Co  Co8  1  0.82760000  0.82575000  0.65598000  1.0 0.563894529
Si  Si1  1  0.73360000  0.53800000  0.84890000  1.0 1.580722768
Si  Si2  1  0.26640000  0.03800000  0.15110000  1.0 1.580722768
Si  Si3  1  0.76640000  0.53800000  0.34890000  1.0 1.580722768
Si  Si4  1  0.23360000  0.03800000  0.65110000  1.0 1.580722768
H  H1  1  0.50690000  0.12460000  0.96580000  1.0 0.0893843824
H  H2  1  0.45810000  0.31670000  0.93280000  1.0 0.1000951931
H  H3  1  0.25190000  0.08850000  0.88750000  1.0 0.1293458766
H  H4  1  0.60470000  0.21410000  0.10640000  1.0 0.0893843824
H  H5  1  0.70010000  0.36130000  0.02670000  1.0 0.1000951931
H  H6  1  0.36130000  0.52250000  0.28240000  1.0 0.1185479054
H  H7  1  0.32780000  0.17540000  0.85970000  1.0 0.0893843824
H  H8  1  0.16770000  0.31790000  0.78650000  1.0 0.0893843824
H  H9  1  0.29160000  0.52620000  0.05970000  1.0 0.0893843824
H  H10  1  0.33200000  0.56260000  0.90490000  1.0 0.0893843824
H  H11  1  0.33240000  0.46830000  0.84900000  1.0 0.0616227837
H  H12  1  0.50340000  0.01820000  0.91890000  1.0 0.1185479054
H  H13  1  0.44450000  0.91080000  0.90620000  1.0 0.1100636424
H  H14  1  0.18570000  0.25460000  0.91910000  1.0 0.080993864
H  H15  1  0.20590000  0.62420000  0.94450000  1.0 0.1000951931
H  H16  1  0.93690000  0.22220000  0.85160000  1.0 0.1100636424
H  H17  1  0.23920000  0.44010000  0.00970000  1.0 0.1000951931
H  H18  1  0.34870000  0.71300000  0.12580000  1.0 0.0893843824
H  H19  1  0.32010000  0.42820000  0.32840000  1.0 0.0893843824
H  H20  1  0.34940000  0.63040000  0.25380000  1.0 0.0893843824
H  H21  1  0.20160000  0.70770000  0.07070000  1.0 0.0893843824
H  H22  1  0.13340000  0.49320000  0.20440000  1.0 0.1293458766
H  H23  1  0.26010000  0.34030000  0.95540000  1.0 0.080993864
H  H24  1  0.22090000  0.53600000  0.14040000  1.0 0.1000951931
H  H25  1  0.51270000  0.17850000  0.04400000  1.0 0.1185479054
H  H26  1  0.09890000  0.39470000  0.26110000  1.0 0.1293458766
H  H27  1  0.49310000  0.62460000  0.03420000  1.0 0.0893843824
H  H28  1  0.54190000  0.81670000  0.06720000  1.0 0.1000951931
H  H29  1  0.74810000  0.58850000  0.11250000  1.0 0.1293458766
H  H30  1  0.39530000  0.71410000  0.89360000  1.0 0.0893843824
H  H31  1  0.29990000  0.86130000  0.97330000  1.0 0.1000951931
H  H32  1  0.63870000  0.02250000  0.71760000  1.0 0.1185479054
H  H33  1  0.67220000  0.67540000  0.14030000  1.0 0.0893843824
H  H34  1  0.83230000  0.81790000  0.21350000  1.0 0.0893843824
H  H35  1  0.70840000  0.02620000  0.94030000  1.0 0.0893843824
H  H36  1  0.66800000  0.06260000  0.09510000  1.0 0.0893843824
H  H37  1  0.66760000  0.96830000  0.15100000  1.0 0.0616227837
H  H38  1  0.49660000  0.51820000  0.08110000  1.0 0.1185479054
H  H39  1  0.55550000  0.41080000  0.09380000  1.0 0.1100636424
H  H40  1  0.81430000  0.75460000  0.08090000  1.0 0.080993864
H  H41  1  0.79410000  0.12420000  0.05550000  1.0 0.1000951931
H  H42  1  0.06310000  0.72220000  0.14840000  1.0 0.1100636424
H  H43  1  0.76080000  0.94010000  0.99030000  1.0 0.1000951931
H  H44  1  0.65130000  0.21300000  0.87420000  1.0 0.0893843824
H  H45  1  0.67990000  0.92820000  0.67160000  1.0 0.0893843824
H  H46  1  0.65060000  0.13040000  0.74620000  1.0 0.0893843824
H  H47  1  0.79840000  0.20770000  0.92930000  1.0 0.0893843824
H  H48  1  0.86660000  0.99320000  0.79560000  1.0 0.1293458766
H  H49  1  0.73990000  0.84030000  0.04460000  1.0 0.080993864
H  H50  1  0.77910000  0.03600000  0.85960000  1.0 0.1000951931
H  H51  1  0.48730000  0.67850000  0.95600000  1.0 0.1185479054
H  H52  1  0.90110000  0.89470000  0.73890000  1.0 0.1293458766
H  H53  1  0.99310000  0.12460000  0.46580000  1.0 0.0893843824
H  H54  1  0.04190000  0.31670000  0.43280000  1.0 0.1000951931
H  H55  1  0.24810000  0.08850000  0.38750000  1.0 0.1293458766
H  H56  1  0.89530000  0.21410000  0.60640000  1.0 0.0893843824
H  H57  1  0.79990000  0.36130000  0.52670000  1.0 0.1000951931
H  H58  1  0.13870000  0.52250000  0.78240000  1.0 0.1185479054
H  H59  1  0.17220000  0.17540000  0.35970000  1.0 0.0893843824
H  H60  1  0.33230000  0.31790000  0.28650000  1.0 0.0893843824
H  H61  1  0.20840000  0.52620000  0.55970000  1.0 0.0893843824
H  H62  1  0.16800000  0.56260000  0.40490000  1.0 0.0893843824
H  H63  1  0.16760000  0.46830000  0.34900000  1.0 0.0616227837
H  H64  1  0.99660000  0.01820000  0.41890000  1.0 0.1185479054
H  H65  1  0.05550000  0.91080000  0.40620000  1.0 0.1100636424
H  H66  1  0.31430000  0.25460000  0.41910000  1.0 0.080993864
H  H67  1  0.29410000  0.62420000  0.44450000  1.0 0.1000951931
H  H68  1  0.56310000  0.22220000  0.35160000  1.0 0.1100636424
H  H69  1  0.26080000  0.44010000  0.50970000  1.0 0.1000951931
H  H70  1  0.15130000  0.71300000  0.62580000  1.0 0.0893843824
H  H71  1  0.17990000  0.42820000  0.82840000  1.0 0.0893843824
H  H72  1  0.15060000  0.63040000  0.75380000  1.0 0.0893843824
H  H73  1  0.29840000  0.70770000  0.57070000  1.0 0.0893843824
H  H74  1  0.36660000  0.49320000  0.70440000  1.0 0.1293458766
H  H75  1  0.23990000  0.34030000  0.45540000  1.0 0.080993864
H  H76  1  0.27910000  0.53600000  0.64040000  1.0 0.1000951931
H  H77  1  0.98730000  0.17850000  0.54400000  1.0 0.1185479054
H  H78  1  0.40110000  0.39470000  0.76110000  1.0 0.1293458766
H  H79  1  0.00690000  0.62460000  0.53420000  1.0 0.0893843824
H  H80  1  0.95810000  0.81670000  0.56720000  1.0 0.1000951931
H  H81  1  0.75190000  0.58850000  0.61250000  1.0 0.1293458766
H  H82  1  0.10470000  0.71410000  0.39360000  1.0 0.0893843824
H  H83  1  0.20010000  0.86130000  0.47330000  1.0 0.1000951931
H  H84  1  0.86130000  0.02250000  0.21760000  1.0 0.1185479054
H  H85  1  0.82780000  0.67540000  0.64030000  1.0 0.0893843824
H  H86  1  0.66770000  0.81790000  0.71350000  1.0 0.0893843824
H  H87  1  0.79160000  0.02620000  0.44030000  1.0 0.0893843824
H  H88  1  0.83200000  0.06260000  0.59510000  1.0 0.0893843824
H  H89  1  0.83240000  0.96830000  0.65100000  1.0 0.0616227837
H  H90  1  0.00340000  0.51820000  0.58110000  1.0 0.1185479054
H  H91  1  0.94450000  0.41080000  0.59380000  1.0 0.1100636424
H  H92  1  0.68570000  0.75460000  0.58090000  1.0 0.080993864
H  H93  1  0.70590000  0.12420000  0.55550000  1.0 0.1000951931
H  H94  1  0.43690000  0.72220000  0.64840000  1.0 0.1100636424
H  H95  1  0.73920000  0.94010000  0.49030000  1.0 0.1000951931
H  H96  1  0.84870000  0.21300000  0.37420000  1.0 0.0893843824
H  H97  1  0.82010000  0.92820000  0.17160000  1.0 0.0893843824
H  H98  1  0.84940000  0.13040000  0.24620000  1.0 0.0893843824
H  H99  1  0.70160000  0.20770000  0.42930000  1.0 0.0893843824
H  H100  1  0.63340000  0.99320000  0.29560000  1.0 0.1293458766
H  H101  1  0.76010000  0.84030000  0.54460000  1.0 0.080993864
H  H102  1  0.72090000  0.03600000  0.35960000  1.0 0.1000951931
H  H103  1  0.01270000  0.67850000  0.45600000  1.0 0.1185479054
H  H104  1  0.59890000  0.89470000  0.23890000  1.0 0.1293458766
W  W1  1  0.79362000  0.47824000  0.96391000  1.0 2.3406633326
W  W2  1  0.57415000  0.52441000  0.94538000  1.0 2.0125894436
W  W3  1  0.56068000  0.41419000  0.83929000  1.0 2.3593743844
W  W4  1  0.96502000  0.48928000  0.86530000  1.0 2.2738960275
W  W5  1  0.67525000  0.70882000  0.83300000  1.0 2.3593743844
W  W6  1  0.77845000  0.36449000  0.85930000  1.0 2.2282526383
W  W7  1  0.50623000  0.59372000  0.82669000  1.0 2.1111462999
W  W8  1  0.74098000  0.64202000  0.95258000  1.0 2.3406633326
W  W9  1  0.66222000  0.60537000  0.73717000  1.0 2.2924033293
W  W10  1  0.90377000  0.55361000  0.75746000  1.0 2.1834836889
W  W11  1  0.91512000  0.65413000  0.85469000  1.0 2.4448138961
W  W12  1  0.71881000  0.42652000  0.75104000  1.0 2.3913472184
W  W13  1  0.20638000  0.97824000  0.03609000  1.0 2.3406633326
W  W14  1  0.42585000  0.02441000  0.05462000  1.0 2.0125894436
W  W15  1  0.43932000  0.91419000  0.16071000  1.0 2.3593743844
W  W16  1  0.03498000  0.98928000  0.13470000  1.0 2.2738960275
W  W17  1  0.32475000  0.20882000  0.16700000  1.0 2.3593743844
W  W18  1  0.22155000  0.86449000  0.14070000  1.0 2.2282526383
W  W19  1  0.49377000  0.09372000  0.17331000  1.0 2.1111462999
W  W20  1  0.25902000  0.14202000  0.04742000  1.0 2.3406633326
W  W21  1  0.33778000  0.10537000  0.26283000  1.0 2.2924033293
W  W22  1  0.09623000  0.05361000  0.24254000  1.0 2.1834836889
W  W23  1  0.08488000  0.15413000  0.14531000  1.0 2.4478514283
W  W24  1  0.28119000  0.92652000  0.24896000  1.0 2.3913472184
W  W25  1  0.70638000  0.47824000  0.46391000  1.0 2.3406633326
W  W26  1  0.92585000  0.52441000  0.44538000  1.0 2.0125894436
W  W27  1  0.93932000  0.41419000  0.33929000  1.0 2.3593743844
W  W28  1  0.53498000  0.48928000  0.36530000  1.0 2.277082611
W  W29  1  0.82475000  0.70882000  0.33300000  1.0 2.3593743844
W  W30  1  0.72155000  0.36449000  0.35930000  1.0 2.2282526383
W  W31  1  0.99377000  0.59372000  0.32669000  1.0 2.1111462999
W  W32  1  0.75902000  0.64202000  0.45258000  1.0 2.3406633326
W  W33  1  0.83778000  0.60537000  0.23717000  1.0 2.2924033293
W  W34  1  0.59623000  0.55361000  0.25746000  1.0 2.1834836889
W  W35  1  0.58488000  0.65413000  0.35469000  1.0 2.4478514283
W  W36  1  0.78119000  0.42652000  0.25104000  1.0 2.3913472184
W  W37  1  0.29362000  0.97824000  0.53609000  1.0 2.3406633326
W  W38  1  0.07415000  0.02441000  0.55462000  1.0 2.0125894436
W  W39  1  0.06068000  0.91419000  0.66071000  1.0 2.3593743844
W  W40  1  0.46502000  0.98928000  0.63470000  1.0 2.277082611
W  W41  1  0.17525000  0.20882000  0.66700000  1.0 2.3719856032
W  W42  1  0.27845000  0.86449000  0.64070000  1.0 2.2282526383
W  W43  1  0.00623000  0.09372000  0.67331000  1.0 2.1294864902
W  W44  1  0.24098000  0.14202000  0.54742000  1.0 2.3406633326
W  W45  1  0.16222000  0.10537000  0.76283000  1.0 2.2924033293
W  W46  1  0.40377000  0.05361000  0.74254000  1.0 2.187716175
W  W47  1  0.41512000  0.15413000  0.64531000  1.0 2.4478514283
W  W48  1  0.21881000  0.92652000  0.74896000  1.0 2.3913472184
C  C1  1  0.93700000  0.35360000  0.69990000  1.0 0.1000951931
C  C2  1  0.49480000  0.22370000  0.95530000  1.0 0.0312760008
C  C3  1  0.47660000  0.15690000  0.94720000  1.0 -0.1789320221
C  C4  1  0.44800000  0.27130000  0.92650000  1.0 0.0202727447
C  C5  1  0.29460000  0.05380000  0.89070000  1.0 -0.227869734
C  C6  1  0.55500000  0.24800000  0.99580000  1.0 0.080993864
C  C7  1  0.61280000  0.30190000  0.98960000  1.0 -0.2098968438
C  C8  1  0.60600000  0.23760000  0.07720000  1.0 0.0463716668
C  C9  1  0.66300000  0.32320000  0.03010000  1.0 0.0312760008
C  C10  1  0.91700000  0.23970000  0.75350000  1.0 -0.1583536229
C  C11  1  0.31000000  0.49700000  0.27440000  1.0 -0.2098968438
C  C12  1  0.98160000  0.28390000  0.76880000  1.0 0.1000951931
C  C13  1  0.99900000  0.34430000  0.74280000  1.0 -0.3478856048
C  C14  1  0.86400000  0.25550000  0.71340000  1.0 0.1784654633
C  C15  1  0.37020000  0.18760000  0.88360000  1.0 -0.0107034103
C  C16  1  0.26800000  0.98550000  0.88240000  1.0 0.1000951931
C  C17  1  0.41240000  0.13600000  0.91090000  1.0 0.0202727447
C  C18  1  0.03700000  0.27120000  0.81220000  1.0 0.071116781
C  C19  1  0.14100000  0.29580000  0.81290000  1.0 0.1000951931
C  C20  1  0.27500000  0.50690000  0.96310000  1.0 0.080993864
C  C21  1  0.27600000  0.56600000  0.04360000  1.0 -0.1976859233
C  C22  1  0.31300000  0.52000000  0.91450000  1.0 -0.2567858956
C  C23  1  0.32000000  0.46200000  0.88200000  1.0 0.0359541254
C  C24  1  0.38200000  0.06660000  0.90320000  1.0 0.1100636424
C  C25  1  0.44210000  0.01200000  0.90940000  1.0 -0.240923636
C  C26  1  0.40600000  0.94730000  0.90070000  1.0 0.080993864
C  C27  1  0.26400000  0.62800000  0.06740000  1.0 -0.0343539704
C  C28  1  0.15100000  0.25200000  0.89090000  1.0 -0.0107034103
C  C29  1  0.22300000  0.62500000  0.97710000  1.0 -0.0626380219
C  C30  1  0.99900000  0.23400000  0.85200000  1.0 -0.170782551
C  C31  1  0.26000000  0.44600000  0.97800000  1.0 -0.1976859233
C  C32  1  0.33000000  0.67680000  0.14500000  1.0 -0.0107034103
C  C33  1  0.28600000  0.62400000  0.12110000  1.0 0.0202727447
C  C34  1  0.28400000  0.43800000  0.30150000  1.0 0.0141103046
C  C35  1  0.25300000  0.51300000  0.23570000  1.0 0.0893843824
C  C36  1  0.33100000  0.62900000  0.22140000  1.0 -0.019895869
C  C37  1  0.22300000  0.67400000  0.04970000  1.0 -0.0015882867
C  C38  1  0.17500000  0.48000000  0.22800000  1.0 -0.2098968438
C  C39  1  0.27400000  0.38400000  0.94500000  1.0 0.0616227837
C  C40  1  0.28500000  0.56900000  0.20300000  1.0 0.0202727447
C  C41  1  0.26400000  0.56900000  0.99740000  1.0 0.002479097
C  C42  1  0.25800000  0.57000000  0.15270000  1.0 -0.2098968438
C  C43  1  0.55200000  0.21540000  0.03970000  1.0 -0.1938285752
C  C44  1  0.05900000  0.21400000  0.89500000  1.0 -0.2493674376
C  C45  1  0.15600000  0.41700000  0.26300000  1.0 0.1100636424
C  C46  1  0.06300000  0.85360000  0.30010000  1.0 0.1000951931
C  C47  1  0.50520000  0.72370000  0.04470000  1.0 0.0312760008
C  C48  1  0.52340000  0.65690000  0.05280000  1.0 -0.1789320221
C  C49  1  0.55200000  0.77130000  0.07350000  1.0 0.0202727447
C  C50  1  0.70540000  0.55380000  0.10930000  1.0 -0.227869734
C  C51  1  0.44500000  0.74800000  0.00420000  1.0 0.080993864
C  C52  1  0.38720000  0.80190000  0.01040000  1.0 -0.2098968438
C  C53  1  0.39400000  0.73760000  0.92280000  1.0 0.0463716668
C  C54  1  0.33700000  0.82320000  0.96990000  1.0 0.0312760008
C  C55  1  0.08300000  0.73970000  0.24650000  1.0 -0.1583536229
C  C56  1  0.69000000  0.99700000  0.72560000  1.0 -0.2098968438
C  C57  1  0.01840000  0.78390000  0.23120000  1.0 0.1000951931
C  C58  1  0.00100000  0.84430000  0.25720000  1.0 -0.3478856048
C  C59  1  0.13600000  0.75550000  0.28660000  1.0 0.1784654633
C  C60  1  0.62980000  0.68760000  0.11640000  1.0 -0.0107034103
C  C61  1  0.73200000  0.48550000  0.11760000  1.0 0.1000951931
C  C62  1  0.58760000  0.63600000  0.08910000  1.0 0.0202727447
C  C63  1  0.96300000  0.77120000  0.18780000  1.0 0.071116781
C  C64  1  0.85900000  0.79580000  0.18710000  1.0 0.1000951931
C  C65  1  0.72500000  0.00690000  0.03690000  1.0 0.080993864
C  C66  1  0.72400000  0.06600000  0.95640000  1.0 -0.1976859233
C  C67  1  0.68700000  0.02000000  0.08550000  1.0 -0.2567858956
C  C68  1  0.68000000  0.96200000  0.11800000  1.0 0.0359541254
C  C69  1  0.61800000  0.56660000  0.09680000  1.0 0.1100636424
C  C70  1  0.55790000  0.51200000  0.09060000  1.0 -0.240923636
C  C71  1  0.59400000  0.44730000  0.09930000  1.0 0.080993864
C  C72  1  0.73600000  0.12800000  0.93260000  1.0 -0.0343539704
C  C73  1  0.84900000  0.75200000  0.10910000  1.0 -0.0107034103
C  C74  1  0.77700000  0.12500000  0.02290000  1.0 -0.0626380219
C  C75  1  0.00100000  0.73400000  0.14800000  1.0 -0.170782551
C  C76  1  0.74000000  0.94600000  0.02200000  1.0 -0.1976859233
C  C77  1  0.67000000  0.17680000  0.85500000  1.0 -0.0107034103
C  C78  1  0.71400000  0.12400000  0.87890000  1.0 0.0202727447
C  C79  1  0.71600000  0.93800000  0.69850000  1.0 0.0141103046
C  C80  1  0.74700000  0.01300000  0.76430000  1.0 0.0893843824
C  C81  1  0.66900000  0.12900000  0.77860000  1.0 -0.019895869
C  C82  1  0.77700000  0.17400000  0.95030000  1.0 -0.0015882867
C  C83  1  0.82500000  0.98000000  0.77200000  1.0 -0.2098968438
C  C84  1  0.72600000  0.88400000  0.05500000  1.0 0.0616227837
C  C85  1  0.71500000  0.06900000  0.79700000  1.0 0.0202727447
C  C86  1  0.73600000  0.06900000  0.00260000  1.0 0.002479097
C  C87  1  0.74200000  0.07000000  0.84730000  1.0 -0.2098968438
C  C88  1  0.44800000  0.71540000  0.96030000  1.0 -0.1938285752
C  C89  1  0.94100000  0.71400000  0.10500000  1.0 -0.2493674376
C  C90  1  0.84400000  0.91700000  0.73700000  1.0 0.1100636424
C  C91  1  0.56300000  0.35360000  0.19990000  1.0 0.1000951931
C  C92  1  0.00520000  0.22370000  0.45530000  1.0 0.0312760008
C  C93  1  0.02340000  0.15690000  0.44720000  1.0 -0.1789320221
C  C94  1  0.05200000  0.27130000  0.42650000  1.0 0.0202727447
C  C95  1  0.20540000  0.05380000  0.39070000  1.0 -0.227869734
C  C96  1  0.94500000  0.24800000  0.49580000  1.0 0.080993864
C  C97  1  0.88720000  0.30190000  0.48960000  1.0 -0.2098968438
C  C98  1  0.89400000  0.23760000  0.57720000  1.0 0.0463716668
C  C99  1  0.83700000  0.32320000  0.53010000  1.0 0.0312760008
C  C100  1  0.58300000  0.23970000  0.25350000  1.0 -0.1583536229
C  C101  1  0.19000000  0.49700000  0.77440000  1.0 -0.2098968438
C  C102  1  0.51840000  0.28390000  0.26880000  1.0 0.1000951931
C  C103  1  0.50100000  0.34430000  0.24280000  1.0 -0.3478856048
C  C104  1  0.63600000  0.25550000  0.21340000  1.0 0.1784654633
C  C105  1  0.12980000  0.18760000  0.38360000  1.0 -0.0107034103
C  C106  1  0.23200000  0.98550000  0.38240000  1.0 0.1000951931
C  C107  1  0.08760000  0.13600000  0.41090000  1.0 0.0202727447
C  C108  1  0.46300000  0.27120000  0.31220000  1.0 0.071116781
C  C109  1  0.35900000  0.29580000  0.31290000  1.0 0.1000951931
C  C110  1  0.22500000  0.50690000  0.46310000  1.0 0.080993864
C  C111  1  0.22400000  0.56600000  0.54360000  1.0 -0.1976859233
C  C112  1  0.18700000  0.52000000  0.41450000  1.0 -0.2567858956
C  C113  1  0.18000000  0.46200000  0.38200000  1.0 0.0359541254
C  C114  1  0.11800000  0.06660000  0.40320000  1.0 0.1100636424
C  C115  1  0.05790000  0.01200000  0.40940000  1.0 -0.240923636
C  C116  1  0.09400000  0.94730000  0.40070000  1.0 0.080993864
C  C117  1  0.23600000  0.62800000  0.56740000  1.0 -0.0343539704
C  C118  1  0.34900000  0.25200000  0.39090000  1.0 -0.0107034103
C  C119  1  0.27700000  0.62500000  0.47710000  1.0 -0.0626380219
C  C120  1  0.50100000  0.23400000  0.35200000  1.0 -0.170782551
C  C121  1  0.24000000  0.44600000  0.47800000  1.0 -0.1976859233
C  C122  1  0.17000000  0.67680000  0.64500000  1.0 -0.0107034103
C  C123  1  0.21400000  0.62400000  0.62110000  1.0 0.0202727447
C  C124  1  0.21600000  0.43800000  0.80150000  1.0 0.0141103046
C  C125  1  0.24700000  0.51300000  0.73570000  1.0 0.0893843824
C  C126  1  0.16900000  0.62900000  0.72140000  1.0 -0.019895869
C  C127  1  0.27700000  0.67400000  0.54970000  1.0 -0.0015882867
C  C128  1  0.32500000  0.48000000  0.72800000  1.0 -0.2098968438
C  C129  1  0.22600000  0.38400000  0.44500000  1.0 0.0616227837
C  C130  1  0.21500000  0.56900000  0.70300000  1.0 0.0202727447
C  C131  1  0.23600000  0.56900000  0.49740000  1.0 0.002479097
C  C132  1  0.24200000  0.57000000  0.65270000  1.0 -0.2098968438
C  C133  1  0.94800000  0.21540000  0.53970000  1.0 -0.1938285752
C  C134  1  0.44100000  0.21400000  0.39500000  1.0 -0.2493674376
C  C135  1  0.34400000  0.41700000  0.76300000  1.0 0.1100636424
C  C136  1  0.43700000  0.85360000  0.80010000  1.0 0.1000951931
C  C137  1  0.99480000  0.72370000  0.54470000  1.0 0.0312760008
C  C138  1  0.97660000  0.65690000  0.55280000  1.0 -0.1789320221
C  C139  1  0.94800000  0.77130000  0.57350000  1.0 0.0202727447
C  C140  1  0.79460000  0.55380000  0.60930000  1.0 -0.227869734
C  C141  1  0.05500000  0.74800000  0.50420000  1.0 0.080993864
C  C142  1  0.11280000  0.80190000  0.51040000  1.0 -0.2098968438
C  C143  1  0.10600000  0.73760000  0.42280000  1.0 0.0463716668
C  C144  1  0.16300000  0.82320000  0.46990000  1.0 0.0312760008
C  C145  1  0.41700000  0.73970000  0.74650000  1.0 -0.1583536229
C  C146  1  0.81000000  0.99700000  0.22560000  1.0 -0.2098968438
C  C147  1  0.48160000  0.78390000  0.73120000  1.0 0.1000951931
C  C148  1  0.49900000  0.84430000  0.75720000  1.0 -0.3478856048
C  C149  1  0.36400000  0.75550000  0.78660000  1.0 0.1784654633
C  C150  1  0.87020000  0.68760000  0.61640000  1.0 -0.0107034103
C  C151  1  0.76800000  0.48550000  0.61760000  1.0 0.1000951931
C  C152  1  0.91240000  0.63600000  0.58910000  1.0 0.0202727447
C  C153  1  0.53700000  0.77120000  0.68780000  1.0 0.071116781
C  C154  1  0.64100000  0.79580000  0.68710000  1.0 0.1000951931
C  C155  1  0.77500000  0.00690000  0.53690000  1.0 0.080993864
C  C156  1  0.77600000  0.06600000  0.45640000  1.0 -0.1976859233
C  C157  1  0.81300000  0.02000000  0.58550000  1.0 -0.2567858956
C  C158  1  0.82000000  0.96200000  0.61800000  1.0 0.0359541254
C  C159  1  0.88200000  0.56660000  0.59680000  1.0 0.1100636424
C  C160  1  0.94210000  0.51200000  0.59060000  1.0 -0.240923636
C  C161  1  0.90600000  0.44730000  0.59930000  1.0 0.080993864
C  C162  1  0.76400000  0.12800000  0.43260000  1.0 -0.0343539704
C  C163  1  0.65100000  0.75200000  0.60910000  1.0 -0.0107034103
C  C164  1  0.72300000  0.12500000  0.52290000  1.0 -0.0626380219
C  C165  1  0.49900000  0.73400000  0.64800000  1.0 -0.170782551
C  C166  1  0.76000000  0.94600000  0.52200000  1.0 -0.1976859233
C  C167  1  0.83000000  0.17680000  0.35500000  1.0 -0.0107034103
C  C168  1  0.78600000  0.12400000  0.37890000  1.0 0.0202727447
C  C169  1  0.78400000  0.93800000  0.19850000  1.0 0.0141103046
C  C170  1  0.75300000  0.01300000  0.26430000  1.0 0.0893843824
C  C171  1  0.83100000  0.12900000  0.27860000  1.0 -0.019895869
C  C172  1  0.72300000  0.17400000  0.45030000  1.0 -0.0015882867
C  C173  1  0.67500000  0.98000000  0.27200000  1.0 -0.2098968438
C  C174  1  0.77400000  0.88400000  0.55500000  1.0 0.0616227837
C  C175  1  0.78500000  0.06900000  0.29700000  1.0 0.0202727447
C  C176  1  0.76400000  0.06900000  0.50260000  1.0 0.002479097
C  C177  1  0.75800000  0.07000000  0.34730000  1.0 -0.2098968438
C  C178  1  0.05200000  0.71540000  0.46030000  1.0 -0.1938285752
C  C179  1  0.55900000  0.71400000  0.60500000  1.0 -0.2493674376
C  C180  1  0.65600000  0.91700000  0.23700000  1.0 0.1100636424
N  N1  1  0.32600000  0.93530000  0.88650000  1.0 -0.1976859233
N  N2  1  0.87560000  0.30850000  0.68760000  1.0 -0.2160071804
N  N3  1  0.66230000  0.29230000  0.07390000  1.0 -0.3196110016
N  N4  1  0.38800000  0.25500000  0.89010000  1.0 -0.2669718078
N  N5  1  0.21300000  0.39670000  0.29200000  1.0 -0.240923636
N  N6  1  0.30900000  0.39770000  0.89930000  1.0 -0.2814834229
N  N7  1  0.18770000  0.28410000  0.85090000  1.0 -0.2814834229
N  N8  1  0.34900000  0.68120000  0.19210000  1.0 -0.2493674376
N  N9  1  0.20500000  0.68230000  0.00390000  1.0 -0.2098968438
N  N10  1  0.67400000  0.43530000  0.11350000  1.0 -0.1976859233
N  N11  1  0.12440000  0.80850000  0.31240000  1.0 -0.2160071804
N  N12  1  0.33770000  0.79230000  0.92610000  1.0 -0.3196110016
N  N13  1  0.61200000  0.75500000  0.10990000  1.0 -0.2669718078
N  N14  1  0.78700000  0.89670000  0.70800000  1.0 -0.240923636
N  N15  1  0.69100000  0.89770000  0.10070000  1.0 -0.2814834229
N  N16  1  0.81230000  0.78410000  0.14910000  1.0 -0.2814834229
N  N17  1  0.65100000  0.18120000  0.80790000  1.0 -0.2493674376
N  N18  1  0.79500000  0.18230000  0.99610000  1.0 -0.2098968438
N  N19  1  0.17400000  0.93530000  0.38650000  1.0 -0.1976859233
N  N20  1  0.62440000  0.30850000  0.18760000  1.0 -0.2160071804
N  N21  1  0.83770000  0.29230000  0.57390000  1.0 -0.3196110016
N  N22  1  0.11200000  0.25500000  0.39010000  1.0 -0.2669718078
N  N23  1  0.28700000  0.39670000  0.79200000  1.0 -0.240923636
N  N24  1  0.19100000  0.39770000  0.39930000  1.0 -0.2814834229
N  N25  1  0.31230000  0.28410000  0.35090000  1.0 -0.2814834229
N  N26  1  0.15100000  0.68120000  0.69210000  1.0 -0.240923636
N  N27  1  0.29500000  0.68230000  0.50390000  1.0 -0.2098968438
N  N28  1  0.82600000  0.43530000  0.61350000  1.0 -0.1976859233
N  N29  1  0.37560000  0.80850000  0.81240000  1.0 -0.2160071804
N  N30  1  0.16230000  0.79230000  0.42610000  1.0 -0.3196110016
N  N31  1  0.88800000  0.75500000  0.60990000  1.0 -0.2669718078
N  N32  1  0.71300000  0.89670000  0.20800000  1.0 -0.240923636
N  N33  1  0.80900000  0.89770000  0.60070000  1.0 -0.2814834229
N  N34  1  0.68770000  0.78410000  0.64910000  1.0 -0.2814834229
N  N35  1  0.84900000  0.18120000  0.30790000  1.0 -0.2493674376
N  N36  1  0.70500000  0.18230000  0.49610000  1.0 -0.2098968438
O  O1  1  0.84270000  0.55280000  0.83550000  1.0 -1.1636653057
O  O2  1  0.56080000  0.45080000  0.90260000  1.0 -0.8971529788
O  O3  1  0.68510000  0.68850000  0.89950000  1.0 -0.9419610327
O  O4  1  0.71430000  0.38670000  0.69540000  1.0 -0.7713623455
O  O5  1  0.76870000  0.40340000  0.92050000  1.0 -0.9419610327
O  O6  1  0.88780000  0.41450000  0.85180000  1.0 -0.9304528895
O  O7  1  0.64680000  0.34720000  0.85970000  1.0 -0.8971529788
O  O8  1  0.90050000  0.49290000  0.92500000  1.0 -0.9419610327
O  O9  1  0.66200000  0.51020000  0.73570000  1.0 -0.9304528895
O  O10  1  0.66610000  0.59290000  0.82030000  1.0 -1.1338995891
O  O11  1  0.62580000  0.60670000  0.97190000  1.0 -0.9201305236
O  O12  1  0.53690000  0.60290000  0.75900000  1.0 -0.9304528895
O  O13  1  0.98880000  0.50050000  0.79870000  1.0 -0.9304528895
O  O14  1  0.54970000  0.68450000  0.83520000  1.0 -0.9419610327
O  O15  1  0.46090000  0.36490000  0.83800000  1.0 -0.7713623455
O  O16  1  0.76960000  0.35630000  0.78980000  1.0 -0.9304528895
O  O17  1  0.51450000  0.49870000  0.81810000  1.0 -0.9304528895
O  O18  1  0.70430000  0.46280000  0.82970000  1.0 -1.1172660104
O  O19  1  0.82940000  0.47390000  0.75010000  1.0 -0.9201305236
O  O20  1  0.71590000  0.54230000  0.90760000  1.0 -1.1338995891
O  O21  1  0.52740000  0.57760000  0.89240000  1.0 -0.9128001443
O  O22  1  0.79300000  0.59750000  0.74020000  1.0 -0.9201305236
O  O23  1  0.67620000  0.69300000  0.76320000  1.0 -0.9419610327
O  O24  1  0.85490000  0.64660000  0.91570000  1.0 -0.9932939521
O  O25  1  0.66630000  0.47620000  0.98250000  1.0 -0.9304528895
O  O26  1  0.60170000  0.39770000  0.77420000  1.0 -0.8890541456
O  O27  1  0.80140000  0.57130000  0.98730000  1.0 -0.9615643731
O  O28  1  0.80660000  0.69550000  0.83020000  1.0 -0.9720824025
O  O29  1  0.94830000  0.63230000  0.78860000  1.0 -0.9480423591
O  O30  1  0.99630000  0.58160000  0.87560000  1.0 -0.9480423591
O  O31  1  0.15730000  0.05280000  0.16450000  1.0 -1.1636653057
O  O32  1  0.43920000  0.95080000  0.09740000  1.0 -0.8971529788
O  O33  1  0.31490000  0.18850000  0.10050000  1.0 -0.9419610327
O  O34  1  0.28570000  0.88670000  0.30460000  1.0 -0.7713623455
O  O35  1  0.23130000  0.90340000  0.07950000  1.0 -0.9419610327
O  O36  1  0.11220000  0.91450000  0.14820000  1.0 -0.9304528895
O  O37  1  0.35320000  0.84720000  0.14030000  1.0 -0.8971529788
O  O38  1  0.09950000  0.99290000  0.07500000  1.0 -0.9419610327
O  O39  1  0.33800000  0.01020000  0.26430000  1.0 -0.9201305236
O  O40  1  0.33390000  0.09290000  0.17970000  1.0 -1.1338995891
O  O41  1  0.37420000  0.10670000  0.02810000  1.0 -0.9201305236
O  O42  1  0.46310000  0.10290000  0.24100000  1.0 -0.9304528895
O  O43  1  0.01120000  0.00050000  0.20130000  1.0 -0.9304528895
O  O44  1  0.45030000  0.18450000  0.16480000  1.0 -0.9419610327
O  O45  1  0.53910000  0.86490000  0.16200000  1.0 -0.7713623455
O  O46  1  0.23040000  0.85630000  0.21020000  1.0 -0.9304528895
O  O47  1  0.48550000  0.99870000  0.18190000  1.0 -0.9304528895
O  O48  1  0.29570000  0.96280000  0.17030000  1.0 -1.1172660104
O  O49  1  0.17060000  0.97390000  0.24990000  1.0 -0.9201305236
O  O50  1  0.28410000  0.04230000  0.09240000  1.0 -1.1375642529
O  O51  1  0.47260000  0.07760000  0.10760000  1.0 -0.9128001443
O  O52  1  0.20700000  0.09750000  0.25980000  1.0 -0.9201305236
O  O53  1  0.32380000  0.19300000  0.23680000  1.0 -0.9419610327
O  O54  1  0.14510000  0.14660000  0.08430000  1.0 -0.9932939521
O  O55  1  0.33370000  0.97620000  0.01750000  1.0 -0.9304528895
O  O56  1  0.39830000  0.89770000  0.22580000  1.0 -0.8890541456
O  O57  1  0.19860000  0.07130000  0.01270000  1.0 -0.9615643731
O  O58  1  0.19340000  0.19550000  0.16980000  1.0 -0.9720824025
O  O59  1  0.05170000  0.13230000  0.21140000  1.0 -0.9480423591
O  O60  1  0.00370000  0.08160000  0.12440000  1.0 -0.9480423591
O  O61  1  0.65730000  0.55280000  0.33550000  1.0 -1.1636653057
O  O62  1  0.93920000  0.45080000  0.40260000  1.0 -0.8971529788
O  O63  1  0.81490000  0.68850000  0.39950000  1.0 -0.9419610327
O  O64  1  0.78570000  0.38670000  0.19540000  1.0 -0.7713623455
O  O65  1  0.73130000  0.40340000  0.42050000  1.0 -0.9419610327
O  O66  1  0.61220000  0.41450000  0.35180000  1.0 -0.9304528895
O  O67  1  0.85320000  0.34720000  0.35970000  1.0 -0.8971529788
O  O68  1  0.59950000  0.49290000  0.42500000  1.0 -0.9419610327
O  O69  1  0.83800000  0.51020000  0.23570000  1.0 -0.9304528895
O  O70  1  0.83390000  0.59290000  0.32030000  1.0 -1.1338995891
O  O71  1  0.87420000  0.60670000  0.47190000  1.0 -0.9201305236
O  O72  1  0.96310000  0.60290000  0.25900000  1.0 -0.9304528895
O  O73  1  0.51120000  0.50050000  0.29870000  1.0 -0.9304528895
O  O74  1  0.95030000  0.68450000  0.33520000  1.0 -0.9419610327
O  O75  1  0.03910000  0.36490000  0.33800000  1.0 -0.7713623455
O  O76  1  0.73040000  0.35630000  0.28980000  1.0 -0.9304528895
O  O77  1  0.98550000  0.49870000  0.31810000  1.0 -0.9304528895
O  O78  1  0.79570000  0.46280000  0.32970000  1.0 -1.1172660104
O  O79  1  0.67060000  0.47390000  0.25010000  1.0 -0.9201305236
O  O80  1  0.78410000  0.54230000  0.40760000  1.0 -1.1338995891
O  O81  1  0.97260000  0.57760000  0.39240000  1.0 -0.9128001443
O  O82  1  0.70700000  0.59750000  0.24020000  1.0 -0.9201305236
O  O83  1  0.82380000  0.69300000  0.26320000  1.0 -0.9419610327
O  O84  1  0.64510000  0.64660000  0.41570000  1.0 -0.9932939521
O  O85  1  0.83370000  0.47620000  0.48250000  1.0 -0.9304528895
O  O86  1  0.89830000  0.39770000  0.27420000  1.0 -0.8890541456
O  O87  1  0.69860000  0.57130000  0.48730000  1.0 -0.9615643731
O  O88  1  0.69340000  0.69550000  0.33020000  1.0 -0.9720824025
O  O89  1  0.55170000  0.63230000  0.28860000  1.0 -0.9480423591
O  O90  1  0.50370000  0.58160000  0.37560000  1.0 -0.9480423591
O  O91  1  0.34270000  0.05280000  0.66450000  1.0 -1.1636653057
O  O92  1  0.06080000  0.95080000  0.59740000  1.0 -0.8971529788
O  O93  1  0.18510000  0.18850000  0.60050000  1.0 -0.9419610327
O  O94  1  0.21430000  0.88670000  0.80460000  1.0 -0.7713623455
O  O95  1  0.26870000  0.90340000  0.57950000  1.0 -0.9419610327
O  O96  1  0.38780000  0.91450000  0.64820000  1.0 -0.9304528895
O  O97  1  0.14680000  0.84720000  0.64030000  1.0 -0.8971529788
O  O98  1  0.40050000  0.99290000  0.57500000  1.0 -0.9419610327
O  O99  1  0.16200000  0.01020000  0.76430000  1.0 -0.9201305236
O  O100  1  0.16610000  0.09290000  0.67970000  1.0 -1.1338995891
O  O101  1  0.12580000  0.10670000  0.52810000  1.0 -0.9201305236
O  O102  1  0.03690000  0.10290000  0.74100000  1.0 -0.9304528895
O  O103  1  0.48880000  0.00050000  0.70130000  1.0 -0.9304528895
O  O104  1  0.04970000  0.18450000  0.66480000  1.0 -0.9419610327
O  O105  1  0.96090000  0.86490000  0.66200000  1.0 -0.7713623455
O  O106  1  0.26960000  0.85630000  0.71020000  1.0 -0.9304528895
O  O107  1  0.01450000  0.99870000  0.68190000  1.0 -0.9304528895
O  O108  1  0.20430000  0.96280000  0.67030000  1.0 -1.1172660104
O  O109  1  0.32940000  0.97390000  0.74990000  1.0 -0.9201305236
O  O110  1  0.21590000  0.04230000  0.59240000  1.0 -1.1338995891
O  O111  1  0.02740000  0.07760000  0.60760000  1.0 -0.9128001443
O  O112  1  0.29300000  0.09750000  0.75980000  1.0 -0.9201305236
O  O113  1  0.17620000  0.19300000  0.73680000  1.0 -0.9419610327
O  O114  1  0.35490000  0.14660000  0.58430000  1.0 -0.9932939521
O  O115  1  0.16630000  0.97620000  0.51750000  1.0 -0.9419610327
O  O116  1  0.10170000  0.89770000  0.72580000  1.0 -0.8890541456
O  O117  1  0.30140000  0.07130000  0.51270000  1.0 -0.9615643731
O  O118  1  0.30660000  0.19550000  0.66980000  1.0 -0.9720824025
O  O119  1  0.44830000  0.13230000  0.71140000  1.0 -0.9480423591
O  O120  1  0.49630000  0.08160000  0.62440000  1.0 -0.9480423591
