# DDEC6 charges by PACMAN v1.1 (https://github.com/mtap-research/PACMAN-charge/)
data_JEMLUL_ASR_pacman
_symmetry_space_group_name_H-M   'P 1'
_cell_length_a   31.37810000
_cell_length_b   31.37810000
_cell_length_c   31.37810000
_cell_angle_alpha   109.47100000
_cell_angle_beta   109.47100000
_cell_angle_gamma   109.47100000
_symmetry_Int_Tables_number   1
_chemical_formula_structural   ZnH17C28(NO2)4
_chemical_formula_sum   'Zn24 H408 C672 N96 O192'
_cell_volume   23782.72340798
_cell_formula_units_Z   24
loop_
 _symmetry_equiv_pos_site_id
 _symmetry_equiv_pos_as_xyz
  1  'x, y, z'
loop_
 _atom_site_type_symbol
 _atom_site_label
 _atom_site_symmetry_multiplicity
 _atom_site_fract_x
 _atom_site_fract_y
 _atom_site_fract_z
 _atom_site_occupancy
 _atom_site_charge
Zn  Zn1  1  0.69496000  0.84748000  0.84748000  1.0 0.9640841356
Zn  Zn2  1  0.57916000  0.78958000  0.78958000  1.0 0.7509384126
Zn  Zn3  1  0.00000000  0.15252000  0.84748000  1.0 0.9640841356
Zn  Zn4  1  0.00000000  0.21042000  0.78958000  1.0 0.7509384126
Zn  Zn5  1  0.30504000  0.15252000  0.15252000  1.0 0.9640841356
Zn  Zn6  1  0.42084000  0.21042000  0.21042000  1.0 0.7509384126
Zn  Zn7  1  0.00000000  0.84748000  0.15252000  1.0 0.9640841356
Zn  Zn8  1  0.00000000  0.78958000  0.21042000  1.0 0.7509384126
Zn  Zn9  1  0.84748000  0.00000000  0.15252000  1.0 0.9640841356
Zn  Zn10  1  0.78958000  0.00000000  0.21042000  1.0 0.7509384126
Zn  Zn11  1  0.84748000  0.69496000  0.84748000  1.0 0.9640841356
Zn  Zn12  1  0.78958000  0.57916000  0.78958000  1.0 0.7509384126
Zn  Zn13  1  0.15252000  0.00000000  0.84748000  1.0 0.9640841356
Zn  Zn14  1  0.21042000  0.00000000  0.78958000  1.0 0.7509384126
Zn  Zn15  1  0.15252000  0.30504000  0.15252000  1.0 0.9640841356
Zn  Zn16  1  0.21042000  0.42084000  0.21042000  1.0 0.7509384126
Zn  Zn17  1  0.84748000  0.15252000  0.00000000  1.0 0.9640841356
Zn  Zn18  1  0.78958000  0.21042000  0.00000000  1.0 0.7509384126
Zn  Zn19  1  0.15252000  0.15252000  0.30504000  1.0 0.9640841356
Zn  Zn20  1  0.21042000  0.21042000  0.42084000  1.0 0.7509384126
Zn  Zn21  1  0.15252000  0.84748000  0.00000000  1.0 0.9640841356
Zn  Zn22  1  0.21042000  0.78958000  0.00000000  1.0 0.7509384126
Zn  Zn23  1  0.84748000  0.84748000  0.69496000  1.0 0.9640841356
Zn  Zn24  1  0.78958000  0.78958000  0.57916000  1.0 0.7509384126
H  H1  1  0.55660000  0.63530000  0.74890000  1.0 0.1803562578
H  H2  1  0.39990000  0.33640000  0.55290000  1.0 0.1675406588
H  H3  1  0.48540000  0.40700000  0.59760000  1.0 0.0989984504
H  H4  1  0.51730000  0.54400000  0.69730000  1.0 0.0712291696
H  H5  1  0.46530000  0.47520000  0.71910000  1.0 0.0712291696
H  H6  1  0.37850000  0.40530000  0.67300000  1.0 0.0783373212
H  H7  1  0.31220000  0.30160000  0.50600000  1.0 0.0989984504
H  H8  1  0.11360000  0.36470000  0.92130000  1.0 0.1803562578
H  H9  1  0.21650000  0.66360000  0.06350000  1.0 0.1675406588
H  H10  1  0.19060000  0.59300000  0.07840000  1.0 0.0989984504
H  H11  1  0.15330000  0.45600000  0.97330000  1.0 0.0712291696
H  H12  1  0.24390000  0.52480000  0.99010000  1.0 0.0712291696
H  H13  1  0.26770000  0.59470000  0.97320000  1.0 0.0783373212
H  H14  1  0.20440000  0.69840000  0.01060000  1.0 0.0989984504
H  H15  1  0.44340000  0.19230000  0.07870000  1.0 0.1803562578
H  H16  1  0.60010000  0.15300000  0.93650000  1.0 0.1675406588
H  H17  1  0.51460000  0.11220000  0.92160000  1.0 0.0989984504
H  H18  1  0.48270000  0.18000000  0.02670000  1.0 0.0712291696
H  H19  1  0.53470000  0.25380000  0.00990000  1.0 0.0712291696
H  H20  1  0.62150000  0.29450000  0.02680000  1.0 0.0783373212
H  H21  1  0.68780000  0.19380000  0.98940000  1.0 0.0989984504
H  H22  1  0.88640000  0.80770000  0.25110000  1.0 0.1803562578
H  H23  1  0.78350000  0.84700000  0.44710000  1.0 0.1675406588
H  H24  1  0.80940000  0.88780000  0.40240000  1.0 0.0989984504
H  H25  1  0.84670000  0.82000000  0.30270000  1.0 0.0712291696
H  H26  1  0.75610000  0.74620000  0.28090000  1.0 0.0712291696
H  H27  1  0.73230000  0.70550000  0.32700000  1.0 0.0783373212
H  H28  1  0.79560000  0.80620000  0.49400000  1.0 0.0989984504
H  H29  1  0.92130000  0.11360000  0.36470000  1.0 0.1803562578
H  H30  1  0.06350000  0.21650000  0.66360000  1.0 0.1675406588
H  H31  1  0.07840000  0.19060000  0.59300000  1.0 0.0989984504
H  H32  1  0.97330000  0.15330000  0.45600000  1.0 0.0712291696
H  H33  1  0.99010000  0.24390000  0.52480000  1.0 0.0712291696
H  H34  1  0.97320000  0.26770000  0.59470000  1.0 0.0783373212
H  H35  1  0.01060000  0.20440000  0.69840000  1.0 0.0989984504
H  H36  1  0.74890000  0.55660000  0.63530000  1.0 0.1803562578
H  H37  1  0.55290000  0.39990000  0.33640000  1.0 0.1675406588
H  H38  1  0.59760000  0.48540000  0.40700000  1.0 0.0989984504
H  H39  1  0.69730000  0.51730000  0.54400000  1.0 0.0712291696
H  H40  1  0.71910000  0.46530000  0.47520000  1.0 0.0712291696
H  H41  1  0.67300000  0.37850000  0.40530000  1.0 0.0783373212
H  H42  1  0.50600000  0.31220000  0.30160000  1.0 0.0989984504
H  H43  1  0.25110000  0.88640000  0.80770000  1.0 0.1803562578
H  H44  1  0.44710000  0.78350000  0.84700000  1.0 0.1675406588
H  H45  1  0.40240000  0.80940000  0.88780000  1.0 0.0989984504
H  H46  1  0.30270000  0.84670000  0.82000000  1.0 0.0712291696
H  H47  1  0.28090000  0.75610000  0.74620000  1.0 0.0712291696
H  H48  1  0.32700000  0.73230000  0.70550000  1.0 0.0783373212
H  H49  1  0.49400000  0.79560000  0.80620000  1.0 0.0989984504
H  H50  1  0.07870000  0.44340000  0.19230000  1.0 0.1803562578
H  H51  1  0.93650000  0.60010000  0.15300000  1.0 0.1675406588
H  H52  1  0.92160000  0.51460000  0.11220000  1.0 0.0989984504
H  H53  1  0.02670000  0.48270000  0.18000000  1.0 0.0712291696
H  H54  1  0.00990000  0.53470000  0.25380000  1.0 0.0712291696
H  H55  1  0.02680000  0.62150000  0.29450000  1.0 0.0783373212
H  H56  1  0.98940000  0.68780000  0.19380000  1.0 0.0989984504
H  H57  1  0.80770000  0.25110000  0.88640000  1.0 0.1803562578
H  H58  1  0.84700000  0.44710000  0.78350000  1.0 0.1675406588
H  H59  1  0.88780000  0.40240000  0.80940000  1.0 0.0989984504
H  H60  1  0.82000000  0.30270000  0.84670000  1.0 0.0712291696
H  H61  1  0.74620000  0.28090000  0.75610000  1.0 0.0712291696
H  H62  1  0.70550000  0.32700000  0.73230000  1.0 0.0783373212
H  H63  1  0.80620000  0.49400000  0.79560000  1.0 0.0989984504
H  H64  1  0.19230000  0.07870000  0.44340000  1.0 0.1803562578
H  H65  1  0.15300000  0.93650000  0.60010000  1.0 0.1675406588
H  H66  1  0.11220000  0.92160000  0.51460000  1.0 0.0989984504
H  H67  1  0.18000000  0.02670000  0.48270000  1.0 0.0712291696
H  H68  1  0.25380000  0.00990000  0.53470000  1.0 0.0712291696
H  H69  1  0.29450000  0.02680000  0.62150000  1.0 0.0783373212
H  H70  1  0.19380000  0.98940000  0.68780000  1.0 0.0989984504
H  H71  1  0.36470000  0.92130000  0.11360000  1.0 0.1803562578
H  H72  1  0.66360000  0.06350000  0.21650000  1.0 0.1675406588
H  H73  1  0.59300000  0.07840000  0.19060000  1.0 0.0989984504
H  H74  1  0.45600000  0.97330000  0.15330000  1.0 0.0712291696
H  H75  1  0.52480000  0.99010000  0.24390000  1.0 0.0712291696
H  H76  1  0.59470000  0.97320000  0.26770000  1.0 0.0783373212
H  H77  1  0.69840000  0.01060000  0.20440000  1.0 0.0989984504
H  H78  1  0.63530000  0.74890000  0.55660000  1.0 0.1803562578
H  H79  1  0.33640000  0.55290000  0.39990000  1.0 0.1675406588
H  H80  1  0.40700000  0.59760000  0.48540000  1.0 0.0989984504
H  H81  1  0.54400000  0.69730000  0.51730000  1.0 0.0712291696
H  H82  1  0.47520000  0.71910000  0.46530000  1.0 0.0712291696
H  H83  1  0.40530000  0.67300000  0.37850000  1.0 0.0783373212
H  H84  1  0.30160000  0.50600000  0.31220000  1.0 0.0989984504
H  H85  1  0.25110000  0.36470000  0.44340000  1.0 0.1803562578
H  H86  1  0.44710000  0.66360000  0.60010000  1.0 0.1675406588
H  H87  1  0.40240000  0.59300000  0.51460000  1.0 0.0989984504
H  H88  1  0.30270000  0.45600000  0.48270000  1.0 0.0712291696
H  H89  1  0.28090000  0.52480000  0.53470000  1.0 0.0712291696
H  H90  1  0.32700000  0.59470000  0.62150000  1.0 0.0783373212
H  H91  1  0.49400000  0.69840000  0.68780000  1.0 0.0989984504
H  H92  1  0.07870000  0.63530000  0.88640000  1.0 0.1803562578
H  H93  1  0.93650000  0.33640000  0.78350000  1.0 0.1675406588
H  H94  1  0.92160000  0.40700000  0.80940000  1.0 0.0989984504
H  H95  1  0.02670000  0.54400000  0.84670000  1.0 0.0712291696
H  H96  1  0.00990000  0.47520000  0.75610000  1.0 0.0712291696
H  H97  1  0.02680000  0.40530000  0.73230000  1.0 0.0783373212
H  H98  1  0.98940000  0.30160000  0.79560000  1.0 0.0989984504
H  H99  1  0.92130000  0.80770000  0.55660000  1.0 0.1803562578
H  H100  1  0.06350000  0.84700000  0.39990000  1.0 0.1675406588
H  H101  1  0.07840000  0.88780000  0.48540000  1.0 0.0989984504
H  H102  1  0.97330000  0.82000000  0.51730000  1.0 0.0712291696
H  H103  1  0.99010000  0.74620000  0.46530000  1.0 0.0712291696
H  H104  1  0.97320000  0.70550000  0.37850000  1.0 0.0783373212
H  H105  1  0.01060000  0.80620000  0.31220000  1.0 0.0989984504
H  H106  1  0.74890000  0.19230000  0.11360000  1.0 0.1803562578
H  H107  1  0.55290000  0.15300000  0.21650000  1.0 0.1675406588
H  H108  1  0.59760000  0.11220000  0.19060000  1.0 0.0989984504
H  H109  1  0.69730000  0.18000000  0.15330000  1.0 0.0712291696
H  H110  1  0.71910000  0.25380000  0.24390000  1.0 0.0712291696
H  H111  1  0.67300000  0.29450000  0.26770000  1.0 0.0783373212
H  H112  1  0.50600000  0.19380000  0.20440000  1.0 0.0989984504
H  H113  1  0.63530000  0.88640000  0.07870000  1.0 0.1803562578
H  H114  1  0.33640000  0.78350000  0.93650000  1.0 0.1675406588
H  H115  1  0.40700000  0.80940000  0.92160000  1.0 0.0989984504
H  H116  1  0.54400000  0.84670000  0.02670000  1.0 0.0712291696
H  H117  1  0.47520000  0.75610000  0.00990000  1.0 0.0712291696
H  H118  1  0.40530000  0.73230000  0.02680000  1.0 0.0783373212
H  H119  1  0.30160000  0.79560000  0.98940000  1.0 0.0989984504
H  H120  1  0.36470000  0.44340000  0.25110000  1.0 0.1803562578
H  H121  1  0.66360000  0.60010000  0.44710000  1.0 0.1675406588
H  H122  1  0.59300000  0.51460000  0.40240000  1.0 0.0989984504
H  H123  1  0.45600000  0.48270000  0.30270000  1.0 0.0712291696
H  H124  1  0.52480000  0.53470000  0.28090000  1.0 0.0712291696
H  H125  1  0.59470000  0.62150000  0.32700000  1.0 0.0783373212
H  H126  1  0.69840000  0.68780000  0.49400000  1.0 0.0989984504
H  H127  1  0.19230000  0.11360000  0.74890000  1.0 0.1803562578
H  H128  1  0.15300000  0.21650000  0.55290000  1.0 0.1675406588
H  H129  1  0.11220000  0.19060000  0.59760000  1.0 0.0989984504
H  H130  1  0.18000000  0.15330000  0.69730000  1.0 0.0712291696
H  H131  1  0.25380000  0.24390000  0.71910000  1.0 0.0712291696
H  H132  1  0.29450000  0.26770000  0.67300000  1.0 0.0783373212
H  H133  1  0.19380000  0.20440000  0.50600000  1.0 0.0989984504
H  H134  1  0.80770000  0.55660000  0.92130000  1.0 0.1803562578
H  H135  1  0.84700000  0.39990000  0.06350000  1.0 0.1675406588
H  H136  1  0.88780000  0.48540000  0.07840000  1.0 0.0989984504
H  H137  1  0.82000000  0.51730000  0.97330000  1.0 0.0712291696
H  H138  1  0.74620000  0.46530000  0.99010000  1.0 0.0712291696
H  H139  1  0.70550000  0.37850000  0.97320000  1.0 0.0783373212
H  H140  1  0.80620000  0.31220000  0.01060000  1.0 0.0989984504
H  H141  1  0.11360000  0.74890000  0.19230000  1.0 0.1803562578
H  H142  1  0.21650000  0.55290000  0.15300000  1.0 0.1675406588
H  H143  1  0.19060000  0.59760000  0.11220000  1.0 0.0989984504
H  H144  1  0.15330000  0.69730000  0.18000000  1.0 0.0712291696
H  H145  1  0.24390000  0.71910000  0.25380000  1.0 0.0712291696
H  H146  1  0.26770000  0.67300000  0.29450000  1.0 0.0783373212
H  H147  1  0.20440000  0.50600000  0.19380000  1.0 0.0989984504
H  H148  1  0.55660000  0.92130000  0.80770000  1.0 0.1803562578
H  H149  1  0.39990000  0.06350000  0.84700000  1.0 0.1675406588
H  H150  1  0.48540000  0.07840000  0.88780000  1.0 0.0989984504
H  H151  1  0.51730000  0.97330000  0.82000000  1.0 0.0712291696
H  H152  1  0.46530000  0.99010000  0.74620000  1.0 0.0712291696
H  H153  1  0.37850000  0.97320000  0.70550000  1.0 0.0783373212
H  H154  1  0.31220000  0.01060000  0.80620000  1.0 0.0989984504
H  H155  1  0.88640000  0.07870000  0.63530000  1.0 0.1803562578
H  H156  1  0.78350000  0.93650000  0.33640000  1.0 0.1675406588
H  H157  1  0.80940000  0.92160000  0.40700000  1.0 0.0989984504
H  H158  1  0.84670000  0.02670000  0.54400000  1.0 0.0712291696
H  H159  1  0.75610000  0.00990000  0.47520000  1.0 0.0712291696
H  H160  1  0.73230000  0.02680000  0.40530000  1.0 0.0783373212
H  H161  1  0.79560000  0.98940000  0.30160000  1.0 0.0989984504
H  H162  1  0.44340000  0.25110000  0.36470000  1.0 0.1803562578
H  H163  1  0.60010000  0.44710000  0.66360000  1.0 0.1675406588
H  H164  1  0.51460000  0.40240000  0.59300000  1.0 0.0989984504
H  H165  1  0.48270000  0.30270000  0.45600000  1.0 0.0712291696
H  H166  1  0.53470000  0.28090000  0.52480000  1.0 0.0712291696
H  H167  1  0.62150000  0.32700000  0.59470000  1.0 0.0783373212
H  H168  1  0.68780000  0.49400000  0.69840000  1.0 0.0989984504
H  H169  1  0.44340000  0.36470000  0.25110000  1.0 0.1803562578
H  H170  1  0.60010000  0.66360000  0.44710000  1.0 0.1675406588
H  H171  1  0.51460000  0.59300000  0.40240000  1.0 0.0989984504
H  H172  1  0.48270000  0.45600000  0.30270000  1.0 0.0712291696
H  H173  1  0.53470000  0.52480000  0.28090000  1.0 0.0712291696
H  H174  1  0.62150000  0.59470000  0.32700000  1.0 0.0783373212
H  H175  1  0.68780000  0.69840000  0.49400000  1.0 0.0989984504
H  H176  1  0.88640000  0.63530000  0.07870000  1.0 0.1803562578
H  H177  1  0.78350000  0.33640000  0.93650000  1.0 0.1675406588
H  H178  1  0.80940000  0.40700000  0.92160000  1.0 0.0989984504
H  H179  1  0.84670000  0.54400000  0.02670000  1.0 0.0712291696
H  H180  1  0.75610000  0.47520000  0.00990000  1.0 0.0712291696
H  H181  1  0.73230000  0.40530000  0.02680000  1.0 0.0783373212
H  H182  1  0.79560000  0.30160000  0.98940000  1.0 0.0989984504
H  H183  1  0.55660000  0.80770000  0.92130000  1.0 0.1803562578
H  H184  1  0.39990000  0.84700000  0.06350000  1.0 0.1675406588
H  H185  1  0.48540000  0.88780000  0.07840000  1.0 0.0989984504
H  H186  1  0.51730000  0.82000000  0.97330000  1.0 0.0712291696
H  H187  1  0.46530000  0.74620000  0.99010000  1.0 0.0712291696
H  H188  1  0.37850000  0.70550000  0.97320000  1.0 0.0783373212
H  H189  1  0.31220000  0.80620000  0.01060000  1.0 0.0989984504
H  H190  1  0.11360000  0.19230000  0.74890000  1.0 0.1803562578
H  H191  1  0.21650000  0.15300000  0.55290000  1.0 0.1675406588
H  H192  1  0.19060000  0.11220000  0.59760000  1.0 0.0989984504
H  H193  1  0.15330000  0.18000000  0.69730000  1.0 0.0712291696
H  H194  1  0.24390000  0.25380000  0.71910000  1.0 0.0712291696
H  H195  1  0.26770000  0.29450000  0.67300000  1.0 0.0783373212
H  H196  1  0.20440000  0.19380000  0.50600000  1.0 0.0989984504
H  H197  1  0.07870000  0.88640000  0.63530000  1.0 0.1803562578
H  H198  1  0.93650000  0.78350000  0.33640000  1.0 0.1675406588
H  H199  1  0.92160000  0.80940000  0.40700000  1.0 0.0989984504
H  H200  1  0.02670000  0.84670000  0.54400000  1.0 0.0712291696
H  H201  1  0.00990000  0.75610000  0.47520000  1.0 0.0712291696
H  H202  1  0.02680000  0.73230000  0.40530000  1.0 0.0783373212
H  H203  1  0.98940000  0.79560000  0.30160000  1.0 0.0989984504
H  H204  1  0.25110000  0.44340000  0.36470000  1.0 0.1803562578
H  H205  1  0.44710000  0.60010000  0.66360000  1.0 0.1675406588
H  H206  1  0.40240000  0.51460000  0.59300000  1.0 0.0989984504
H  H207  1  0.30270000  0.48270000  0.45600000  1.0 0.0712291696
H  H208  1  0.28090000  0.53470000  0.52480000  1.0 0.0712291696
H  H209  1  0.32700000  0.62150000  0.59470000  1.0 0.0783373212
H  H210  1  0.49400000  0.68780000  0.69840000  1.0 0.0989984504
H  H211  1  0.74890000  0.11360000  0.19230000  1.0 0.1803562578
H  H212  1  0.55290000  0.21650000  0.15300000  1.0 0.1675406588
H  H213  1  0.59760000  0.19060000  0.11220000  1.0 0.0989984504
H  H214  1  0.69730000  0.15330000  0.18000000  1.0 0.0712291696
H  H215  1  0.71910000  0.24390000  0.25380000  1.0 0.0712291696
H  H216  1  0.67300000  0.26770000  0.29450000  1.0 0.0783373212
H  H217  1  0.50600000  0.20440000  0.19380000  1.0 0.0989984504
H  H218  1  0.92130000  0.55660000  0.80770000  1.0 0.1803562578
H  H219  1  0.06350000  0.39990000  0.84700000  1.0 0.1675406588
H  H220  1  0.07840000  0.48540000  0.88780000  1.0 0.0989984504
H  H221  1  0.97330000  0.51730000  0.82000000  1.0 0.0712291696
H  H222  1  0.99010000  0.46530000  0.74620000  1.0 0.0712291696
H  H223  1  0.97320000  0.37850000  0.70550000  1.0 0.0783373212
H  H224  1  0.01060000  0.31220000  0.80620000  1.0 0.0989984504
H  H225  1  0.19230000  0.74890000  0.11360000  1.0 0.1803562578
H  H226  1  0.15300000  0.55290000  0.21650000  1.0 0.1675406588
H  H227  1  0.11220000  0.59760000  0.19060000  1.0 0.0989984504
H  H228  1  0.18000000  0.69730000  0.15330000  1.0 0.0712291696
H  H229  1  0.25380000  0.71910000  0.24390000  1.0 0.0712291696
H  H230  1  0.29450000  0.67300000  0.26770000  1.0 0.0783373212
H  H231  1  0.19380000  0.50600000  0.20440000  1.0 0.0989984504
H  H232  1  0.80770000  0.92130000  0.55660000  1.0 0.1803562578
H  H233  1  0.84700000  0.06350000  0.39990000  1.0 0.1675406588
H  H234  1  0.88780000  0.07840000  0.48540000  1.0 0.0989984504
H  H235  1  0.82000000  0.97330000  0.51730000  1.0 0.0712291696
H  H236  1  0.74620000  0.99010000  0.46530000  1.0 0.0712291696
H  H237  1  0.70550000  0.97320000  0.37850000  1.0 0.0783373212
H  H238  1  0.80620000  0.01060000  0.31220000  1.0 0.0989984504
H  H239  1  0.63530000  0.07870000  0.88640000  1.0 0.1803562578
H  H240  1  0.33640000  0.93650000  0.78350000  1.0 0.1675406588
H  H241  1  0.40700000  0.92160000  0.80940000  1.0 0.0989984504
H  H242  1  0.54400000  0.02670000  0.84670000  1.0 0.0712291696
H  H243  1  0.47520000  0.00990000  0.75610000  1.0 0.0712291696
H  H244  1  0.40530000  0.02680000  0.73230000  1.0 0.0783373212
H  H245  1  0.30160000  0.98940000  0.79560000  1.0 0.0989984504
H  H246  1  0.36470000  0.25110000  0.44340000  1.0 0.1803562578
H  H247  1  0.66360000  0.44710000  0.60010000  1.0 0.1675406588
H  H248  1  0.59300000  0.40240000  0.51460000  1.0 0.0989984504
H  H249  1  0.45600000  0.30270000  0.48270000  1.0 0.0712291696
H  H250  1  0.52480000  0.28090000  0.53470000  1.0 0.0712291696
H  H251  1  0.59470000  0.32700000  0.62150000  1.0 0.0783373212
H  H252  1  0.69840000  0.49400000  0.68780000  1.0 0.0989984504
H  H253  1  0.74890000  0.63530000  0.55660000  1.0 0.1803562578
H  H254  1  0.55290000  0.33640000  0.39990000  1.0 0.1675406588
H  H255  1  0.59760000  0.40700000  0.48540000  1.0 0.0989984504
H  H256  1  0.69730000  0.54400000  0.51730000  1.0 0.0712291696
H  H257  1  0.71910000  0.47520000  0.46530000  1.0 0.0712291696
H  H258  1  0.67300000  0.40530000  0.37850000  1.0 0.0783373212
H  H259  1  0.50600000  0.30160000  0.31220000  1.0 0.0989984504
H  H260  1  0.92130000  0.36470000  0.11360000  1.0 0.1803562578
H  H261  1  0.06350000  0.66360000  0.21650000  1.0 0.1675406588
H  H262  1  0.07840000  0.59300000  0.19060000  1.0 0.0989984504
H  H263  1  0.97330000  0.45600000  0.15330000  1.0 0.0712291696
H  H264  1  0.99010000  0.52480000  0.24390000  1.0 0.0712291696
H  H265  1  0.97320000  0.59470000  0.26770000  1.0 0.0783373212
H  H266  1  0.01060000  0.69840000  0.20440000  1.0 0.0989984504
H  H267  1  0.07870000  0.19230000  0.44340000  1.0 0.1803562578
H  H268  1  0.93650000  0.15300000  0.60010000  1.0 0.1675406588
H  H269  1  0.92160000  0.11220000  0.51460000  1.0 0.0989984504
H  H270  1  0.02670000  0.18000000  0.48270000  1.0 0.0712291696
H  H271  1  0.00990000  0.25380000  0.53470000  1.0 0.0712291696
H  H272  1  0.02680000  0.29450000  0.62150000  1.0 0.0783373212
H  H273  1  0.98940000  0.19380000  0.68780000  1.0 0.0989984504
H  H274  1  0.25110000  0.80770000  0.88640000  1.0 0.1803562578
H  H275  1  0.44710000  0.84700000  0.78350000  1.0 0.1675406588
H  H276  1  0.40240000  0.88780000  0.80940000  1.0 0.0989984504
H  H277  1  0.30270000  0.82000000  0.84670000  1.0 0.0712291696
H  H278  1  0.28090000  0.74620000  0.75610000  1.0 0.0712291696
H  H279  1  0.32700000  0.70550000  0.73230000  1.0 0.0783373212
H  H280  1  0.49400000  0.80620000  0.79560000  1.0 0.0989984504
H  H281  1  0.36470000  0.11360000  0.92130000  1.0 0.1803562578
H  H282  1  0.66360000  0.21650000  0.06350000  1.0 0.1675406588
H  H283  1  0.59300000  0.19060000  0.07840000  1.0 0.0989984504
H  H284  1  0.45600000  0.15330000  0.97330000  1.0 0.0712291696
H  H285  1  0.52480000  0.24390000  0.99010000  1.0 0.0712291696
H  H286  1  0.59470000  0.26770000  0.97320000  1.0 0.0783373212
H  H287  1  0.69840000  0.20440000  0.01060000  1.0 0.0989984504
H  H288  1  0.63530000  0.55660000  0.74890000  1.0 0.1803562578
H  H289  1  0.33640000  0.39990000  0.55290000  1.0 0.1675406588
H  H290  1  0.40700000  0.48540000  0.59760000  1.0 0.0989984504
H  H291  1  0.54400000  0.51730000  0.69730000  1.0 0.0712291696
H  H292  1  0.47520000  0.46530000  0.71910000  1.0 0.0712291696
H  H293  1  0.40530000  0.37850000  0.67300000  1.0 0.0783373212
H  H294  1  0.30160000  0.31220000  0.50600000  1.0 0.0989984504
H  H295  1  0.80770000  0.88640000  0.25110000  1.0 0.1803562578
H  H296  1  0.84700000  0.78350000  0.44710000  1.0 0.1675406588
H  H297  1  0.88780000  0.80940000  0.40240000  1.0 0.0989984504
H  H298  1  0.82000000  0.84670000  0.30270000  1.0 0.0712291696
H  H299  1  0.74620000  0.75610000  0.28090000  1.0 0.0712291696
H  H300  1  0.70550000  0.73230000  0.32700000  1.0 0.0783373212
H  H301  1  0.80620000  0.79560000  0.49400000  1.0 0.0989984504
H  H302  1  0.19230000  0.44340000  0.07870000  1.0 0.1803562578
H  H303  1  0.15300000  0.60010000  0.93650000  1.0 0.1675406588
H  H304  1  0.11220000  0.51460000  0.92160000  1.0 0.0989984504
H  H305  1  0.18000000  0.48270000  0.02670000  1.0 0.0712291696
H  H306  1  0.25380000  0.53470000  0.00990000  1.0 0.0712291696
H  H307  1  0.29450000  0.62150000  0.02680000  1.0 0.0783373212
H  H308  1  0.19380000  0.68780000  0.98940000  1.0 0.0989984504
H  H309  1  0.88640000  0.25110000  0.80770000  1.0 0.1803562578
H  H310  1  0.78350000  0.44710000  0.84700000  1.0 0.1675406588
H  H311  1  0.80940000  0.40240000  0.88780000  1.0 0.0989984504
H  H312  1  0.84670000  0.30270000  0.82000000  1.0 0.0712291696
H  H313  1  0.75610000  0.28090000  0.74620000  1.0 0.0712291696
H  H314  1  0.73230000  0.32700000  0.70550000  1.0 0.0783373212
H  H315  1  0.79560000  0.49400000  0.80620000  1.0 0.0989984504
H  H316  1  0.44340000  0.07870000  0.19230000  1.0 0.1803562578
H  H317  1  0.60010000  0.93650000  0.15300000  1.0 0.1675406588
H  H318  1  0.51460000  0.92160000  0.11220000  1.0 0.0989984504
H  H319  1  0.48270000  0.02670000  0.18000000  1.0 0.0712291696
H  H320  1  0.53470000  0.00990000  0.25380000  1.0 0.0712291696
H  H321  1  0.62150000  0.02680000  0.29450000  1.0 0.0783373212
H  H322  1  0.68780000  0.98940000  0.19380000  1.0 0.0989984504
H  H323  1  0.11360000  0.92130000  0.36470000  1.0 0.1803562578
H  H324  1  0.21650000  0.06350000  0.66360000  1.0 0.1675406588
H  H325  1  0.19060000  0.07840000  0.59300000  1.0 0.0989984504
H  H326  1  0.15330000  0.97330000  0.45600000  1.0 0.0712291696
H  H327  1  0.24390000  0.99010000  0.52480000  1.0 0.0712291696
H  H328  1  0.26770000  0.97320000  0.59470000  1.0 0.0783373212
H  H329  1  0.20440000  0.01060000  0.69840000  1.0 0.0989984504
H  H330  1  0.55660000  0.74890000  0.63530000  1.0 0.1803562578
H  H331  1  0.39990000  0.55290000  0.33640000  1.0 0.1675406588
H  H332  1  0.48540000  0.59760000  0.40700000  1.0 0.0989984504
H  H333  1  0.51730000  0.69730000  0.54400000  1.0 0.0712291696
H  H334  1  0.46530000  0.71910000  0.47520000  1.0 0.0712291696
H  H335  1  0.37850000  0.67300000  0.40530000  1.0 0.0783373212
H  H336  1  0.31220000  0.50600000  0.30160000  1.0 0.0989984504
H  H337  1  0.32610000  0.31730000  0.64340000  1.0 0.0989984504
H  H338  1  0.32610000  0.68270000  0.00880000  1.0 0.0989984504
H  H339  1  0.67390000  0.31730000  0.99120000  1.0 0.0989984504
H  H340  1  0.67390000  0.68270000  0.35660000  1.0 0.0989984504
H  H341  1  0.00880000  0.32610000  0.68270000  1.0 0.0989984504
H  H342  1  0.64340000  0.32610000  0.31730000  1.0 0.0989984504
H  H343  1  0.35660000  0.67390000  0.68270000  1.0 0.0989984504
H  H344  1  0.99120000  0.67390000  0.31730000  1.0 0.0989984504
H  H345  1  0.68270000  0.35660000  0.67390000  1.0 0.0989984504
H  H346  1  0.31730000  0.99120000  0.67390000  1.0 0.0989984504
H  H347  1  0.68270000  0.00880000  0.32610000  1.0 0.0989984504
H  H348  1  0.31730000  0.64340000  0.32610000  1.0 0.0989984504
H  H349  1  0.35660000  0.68270000  0.67390000  1.0 0.0989984504
H  H350  1  0.99120000  0.31730000  0.67390000  1.0 0.0989984504
H  H351  1  0.00880000  0.68270000  0.32610000  1.0 0.0989984504
H  H352  1  0.64340000  0.31730000  0.32610000  1.0 0.0989984504
H  H353  1  0.31730000  0.67390000  0.99120000  1.0 0.0989984504
H  H354  1  0.68270000  0.67390000  0.35660000  1.0 0.0989984504
H  H355  1  0.31730000  0.32610000  0.64340000  1.0 0.0989984504
H  H356  1  0.68270000  0.32610000  0.00880000  1.0 0.0989984504
H  H357  1  0.32610000  0.64340000  0.31730000  1.0 0.0989984504
H  H358  1  0.32610000  0.00880000  0.68270000  1.0 0.0989984504
H  H359  1  0.67390000  0.99120000  0.31730000  1.0 0.0989984504
H  H360  1  0.67390000  0.35660000  0.68270000  1.0 0.0989984504
H  H361  1  0.71480000  0.71480000  0.82040000  1.0 0.1423563854
H  H362  1  0.53110000  0.53110000  0.68420000  1.0 0.0567181778
H  H363  1  0.10560000  0.28520000  0.00000000  1.0 0.1423563854
H  H364  1  0.15310000  0.46890000  0.00000000  1.0 0.0567181778
H  H365  1  0.28520000  0.10560000  0.00000000  1.0 0.1423563854
H  H366  1  0.46890000  0.15310000  0.00000000  1.0 0.0567181778
H  H367  1  0.89440000  0.89440000  0.17960000  1.0 0.1423563854
H  H368  1  0.84690000  0.84690000  0.31580000  1.0 0.0567181778
H  H369  1  0.00000000  0.10560000  0.28520000  1.0 0.1423563854
H  H370  1  0.00000000  0.15310000  0.46890000  1.0 0.0567181778
H  H371  1  0.82040000  0.71480000  0.71480000  1.0 0.1423563854
H  H372  1  0.68420000  0.53110000  0.53110000  1.0 0.0567181778
H  H373  1  0.17960000  0.89440000  0.89440000  1.0 0.1423563854
H  H374  1  0.31580000  0.84690000  0.84690000  1.0 0.0567181778
H  H375  1  0.00000000  0.28520000  0.10560000  1.0 0.1423563854
H  H376  1  0.00000000  0.46890000  0.15310000  1.0 0.0567181778
H  H377  1  0.89440000  0.17960000  0.89440000  1.0 0.1423563854
H  H378  1  0.84690000  0.31580000  0.84690000  1.0 0.0567181778
H  H379  1  0.10560000  0.00000000  0.28520000  1.0 0.1423563854
H  H380  1  0.15310000  0.00000000  0.46890000  1.0 0.0567181778
H  H381  1  0.28520000  0.00000000  0.10560000  1.0 0.1423563854
H  H382  1  0.46890000  0.00000000  0.15310000  1.0 0.0567181778
H  H383  1  0.71480000  0.82040000  0.71480000  1.0 0.1423563854
H  H384  1  0.53110000  0.68420000  0.53110000  1.0 0.0567181778
H  H385  1  0.17960000  0.28520000  0.28520000  1.0 0.1423563854
H  H386  1  0.31580000  0.46890000  0.46890000  1.0 0.0567181778
H  H387  1  0.00000000  0.71480000  0.89440000  1.0 0.1423563854
H  H388  1  0.00000000  0.53110000  0.84690000  1.0 0.0567181778
H  H389  1  0.00000000  0.89440000  0.71480000  1.0 0.1423563854
H  H390  1  0.00000000  0.84690000  0.53110000  1.0 0.0567181778
H  H391  1  0.82040000  0.10560000  0.10560000  1.0 0.1423563854
H  H392  1  0.68420000  0.15310000  0.15310000  1.0 0.0567181778
H  H393  1  0.71480000  0.89440000  0.00000000  1.0 0.1423563854
H  H394  1  0.53110000  0.84690000  0.00000000  1.0 0.0567181778
H  H395  1  0.28520000  0.28520000  0.17960000  1.0 0.1423563854
H  H396  1  0.46890000  0.46890000  0.31580000  1.0 0.0567181778
H  H397  1  0.10560000  0.10560000  0.82040000  1.0 0.1423563854
H  H398  1  0.15310000  0.15310000  0.68420000  1.0 0.0567181778
H  H399  1  0.89440000  0.71480000  0.00000000  1.0 0.1423563854
H  H400  1  0.84690000  0.53110000  0.00000000  1.0 0.0567181778
H  H401  1  0.10560000  0.82040000  0.10560000  1.0 0.1423563854
H  H402  1  0.15310000  0.68420000  0.15310000  1.0 0.0567181778
H  H403  1  0.71480000  0.00000000  0.89440000  1.0 0.1423563854
H  H404  1  0.53110000  0.00000000  0.84690000  1.0 0.0567181778
H  H405  1  0.89440000  0.00000000  0.71480000  1.0 0.1423563854
H  H406  1  0.84690000  0.00000000  0.53110000  1.0 0.0567181778
H  H407  1  0.28520000  0.17960000  0.28520000  1.0 0.1423563854
H  H408  1  0.46890000  0.31580000  0.46890000  1.0 0.0567181778
C  C1  1  0.63608000  0.73325000  0.80091000  1.0 0.5989672513
C  C2  1  0.63601000  0.68283000  0.78806000  1.0 0.0216172045
C  C3  1  0.58912000  0.63550000  0.75936000  1.0 -0.2334461992
C  C4  1  0.53480000  0.49470000  0.68090000  1.0 0.091109265
C  C5  1  0.48062000  0.44882000  0.66040000  1.0 0.091109265
C  C6  1  0.39814000  0.40564000  0.65530000  1.0 -0.0920749626
C  C7  1  0.38089000  0.36331000  0.60800000  1.0 0.0393978418
C  C8  1  0.41346000  0.36375000  0.58689000  1.0 -0.1515426702
C  C9  1  0.46328000  0.40653000  0.61305000  1.0 -0.1271080356
C  C10  1  0.32765000  0.31755000  0.58010000  1.0 0.0502695841
C  C11  1  0.29871000  0.28941000  0.52550000  1.0 0.0502695841
C  C12  1  0.53840000  0.48680000  0.70700000  1.0 0.2147949131
C  C13  1  0.06766000  0.26675000  0.90283000  1.0 0.5989672513
C  C14  1  0.10523000  0.31717000  0.95318000  1.0 0.0216172045
C  C15  1  0.12386000  0.36450000  0.95362000  1.0 -0.2334461992
C  C16  1  0.18620000  0.50530000  0.04010000  1.0 0.091109265
C  C17  1  0.21158000  0.55118000  0.03180000  1.0 0.091109265
C  C18  1  0.24966000  0.59436000  0.99250000  1.0 -0.0920749626
C  C19  1  0.24469000  0.63669000  0.01758000  1.0 0.0393978418
C  C20  1  0.22314000  0.63625000  0.04971000  1.0 -0.1515426702
C  C21  1  0.20652000  0.59347000  0.05675000  1.0 -0.1271080356
C  C22  1  0.26255000  0.68245000  0.01010000  1.0 0.0502695841
C  C23  1  0.23609000  0.71059000  0.00930000  1.0 0.0502695841
C  C24  1  0.22020000  0.51320000  0.05160000  1.0 0.2147949131
C  C25  1  0.36392000  0.16483000  0.09717000  1.0 0.5989672513
C  C26  1  0.36399000  0.15205000  0.04682000  1.0 0.0216172045
C  C27  1  0.41088000  0.17024000  0.04638000  1.0 -0.2334461992
C  C28  1  0.46520000  0.14610000  0.95990000  1.0 0.091109265
C  C29  1  0.51938000  0.17978000  0.96820000  1.0 0.091109265
C  C30  1  0.60186000  0.25716000  0.00750000  1.0 -0.0920749626
C  C31  1  0.61911000  0.22711000  0.98242000  1.0 0.0393978418
C  C32  1  0.58654000  0.17343000  0.95029000  1.0 -0.1515426702
C  C33  1  0.53672000  0.14977000  0.94325000  1.0 -0.1271080356
C  C34  1  0.67235000  0.25245000  0.98990000  1.0 0.0502695841
C  C35  1  0.70129000  0.22679000  0.99070000  1.0 0.0502695841
C  C36  1  0.46160000  0.16860000  0.94840000  1.0 0.2147949131
C  C37  1  0.93234000  0.83517000  0.19909000  1.0 0.5989672513
C  C38  1  0.89477000  0.84795000  0.21194000  1.0 0.0216172045
C  C39  1  0.87614000  0.82976000  0.24064000  1.0 -0.2334461992
C  C40  1  0.81380000  0.85390000  0.31910000  1.0 0.091109265
C  C41  1  0.78842000  0.82022000  0.33960000  1.0 0.091109265
C  C42  1  0.75034000  0.74284000  0.34470000  1.0 -0.0920749626
C  C43  1  0.75531000  0.77289000  0.39200000  1.0 0.0393978418
C  C44  1  0.77686000  0.82657000  0.41311000  1.0 -0.1515426702
C  C45  1  0.79348000  0.85023000  0.38695000  1.0 -0.1271080356
C  C46  1  0.73745000  0.74755000  0.41990000  1.0 0.0502695841
C  C47  1  0.76391000  0.77321000  0.47450000  1.0 0.0502695841
C  C48  1  0.77980000  0.83140000  0.29300000  1.0 0.2155733676
C  C49  1  0.90283000  0.06766000  0.26675000  1.0 0.5989672513
C  C50  1  0.95318000  0.10523000  0.31717000  1.0 0.0216172045
C  C51  1  0.95362000  0.12386000  0.36450000  1.0 -0.2334461992
C  C52  1  0.04010000  0.18620000  0.50530000  1.0 0.091109265
C  C53  1  0.03180000  0.21158000  0.55118000  1.0 0.091109265
C  C54  1  0.99250000  0.24966000  0.59436000  1.0 -0.0920749626
C  C55  1  0.01758000  0.24469000  0.63669000  1.0 0.0393978418
C  C56  1  0.04971000  0.22314000  0.63625000  1.0 -0.1515426702
C  C57  1  0.05675000  0.20652000  0.59347000  1.0 -0.1271080356
C  C58  1  0.01010000  0.26255000  0.68245000  1.0 0.0502695841
C  C59  1  0.00930000  0.23609000  0.71059000  1.0 0.0502695841
C  C60  1  0.05160000  0.22020000  0.51320000  1.0 0.2147949131
C  C61  1  0.80091000  0.63608000  0.73325000  1.0 0.5989672513
C  C62  1  0.78806000  0.63601000  0.68283000  1.0 0.0216172045
C  C63  1  0.75936000  0.58912000  0.63550000  1.0 -0.2334461992
C  C64  1  0.68090000  0.53480000  0.49470000  1.0 0.091109265
C  C65  1  0.66040000  0.48062000  0.44882000  1.0 0.091109265
C  C66  1  0.65530000  0.39814000  0.40564000  1.0 -0.0920749626
C  C67  1  0.60800000  0.38089000  0.36331000  1.0 0.0393978418
C  C68  1  0.58689000  0.41346000  0.36375000  1.0 -0.1515426702
C  C69  1  0.61305000  0.46328000  0.40653000  1.0 -0.1271080356
C  C70  1  0.58010000  0.32765000  0.31755000  1.0 0.0502695841
C  C71  1  0.52550000  0.29871000  0.28941000  1.0 0.0502695841
C  C72  1  0.70700000  0.53840000  0.48680000  1.0 0.2147949131
C  C73  1  0.19909000  0.93234000  0.83517000  1.0 0.5989672513
C  C74  1  0.21194000  0.89477000  0.84795000  1.0 0.0216172045
C  C75  1  0.24064000  0.87614000  0.82976000  1.0 -0.2334461992
C  C76  1  0.31910000  0.81380000  0.85390000  1.0 0.091109265
C  C77  1  0.33960000  0.78842000  0.82022000  1.0 0.091109265
C  C78  1  0.34470000  0.75034000  0.74284000  1.0 -0.0920749626
C  C79  1  0.39200000  0.75531000  0.77289000  1.0 0.0393978418
C  C80  1  0.41311000  0.77686000  0.82657000  1.0 -0.1515426702
C  C81  1  0.38695000  0.79348000  0.85023000  1.0 -0.1271080356
C  C82  1  0.41990000  0.73745000  0.74755000  1.0 0.0502695841
C  C83  1  0.47450000  0.76391000  0.77321000  1.0 0.0502695841
C  C84  1  0.29300000  0.77980000  0.83140000  1.0 0.2147949131
C  C85  1  0.09717000  0.36392000  0.16483000  1.0 0.5989672513
C  C86  1  0.04682000  0.36399000  0.15205000  1.0 0.0216172045
C  C87  1  0.04638000  0.41088000  0.17024000  1.0 -0.2334461992
C  C88  1  0.95990000  0.46520000  0.14610000  1.0 0.091109265
C  C89  1  0.96820000  0.51938000  0.17978000  1.0 0.091109265
C  C90  1  0.00750000  0.60186000  0.25716000  1.0 -0.0920749626
C  C91  1  0.98242000  0.61911000  0.22711000  1.0 0.0393978418
C  C92  1  0.95029000  0.58654000  0.17343000  1.0 -0.1515426702
C  C93  1  0.94325000  0.53672000  0.14977000  1.0 -0.1271080356
C  C94  1  0.98990000  0.67235000  0.25245000  1.0 0.0502695841
C  C95  1  0.99070000  0.70129000  0.22679000  1.0 0.0502695841
C  C96  1  0.94840000  0.46160000  0.16860000  1.0 0.2155733676
C  C97  1  0.83517000  0.19909000  0.93234000  1.0 0.5989672513
C  C98  1  0.84795000  0.21194000  0.89477000  1.0 0.0216172045
C  C99  1  0.82976000  0.24064000  0.87614000  1.0 -0.2334461992
C  C100  1  0.85390000  0.31910000  0.81380000  1.0 0.091109265
C  C101  1  0.82022000  0.33960000  0.78842000  1.0 0.091109265
C  C102  1  0.74284000  0.34470000  0.75034000  1.0 -0.0920749626
C  C103  1  0.77289000  0.39200000  0.75531000  1.0 0.0393978418
C  C104  1  0.82657000  0.41311000  0.77686000  1.0 -0.1515426702
C  C105  1  0.85023000  0.38695000  0.79348000  1.0 -0.1271080356
C  C106  1  0.74755000  0.41990000  0.73745000  1.0 0.0502695841
C  C107  1  0.77321000  0.47450000  0.76391000  1.0 0.0502695841
C  C108  1  0.83140000  0.29300000  0.77980000  1.0 0.2147949131
C  C109  1  0.16483000  0.09717000  0.36392000  1.0 0.5989672513
C  C110  1  0.15205000  0.04682000  0.36399000  1.0 0.0216172045
C  C111  1  0.17024000  0.04638000  0.41088000  1.0 -0.2334461992
C  C112  1  0.14610000  0.95990000  0.46520000  1.0 0.091109265
C  C113  1  0.17978000  0.96820000  0.51938000  1.0 0.091109265
C  C114  1  0.25716000  0.00750000  0.60186000  1.0 -0.0920749626
C  C115  1  0.22711000  0.98242000  0.61911000  1.0 0.0393978418
C  C116  1  0.17343000  0.95029000  0.58654000  1.0 -0.1515426702
C  C117  1  0.14977000  0.94325000  0.53672000  1.0 -0.1271080356
C  C118  1  0.25245000  0.98990000  0.67235000  1.0 0.0502695841
C  C119  1  0.22679000  0.99070000  0.70129000  1.0 0.0502695841
C  C120  1  0.16860000  0.94840000  0.46160000  1.0 0.2147949131
C  C121  1  0.26675000  0.90283000  0.06766000  1.0 0.5989672513
C  C122  1  0.31717000  0.95318000  0.10523000  1.0 0.0216172045
C  C123  1  0.36450000  0.95362000  0.12386000  1.0 -0.2334461992
C  C124  1  0.50530000  0.04010000  0.18620000  1.0 0.091109265
C  C125  1  0.55118000  0.03180000  0.21158000  1.0 0.091109265
C  C126  1  0.59436000  0.99250000  0.24966000  1.0 -0.0920749626
C  C127  1  0.63669000  0.01758000  0.24469000  1.0 0.0393978418
C  C128  1  0.63625000  0.04971000  0.22314000  1.0 -0.1515426702
C  C129  1  0.59347000  0.05675000  0.20652000  1.0 -0.1271080356
C  C130  1  0.68245000  0.01010000  0.26255000  1.0 0.0502695841
C  C131  1  0.71059000  0.00930000  0.23609000  1.0 0.0502695841
C  C132  1  0.51320000  0.05160000  0.22020000  1.0 0.2147949131
C  C133  1  0.73325000  0.80091000  0.63608000  1.0 0.5989672513
C  C134  1  0.68283000  0.78806000  0.63601000  1.0 0.0216172045
C  C135  1  0.63550000  0.75936000  0.58912000  1.0 -0.2334461992
C  C136  1  0.49470000  0.68090000  0.53480000  1.0 0.091109265
C  C137  1  0.44882000  0.66040000  0.48062000  1.0 0.091109265
C  C138  1  0.40564000  0.65530000  0.39814000  1.0 -0.0920749626
C  C139  1  0.36331000  0.60800000  0.38089000  1.0 0.0393978418
C  C140  1  0.36375000  0.58689000  0.41346000  1.0 -0.1515426702
C  C141  1  0.40653000  0.61305000  0.46328000  1.0 -0.1271080356
C  C142  1  0.31755000  0.58010000  0.32765000  1.0 0.0502695841
C  C143  1  0.28941000  0.52550000  0.29871000  1.0 0.0502695841
C  C144  1  0.48680000  0.70700000  0.53840000  1.0 0.2147949131
C  C145  1  0.19909000  0.26675000  0.36392000  1.0 0.5989672513
C  C146  1  0.21194000  0.31717000  0.36399000  1.0 0.0216172045
C  C147  1  0.24064000  0.36450000  0.41088000  1.0 -0.2334461992
C  C148  1  0.31910000  0.50530000  0.46520000  1.0 0.091109265
C  C149  1  0.33960000  0.55118000  0.51938000  1.0 0.091109265
C  C150  1  0.34470000  0.59436000  0.60186000  1.0 -0.0920749626
C  C151  1  0.39200000  0.63669000  0.61911000  1.0 0.0393978418
C  C152  1  0.41311000  0.63625000  0.58654000  1.0 -0.1515426702
C  C153  1  0.38695000  0.59347000  0.53672000  1.0 -0.1271080356
C  C154  1  0.41990000  0.68245000  0.67235000  1.0 0.0502695841
C  C155  1  0.47450000  0.71059000  0.70129000  1.0 0.0502695841
C  C156  1  0.29300000  0.51320000  0.46160000  1.0 0.2147949131
C  C157  1  0.09717000  0.73325000  0.93234000  1.0 0.5989672513
C  C158  1  0.04682000  0.68283000  0.89477000  1.0 0.0216172045
C  C159  1  0.04638000  0.63550000  0.87614000  1.0 -0.2334461992
C  C160  1  0.95990000  0.49470000  0.81380000  1.0 0.091109265
C  C161  1  0.96820000  0.44882000  0.78842000  1.0 0.091109265
C  C162  1  0.00750000  0.40564000  0.75034000  1.0 -0.0920749626
C  C163  1  0.98242000  0.36331000  0.75531000  1.0 0.0393978418
C  C164  1  0.95029000  0.36375000  0.77686000  1.0 -0.1515426702
C  C165  1  0.94325000  0.40653000  0.79348000  1.0 -0.1271080356
C  C166  1  0.98990000  0.31755000  0.73745000  1.0 0.0502695841
C  C167  1  0.99070000  0.28941000  0.76391000  1.0 0.0502695841
C  C168  1  0.94840000  0.48680000  0.77980000  1.0 0.2147949131
C  C169  1  0.90283000  0.83517000  0.63608000  1.0 0.5989672513
C  C170  1  0.95318000  0.84795000  0.63601000  1.0 0.0216172045
C  C171  1  0.95362000  0.82976000  0.58912000  1.0 -0.2334461992
C  C172  1  0.04010000  0.85390000  0.53480000  1.0 0.091109265
C  C173  1  0.03180000  0.82022000  0.48062000  1.0 0.091109265
C  C174  1  0.99250000  0.74284000  0.39814000  1.0 -0.0920749626
C  C175  1  0.01758000  0.77289000  0.38089000  1.0 0.0393978418
C  C176  1  0.04971000  0.82657000  0.41346000  1.0 -0.1515426702
C  C177  1  0.05675000  0.85023000  0.46328000  1.0 -0.1271080356
C  C178  1  0.01010000  0.74755000  0.32765000  1.0 0.0502695841
C  C179  1  0.00930000  0.77321000  0.29871000  1.0 0.0502695841
C  C180  1  0.05160000  0.83140000  0.53840000  1.0 0.2147949131
C  C181  1  0.80091000  0.16483000  0.06766000  1.0 0.5989672513
C  C182  1  0.78806000  0.15205000  0.10523000  1.0 0.0216172045
C  C183  1  0.75936000  0.17024000  0.12386000  1.0 -0.2334461992
C  C184  1  0.68090000  0.14610000  0.18620000  1.0 0.091109265
C  C185  1  0.66040000  0.17978000  0.21158000  1.0 0.091109265
C  C186  1  0.65530000  0.25716000  0.24966000  1.0 -0.0920749626
C  C187  1  0.60800000  0.22711000  0.24469000  1.0 0.0393978418
C  C188  1  0.58689000  0.17343000  0.22314000  1.0 -0.1515426702
C  C189  1  0.61305000  0.14977000  0.20652000  1.0 -0.1271080356
C  C190  1  0.58010000  0.25245000  0.26255000  1.0 0.0502695841
C  C191  1  0.52550000  0.22679000  0.23609000  1.0 0.0502695841
C  C192  1  0.70700000  0.16860000  0.22020000  1.0 0.2147949131
C  C193  1  0.73325000  0.93234000  0.09717000  1.0 0.5989672513
C  C194  1  0.68283000  0.89477000  0.04682000  1.0 0.0216172045
C  C195  1  0.63550000  0.87614000  0.04638000  1.0 -0.2334461992
C  C196  1  0.49470000  0.81380000  0.95990000  1.0 0.091109265
C  C197  1  0.44882000  0.78842000  0.96820000  1.0 0.091109265
C  C198  1  0.40564000  0.75034000  0.00750000  1.0 -0.0920749626
C  C199  1  0.36331000  0.75531000  0.98242000  1.0 0.0393978418
C  C200  1  0.36375000  0.77686000  0.95029000  1.0 -0.1515426702
C  C201  1  0.40653000  0.79348000  0.94325000  1.0 -0.1271080356
C  C202  1  0.31755000  0.73745000  0.98990000  1.0 0.0502695841
C  C203  1  0.28941000  0.76391000  0.99070000  1.0 0.0502695841
C  C204  1  0.48680000  0.77980000  0.94840000  1.0 0.2147949131
C  C205  1  0.26675000  0.36392000  0.19909000  1.0 0.5989672513
C  C206  1  0.31717000  0.36399000  0.21194000  1.0 0.0216172045
C  C207  1  0.36450000  0.41088000  0.24064000  1.0 -0.2334461992
C  C208  1  0.50530000  0.46520000  0.31910000  1.0 0.091109265
C  C209  1  0.55118000  0.51938000  0.33960000  1.0 0.091109265
C  C210  1  0.59436000  0.60186000  0.34470000  1.0 -0.0920749626
C  C211  1  0.63669000  0.61911000  0.39200000  1.0 0.0393978418
C  C212  1  0.63625000  0.58654000  0.41311000  1.0 -0.1515426702
C  C213  1  0.59347000  0.53672000  0.38695000  1.0 -0.1271080356
C  C214  1  0.68245000  0.67235000  0.41990000  1.0 0.0502695841
C  C215  1  0.71059000  0.70129000  0.47450000  1.0 0.0502695841
C  C216  1  0.51320000  0.46160000  0.29300000  1.0 0.2147949131
C  C217  1  0.16483000  0.06766000  0.80091000  1.0 0.5989672513
C  C218  1  0.15205000  0.10523000  0.78806000  1.0 0.0216172045
C  C219  1  0.17024000  0.12386000  0.75936000  1.0 -0.2334461992
C  C220  1  0.14610000  0.18620000  0.68090000  1.0 0.091109265
C  C221  1  0.17978000  0.21158000  0.66040000  1.0 0.091109265
C  C222  1  0.25716000  0.24966000  0.65530000  1.0 -0.0920749626
C  C223  1  0.22711000  0.24469000  0.60800000  1.0 0.0393978418
C  C224  1  0.17343000  0.22314000  0.58689000  1.0 -0.1515426702
C  C225  1  0.14977000  0.20652000  0.61305000  1.0 -0.1271080356
C  C226  1  0.25245000  0.26255000  0.58010000  1.0 0.0502695841
C  C227  1  0.22679000  0.23609000  0.52550000  1.0 0.0502695841
C  C228  1  0.16860000  0.22020000  0.70700000  1.0 0.2147949131
C  C229  1  0.83517000  0.63608000  0.90283000  1.0 0.5989672513
C  C230  1  0.84795000  0.63601000  0.95318000  1.0 0.0216172045
C  C231  1  0.82976000  0.58912000  0.95362000  1.0 -0.2334461992
C  C232  1  0.85390000  0.53480000  0.04010000  1.0 0.091109265
C  C233  1  0.82022000  0.48062000  0.03180000  1.0 0.091109265
C  C234  1  0.74284000  0.39814000  0.99250000  1.0 -0.0920749626
C  C235  1  0.77289000  0.38089000  0.01758000  1.0 0.0393978418
C  C236  1  0.82657000  0.41346000  0.04971000  1.0 -0.1515426702
C  C237  1  0.85023000  0.46328000  0.05675000  1.0 -0.1271080356
C  C238  1  0.74755000  0.32765000  0.01010000  1.0 0.0502695841
C  C239  1  0.77321000  0.29871000  0.00930000  1.0 0.0502695841
C  C240  1  0.83140000  0.53840000  0.05160000  1.0 0.2155733676
C  C241  1  0.06766000  0.80091000  0.16483000  1.0 0.5989672513
C  C242  1  0.10523000  0.78806000  0.15205000  1.0 0.0216172045
C  C243  1  0.12386000  0.75936000  0.17024000  1.0 -0.2334461992
C  C244  1  0.18620000  0.68090000  0.14610000  1.0 0.091109265
C  C245  1  0.21158000  0.66040000  0.17978000  1.0 0.091109265
C  C246  1  0.24966000  0.65530000  0.25716000  1.0 -0.0920749626
C  C247  1  0.24469000  0.60800000  0.22711000  1.0 0.0393978418
C  C248  1  0.22314000  0.58689000  0.17343000  1.0 -0.1515426702
C  C249  1  0.20652000  0.61305000  0.14977000  1.0 -0.1271080356
C  C250  1  0.26255000  0.58010000  0.25245000  1.0 0.0502695841
C  C251  1  0.23609000  0.52550000  0.22679000  1.0 0.0502695841
C  C252  1  0.22020000  0.70700000  0.16860000  1.0 0.2147949131
C  C253  1  0.63608000  0.90283000  0.83517000  1.0 0.5989672513
C  C254  1  0.63601000  0.95318000  0.84795000  1.0 0.0216172045
C  C255  1  0.58912000  0.95362000  0.82976000  1.0 -0.2334461992
C  C256  1  0.53480000  0.04010000  0.85390000  1.0 0.091109265
C  C257  1  0.48062000  0.03180000  0.82022000  1.0 0.091109265
C  C258  1  0.39814000  0.99250000  0.74284000  1.0 -0.0920749626
C  C259  1  0.38089000  0.01758000  0.77289000  1.0 0.0393978418
C  C260  1  0.41346000  0.04971000  0.82657000  1.0 -0.1515426702
C  C261  1  0.46328000  0.05675000  0.85023000  1.0 -0.1271080356
C  C262  1  0.32765000  0.01010000  0.74755000  1.0 0.0502695841
C  C263  1  0.29871000  0.00930000  0.77321000  1.0 0.0502695841
C  C264  1  0.53840000  0.05160000  0.83140000  1.0 0.2147949131
C  C265  1  0.93234000  0.09717000  0.73325000  1.0 0.5989672513
C  C266  1  0.89477000  0.04682000  0.68283000  1.0 0.0216172045
C  C267  1  0.87614000  0.04638000  0.63550000  1.0 -0.2334461992
C  C268  1  0.81380000  0.95990000  0.49470000  1.0 0.091109265
C  C269  1  0.78842000  0.96820000  0.44882000  1.0 0.091109265
C  C270  1  0.75034000  0.00750000  0.40564000  1.0 -0.0920749626
C  C271  1  0.75531000  0.98242000  0.36331000  1.0 0.0393978418
C  C272  1  0.77686000  0.95029000  0.36375000  1.0 -0.1515426702
C  C273  1  0.79348000  0.94325000  0.40653000  1.0 -0.1271080356
C  C274  1  0.73745000  0.98990000  0.31755000  1.0 0.0502695841
C  C275  1  0.76391000  0.99070000  0.28941000  1.0 0.0502695841
C  C276  1  0.77980000  0.94840000  0.48680000  1.0 0.2155733676
C  C277  1  0.36392000  0.19909000  0.26675000  1.0 0.5989672513
C  C278  1  0.36399000  0.21194000  0.31717000  1.0 0.0216172045
C  C279  1  0.41088000  0.24064000  0.36450000  1.0 -0.2334461992
C  C280  1  0.46520000  0.31910000  0.50530000  1.0 0.091109265
C  C281  1  0.51938000  0.33960000  0.55118000  1.0 0.091109265
C  C282  1  0.60186000  0.34470000  0.59436000  1.0 -0.0920749626
C  C283  1  0.61911000  0.39200000  0.63669000  1.0 0.0393978418
C  C284  1  0.58654000  0.41311000  0.63625000  1.0 -0.1515426702
C  C285  1  0.53672000  0.38695000  0.59347000  1.0 -0.1271080356
C  C286  1  0.67235000  0.41990000  0.68245000  1.0 0.0502695841
C  C287  1  0.70129000  0.47450000  0.71059000  1.0 0.0502695841
C  C288  1  0.46160000  0.29300000  0.51320000  1.0 0.2147949131
C  C289  1  0.36392000  0.26675000  0.19909000  1.0 0.5989672513
C  C290  1  0.36399000  0.31717000  0.21194000  1.0 0.0216172045
C  C291  1  0.41088000  0.36450000  0.24064000  1.0 -0.2334461992
C  C292  1  0.46520000  0.50530000  0.31910000  1.0 0.091109265
C  C293  1  0.51938000  0.55118000  0.33960000  1.0 0.091109265
C  C294  1  0.60186000  0.59436000  0.34470000  1.0 -0.0920749626
C  C295  1  0.61911000  0.63669000  0.39200000  1.0 0.0393978418
C  C296  1  0.58654000  0.63625000  0.41311000  1.0 -0.1515426702
C  C297  1  0.53672000  0.59347000  0.38695000  1.0 -0.1271080356
C  C298  1  0.67235000  0.68245000  0.41990000  1.0 0.0502695841
C  C299  1  0.70129000  0.71059000  0.47450000  1.0 0.0502695841
C  C300  1  0.46160000  0.51320000  0.29300000  1.0 0.2147949131
C  C301  1  0.93234000  0.73325000  0.09717000  1.0 0.5989672513
C  C302  1  0.89477000  0.68283000  0.04682000  1.0 0.0216172045
C  C303  1  0.87614000  0.63550000  0.04638000  1.0 -0.2334461992
C  C304  1  0.81380000  0.49470000  0.95990000  1.0 0.091109265
C  C305  1  0.78842000  0.44882000  0.96820000  1.0 0.091109265
C  C306  1  0.75034000  0.40564000  0.00750000  1.0 -0.0920749626
C  C307  1  0.75531000  0.36331000  0.98242000  1.0 0.0393978418
C  C308  1  0.77686000  0.36375000  0.95029000  1.0 -0.1515426702
C  C309  1  0.79348000  0.40653000  0.94325000  1.0 -0.1271080356
C  C310  1  0.73745000  0.31755000  0.98990000  1.0 0.0502695841
C  C311  1  0.76391000  0.28941000  0.99070000  1.0 0.0502695841
C  C312  1  0.77980000  0.48680000  0.94840000  1.0 0.2147949131
C  C313  1  0.63608000  0.83517000  0.90283000  1.0 0.5989672513
C  C314  1  0.63601000  0.84795000  0.95318000  1.0 0.0216172045
C  C315  1  0.58912000  0.82976000  0.95362000  1.0 -0.2334461992
C  C316  1  0.53480000  0.85390000  0.04010000  1.0 0.091109265
C  C317  1  0.48062000  0.82022000  0.03180000  1.0 0.091109265
C  C318  1  0.39814000  0.74284000  0.99250000  1.0 -0.0920749626
C  C319  1  0.38089000  0.77289000  0.01758000  1.0 0.0393978418
C  C320  1  0.41346000  0.82657000  0.04971000  1.0 -0.1515426702
C  C321  1  0.46328000  0.85023000  0.05675000  1.0 -0.1271080356
C  C322  1  0.32765000  0.74755000  0.01010000  1.0 0.0502695841
C  C323  1  0.29871000  0.77321000  0.00930000  1.0 0.0502695841
C  C324  1  0.53840000  0.83140000  0.05160000  1.0 0.2155733676
C  C325  1  0.06766000  0.16483000  0.80091000  1.0 0.5989672513
C  C326  1  0.10523000  0.15205000  0.78806000  1.0 0.0216172045
C  C327  1  0.12386000  0.17024000  0.75936000  1.0 -0.2334461992
C  C328  1  0.18620000  0.14610000  0.68090000  1.0 0.091109265
C  C329  1  0.21158000  0.17978000  0.66040000  1.0 0.091109265
C  C330  1  0.24966000  0.25716000  0.65530000  1.0 -0.0920749626
C  C331  1  0.24469000  0.22711000  0.60800000  1.0 0.0393978418
C  C332  1  0.22314000  0.17343000  0.58689000  1.0 -0.1515426702
C  C333  1  0.20652000  0.14977000  0.61305000  1.0 -0.1271080356
C  C334  1  0.26255000  0.25245000  0.58010000  1.0 0.0502695841
C  C335  1  0.23609000  0.22679000  0.52550000  1.0 0.0502695841
C  C336  1  0.22020000  0.16860000  0.70700000  1.0 0.2147949131
C  C337  1  0.09717000  0.93234000  0.73325000  1.0 0.5989672513
C  C338  1  0.04682000  0.89477000  0.68283000  1.0 0.0216172045
C  C339  1  0.04638000  0.87614000  0.63550000  1.0 -0.2334461992
C  C340  1  0.95990000  0.81380000  0.49470000  1.0 0.091109265
C  C341  1  0.96820000  0.78842000  0.44882000  1.0 0.091109265
C  C342  1  0.00750000  0.75034000  0.40564000  1.0 -0.0920749626
C  C343  1  0.98242000  0.75531000  0.36331000  1.0 0.0393978418
C  C344  1  0.95029000  0.77686000  0.36375000  1.0 -0.1515426702
C  C345  1  0.94325000  0.79348000  0.40653000  1.0 -0.1271080356
C  C346  1  0.98990000  0.73745000  0.31755000  1.0 0.0502695841
C  C347  1  0.99070000  0.76391000  0.28941000  1.0 0.0502695841
C  C348  1  0.94840000  0.77980000  0.48680000  1.0 0.2155733676
C  C349  1  0.19909000  0.36392000  0.26675000  1.0 0.5989672513
C  C350  1  0.21194000  0.36399000  0.31717000  1.0 0.0216172045
C  C351  1  0.24064000  0.41088000  0.36450000  1.0 -0.2334461992
C  C352  1  0.31910000  0.46520000  0.50530000  1.0 0.091109265
C  C353  1  0.33960000  0.51938000  0.55118000  1.0 0.091109265
C  C354  1  0.34470000  0.60186000  0.59436000  1.0 -0.0920749626
C  C355  1  0.39200000  0.61911000  0.63669000  1.0 0.0393978418
C  C356  1  0.41311000  0.58654000  0.63625000  1.0 -0.1515426702
C  C357  1  0.38695000  0.53672000  0.59347000  1.0 -0.1271080356
C  C358  1  0.41990000  0.67235000  0.68245000  1.0 0.0502695841
C  C359  1  0.47450000  0.70129000  0.71059000  1.0 0.0502695841
C  C360  1  0.29300000  0.46160000  0.51320000  1.0 0.2147949131
C  C361  1  0.80091000  0.06766000  0.16483000  1.0 0.5989672513
C  C362  1  0.78806000  0.10523000  0.15205000  1.0 0.0216172045
C  C363  1  0.75936000  0.12386000  0.17024000  1.0 -0.2334461992
C  C364  1  0.68090000  0.18620000  0.14610000  1.0 0.091109265
C  C365  1  0.66040000  0.21158000  0.17978000  1.0 0.091109265
C  C366  1  0.65530000  0.24966000  0.25716000  1.0 -0.0920749626
C  C367  1  0.60800000  0.24469000  0.22711000  1.0 0.0393978418
C  C368  1  0.58689000  0.22314000  0.17343000  1.0 -0.1515426702
C  C369  1  0.61305000  0.20652000  0.14977000  1.0 -0.1271080356
C  C370  1  0.58010000  0.26255000  0.25245000  1.0 0.0502695841
C  C371  1  0.52550000  0.23609000  0.22679000  1.0 0.0502695841
C  C372  1  0.70700000  0.22020000  0.16860000  1.0 0.2147949131
C  C373  1  0.90283000  0.63608000  0.83517000  1.0 0.5989672513
C  C374  1  0.95318000  0.63601000  0.84795000  1.0 0.0216172045
C  C375  1  0.95362000  0.58912000  0.82976000  1.0 -0.2334461992
C  C376  1  0.04010000  0.53480000  0.85390000  1.0 0.091109265
C  C377  1  0.03180000  0.48062000  0.82022000  1.0 0.091109265
C  C378  1  0.99250000  0.39814000  0.74284000  1.0 -0.0920749626
C  C379  1  0.01758000  0.38089000  0.77289000  1.0 0.0393978418
C  C380  1  0.04971000  0.41346000  0.82657000  1.0 -0.1515426702
C  C381  1  0.05675000  0.46328000  0.85023000  1.0 -0.1271080356
C  C382  1  0.01010000  0.32765000  0.74755000  1.0 0.0502695841
C  C383  1  0.00930000  0.29871000  0.77321000  1.0 0.0502695841
C  C384  1  0.05160000  0.53840000  0.83140000  1.0 0.2147949131
C  C385  1  0.16483000  0.80091000  0.06766000  1.0 0.5989672513
C  C386  1  0.15205000  0.78806000  0.10523000  1.0 0.0216172045
C  C387  1  0.17024000  0.75936000  0.12386000  1.0 -0.2334461992
C  C388  1  0.14610000  0.68090000  0.18620000  1.0 0.091109265
C  C389  1  0.17978000  0.66040000  0.21158000  1.0 0.091109265
C  C390  1  0.25716000  0.65530000  0.24966000  1.0 -0.0920749626
C  C391  1  0.22711000  0.60800000  0.24469000  1.0 0.0393978418
C  C392  1  0.17343000  0.58689000  0.22314000  1.0 -0.1515426702
C  C393  1  0.14977000  0.61305000  0.20652000  1.0 -0.1271080356
C  C394  1  0.25245000  0.58010000  0.26255000  1.0 0.0502695841
C  C395  1  0.22679000  0.52550000  0.23609000  1.0 0.0502695841
C  C396  1  0.16860000  0.70700000  0.22020000  1.0 0.2147949131
C  C397  1  0.83517000  0.90283000  0.63608000  1.0 0.5989672513
C  C398  1  0.84795000  0.95318000  0.63601000  1.0 0.0216172045
C  C399  1  0.82976000  0.95362000  0.58912000  1.0 -0.2334461992
C  C400  1  0.85390000  0.04010000  0.53480000  1.0 0.091109265
C  C401  1  0.82022000  0.03180000  0.48062000  1.0 0.091109265
C  C402  1  0.74284000  0.99250000  0.39814000  1.0 -0.0920749626
C  C403  1  0.77289000  0.01758000  0.38089000  1.0 0.0393978418
C  C404  1  0.82657000  0.04971000  0.41346000  1.0 -0.1515426702
C  C405  1  0.85023000  0.05675000  0.46328000  1.0 -0.1271080356
C  C406  1  0.74755000  0.01010000  0.32765000  1.0 0.0502695841
C  C407  1  0.77321000  0.00930000  0.29871000  1.0 0.0502695841
C  C408  1  0.83140000  0.05160000  0.53840000  1.0 0.2147949131
C  C409  1  0.73325000  0.09717000  0.93234000  1.0 0.5989672513
C  C410  1  0.68283000  0.04682000  0.89477000  1.0 0.0216172045
C  C411  1  0.63550000  0.04638000  0.87614000  1.0 -0.2334461992
C  C412  1  0.49470000  0.95990000  0.81380000  1.0 0.091109265
C  C413  1  0.44882000  0.96820000  0.78842000  1.0 0.091109265
C  C414  1  0.40564000  0.00750000  0.75034000  1.0 -0.0920749626
C  C415  1  0.36331000  0.98242000  0.75531000  1.0 0.0393978418
C  C416  1  0.36375000  0.95029000  0.77686000  1.0 -0.1515426702
C  C417  1  0.40653000  0.94325000  0.79348000  1.0 -0.1271080356
C  C418  1  0.31755000  0.98990000  0.73745000  1.0 0.0502695841
C  C419  1  0.28941000  0.99070000  0.76391000  1.0 0.0502695841
C  C420  1  0.48680000  0.94840000  0.77980000  1.0 0.2147949131
C  C421  1  0.26675000  0.19909000  0.36392000  1.0 0.5989672513
C  C422  1  0.31717000  0.21194000  0.36399000  1.0 0.0216172045
C  C423  1  0.36450000  0.24064000  0.41088000  1.0 -0.2334461992
C  C424  1  0.50530000  0.31910000  0.46520000  1.0 0.091109265
C  C425  1  0.55118000  0.33960000  0.51938000  1.0 0.091109265
C  C426  1  0.59436000  0.34470000  0.60186000  1.0 -0.0920749626
C  C427  1  0.63669000  0.39200000  0.61911000  1.0 0.0393978418
C  C428  1  0.63625000  0.41311000  0.58654000  1.0 -0.1515426702
C  C429  1  0.59347000  0.38695000  0.53672000  1.0 -0.1271080356
C  C430  1  0.68245000  0.41990000  0.67235000  1.0 0.0502695841
C  C431  1  0.71059000  0.47450000  0.70129000  1.0 0.0502695841
C  C432  1  0.51320000  0.29300000  0.46160000  1.0 0.2147949131
C  C433  1  0.80091000  0.73325000  0.63608000  1.0 0.5989672513
C  C434  1  0.78806000  0.68283000  0.63601000  1.0 0.0216172045
C  C435  1  0.75936000  0.63550000  0.58912000  1.0 -0.2334461992
C  C436  1  0.68090000  0.49470000  0.53480000  1.0 0.091109265
C  C437  1  0.66040000  0.44882000  0.48062000  1.0 0.091109265
C  C438  1  0.65530000  0.40564000  0.39814000  1.0 -0.0920749626
C  C439  1  0.60800000  0.36331000  0.38089000  1.0 0.0393978418
C  C440  1  0.58689000  0.36375000  0.41346000  1.0 -0.1515426702
C  C441  1  0.61305000  0.40653000  0.46328000  1.0 -0.1271080356
C  C442  1  0.58010000  0.31755000  0.32765000  1.0 0.0502695841
C  C443  1  0.52550000  0.28941000  0.29871000  1.0 0.0502695841
C  C444  1  0.70700000  0.48680000  0.53840000  1.0 0.2147949131
C  C445  1  0.90283000  0.26675000  0.06766000  1.0 0.5989672513
C  C446  1  0.95318000  0.31717000  0.10523000  1.0 0.0216172045
C  C447  1  0.95362000  0.36450000  0.12386000  1.0 -0.2334461992
C  C448  1  0.04010000  0.50530000  0.18620000  1.0 0.091109265
C  C449  1  0.03180000  0.55118000  0.21158000  1.0 0.091109265
C  C450  1  0.99250000  0.59436000  0.24966000  1.0 -0.0920749626
C  C451  1  0.01758000  0.63669000  0.24469000  1.0 0.0393978418
C  C452  1  0.04971000  0.63625000  0.22314000  1.0 -0.1515426702
C  C453  1  0.05675000  0.59347000  0.20652000  1.0 -0.1271080356
C  C454  1  0.01010000  0.68245000  0.26255000  1.0 0.0502695841
C  C455  1  0.00930000  0.71059000  0.23609000  1.0 0.0502695841
C  C456  1  0.05160000  0.51320000  0.22020000  1.0 0.2147949131
C  C457  1  0.09717000  0.16483000  0.36392000  1.0 0.5989672513
C  C458  1  0.04682000  0.15205000  0.36399000  1.0 0.0216172045
C  C459  1  0.04638000  0.17024000  0.41088000  1.0 -0.2334461992
C  C460  1  0.95990000  0.14610000  0.46520000  1.0 0.091109265
C  C461  1  0.96820000  0.17978000  0.51938000  1.0 0.091109265
C  C462  1  0.00750000  0.25716000  0.60186000  1.0 -0.0920749626
C  C463  1  0.98242000  0.22711000  0.61911000  1.0 0.0393978418
C  C464  1  0.95029000  0.17343000  0.58654000  1.0 -0.1515426702
C  C465  1  0.94325000  0.14977000  0.53672000  1.0 -0.1271080356
C  C466  1  0.98990000  0.25245000  0.67235000  1.0 0.0502695841
C  C467  1  0.99070000  0.22679000  0.70129000  1.0 0.0502695841
C  C468  1  0.94840000  0.16860000  0.46160000  1.0 0.2147949131
C  C469  1  0.19909000  0.83517000  0.93234000  1.0 0.5989672513
C  C470  1  0.21194000  0.84795000  0.89477000  1.0 0.0216172045
C  C471  1  0.24064000  0.82976000  0.87614000  1.0 -0.2334461992
C  C472  1  0.31910000  0.85390000  0.81380000  1.0 0.091109265
C  C473  1  0.33960000  0.82022000  0.78842000  1.0 0.091109265
C  C474  1  0.34470000  0.74284000  0.75034000  1.0 -0.0920749626
C  C475  1  0.39200000  0.77289000  0.75531000  1.0 0.0393978418
C  C476  1  0.41311000  0.82657000  0.77686000  1.0 -0.1515426702
C  C477  1  0.38695000  0.85023000  0.79348000  1.0 -0.1271080356
C  C478  1  0.41990000  0.74755000  0.73745000  1.0 0.0502695841
C  C479  1  0.47450000  0.77321000  0.76391000  1.0 0.0502695841
C  C480  1  0.29300000  0.83140000  0.77980000  1.0 0.2147949131
C  C481  1  0.26675000  0.06766000  0.90283000  1.0 0.5989672513
C  C482  1  0.31717000  0.10523000  0.95318000  1.0 0.0216172045
C  C483  1  0.36450000  0.12386000  0.95362000  1.0 -0.2334461992
C  C484  1  0.50530000  0.18620000  0.04010000  1.0 0.091109265
C  C485  1  0.55118000  0.21158000  0.03180000  1.0 0.091109265
C  C486  1  0.59436000  0.24966000  0.99250000  1.0 -0.0920749626
C  C487  1  0.63669000  0.24469000  0.01758000  1.0 0.0393978418
C  C488  1  0.63625000  0.22314000  0.04971000  1.0 -0.1515426702
C  C489  1  0.59347000  0.20652000  0.05675000  1.0 -0.1271080356
C  C490  1  0.68245000  0.26255000  0.01010000  1.0 0.0502695841
C  C491  1  0.71059000  0.23609000  0.00930000  1.0 0.0502695841
C  C492  1  0.51320000  0.22020000  0.05160000  1.0 0.2147949131
C  C493  1  0.73325000  0.63608000  0.80091000  1.0 0.5989672513
C  C494  1  0.68283000  0.63601000  0.78806000  1.0 0.0216172045
C  C495  1  0.63550000  0.58912000  0.75936000  1.0 -0.2334461992
C  C496  1  0.49470000  0.53480000  0.68090000  1.0 0.091109265
C  C497  1  0.44882000  0.48062000  0.66040000  1.0 0.091109265
C  C498  1  0.40564000  0.39814000  0.65530000  1.0 -0.0920749626
C  C499  1  0.36331000  0.38089000  0.60800000  1.0 0.0393978418
C  C500  1  0.36375000  0.41346000  0.58689000  1.0 -0.1515426702
C  C501  1  0.40653000  0.46328000  0.61305000  1.0 -0.1271080356
C  C502  1  0.31755000  0.32765000  0.58010000  1.0 0.0502695841
C  C503  1  0.28941000  0.29871000  0.52550000  1.0 0.0502695841
C  C504  1  0.48680000  0.53840000  0.70700000  1.0 0.2147949131
C  C505  1  0.83517000  0.93234000  0.19909000  1.0 0.5989672513
C  C506  1  0.84795000  0.89477000  0.21194000  1.0 0.0216172045
C  C507  1  0.82976000  0.87614000  0.24064000  1.0 -0.2334461992
C  C508  1  0.85390000  0.81380000  0.31910000  1.0 0.091109265
C  C509  1  0.82022000  0.78842000  0.33960000  1.0 0.091109265
C  C510  1  0.74284000  0.75034000  0.34470000  1.0 -0.0920749626
C  C511  1  0.77289000  0.75531000  0.39200000  1.0 0.0393978418
C  C512  1  0.82657000  0.77686000  0.41311000  1.0 -0.1515426702
C  C513  1  0.85023000  0.79348000  0.38695000  1.0 -0.1271080356
C  C514  1  0.74755000  0.73745000  0.41990000  1.0 0.0502695841
C  C515  1  0.77321000  0.76391000  0.47450000  1.0 0.0502695841
C  C516  1  0.83140000  0.77980000  0.29300000  1.0 0.2155733676
C  C517  1  0.16483000  0.36392000  0.09717000  1.0 0.5989672513
C  C518  1  0.15205000  0.36399000  0.04682000  1.0 0.0216172045
C  C519  1  0.17024000  0.41088000  0.04638000  1.0 -0.2334461992
C  C520  1  0.14610000  0.46520000  0.95990000  1.0 0.091109265
C  C521  1  0.17978000  0.51938000  0.96820000  1.0 0.091109265
C  C522  1  0.25716000  0.60186000  0.00750000  1.0 -0.0920749626
C  C523  1  0.22711000  0.61911000  0.98242000  1.0 0.0393978418
C  C524  1  0.17343000  0.58654000  0.95029000  1.0 -0.1515426702
C  C525  1  0.14977000  0.53672000  0.94325000  1.0 -0.1271080356
C  C526  1  0.25245000  0.67235000  0.98990000  1.0 0.0502695841
C  C527  1  0.22679000  0.70129000  0.99070000  1.0 0.0502695841
C  C528  1  0.16860000  0.46160000  0.94840000  1.0 0.2147949131
C  C529  1  0.93234000  0.19909000  0.83517000  1.0 0.5989672513
C  C530  1  0.89477000  0.21194000  0.84795000  1.0 0.0216172045
C  C531  1  0.87614000  0.24064000  0.82976000  1.0 -0.2334461992
C  C532  1  0.81380000  0.31910000  0.85390000  1.0 0.091109265
C  C533  1  0.78842000  0.33960000  0.82022000  1.0 0.091109265
C  C534  1  0.75034000  0.34470000  0.74284000  1.0 -0.0920749626
C  C535  1  0.75531000  0.39200000  0.77289000  1.0 0.0393978418
C  C536  1  0.77686000  0.41311000  0.82657000  1.0 -0.1515426702
C  C537  1  0.79348000  0.38695000  0.85023000  1.0 -0.1271080356
C  C538  1  0.73745000  0.41990000  0.74755000  1.0 0.0502695841
C  C539  1  0.76391000  0.47450000  0.77321000  1.0 0.0502695841
C  C540  1  0.77980000  0.29300000  0.83140000  1.0 0.2147949131
C  C541  1  0.36392000  0.09717000  0.16483000  1.0 0.5989672513
C  C542  1  0.36399000  0.04682000  0.15205000  1.0 0.0216172045
C  C543  1  0.41088000  0.04638000  0.17024000  1.0 -0.2334461992
C  C544  1  0.46520000  0.95990000  0.14610000  1.0 0.091109265
C  C545  1  0.51938000  0.96820000  0.17978000  1.0 0.091109265
C  C546  1  0.60186000  0.00750000  0.25716000  1.0 -0.0920749626
C  C547  1  0.61911000  0.98242000  0.22711000  1.0 0.0393978418
C  C548  1  0.58654000  0.95029000  0.17343000  1.0 -0.1515426702
C  C549  1  0.53672000  0.94325000  0.14977000  1.0 -0.1271080356
C  C550  1  0.67235000  0.98990000  0.25245000  1.0 0.0502695841
C  C551  1  0.70129000  0.99070000  0.22679000  1.0 0.0502695841
C  C552  1  0.46160000  0.94840000  0.16860000  1.0 0.2155733676
C  C553  1  0.06766000  0.90283000  0.26675000  1.0 0.5989672513
C  C554  1  0.10523000  0.95318000  0.31717000  1.0 0.0216172045
C  C555  1  0.12386000  0.95362000  0.36450000  1.0 -0.2334461992
C  C556  1  0.18620000  0.04010000  0.50530000  1.0 0.091109265
C  C557  1  0.21158000  0.03180000  0.55118000  1.0 0.091109265
C  C558  1  0.24966000  0.99250000  0.59436000  1.0 -0.0920749626
C  C559  1  0.24469000  0.01758000  0.63669000  1.0 0.0393978418
C  C560  1  0.22314000  0.04971000  0.63625000  1.0 -0.1515426702
C  C561  1  0.20652000  0.05675000  0.59347000  1.0 -0.1271080356
C  C562  1  0.26255000  0.01010000  0.68245000  1.0 0.0502695841
C  C563  1  0.23609000  0.00930000  0.71059000  1.0 0.0502695841
C  C564  1  0.22020000  0.05160000  0.51320000  1.0 0.2147949131
C  C565  1  0.63608000  0.80091000  0.73325000  1.0 0.5989672513
C  C566  1  0.63601000  0.78806000  0.68283000  1.0 0.0216172045
C  C567  1  0.58912000  0.75936000  0.63550000  1.0 -0.2334461992
C  C568  1  0.53480000  0.68090000  0.49470000  1.0 0.091109265
C  C569  1  0.48062000  0.66040000  0.44882000  1.0 0.091109265
C  C570  1  0.39814000  0.65530000  0.40564000  1.0 -0.0920749626
C  C571  1  0.38089000  0.60800000  0.36331000  1.0 0.0393978418
C  C572  1  0.41346000  0.58689000  0.36375000  1.0 -0.1515426702
C  C573  1  0.46328000  0.61305000  0.40653000  1.0 -0.1271080356
C  C574  1  0.32765000  0.58010000  0.31755000  1.0 0.0502695841
C  C575  1  0.29871000  0.52550000  0.28941000  1.0 0.0502695841
C  C576  1  0.53840000  0.70700000  0.48680000  1.0 0.2147949131
C  C577  1  0.30730000  0.29860000  0.60590000  1.0 -0.0987259405
C  C578  1  0.30730000  0.70140000  0.00870000  1.0 -0.0987259405
C  C579  1  0.69270000  0.29860000  0.99130000  1.0 -0.0987259405
C  C580  1  0.69270000  0.70140000  0.39410000  1.0 -0.0987259405
C  C581  1  0.00870000  0.30730000  0.70140000  1.0 -0.0987259405
C  C582  1  0.60590000  0.30730000  0.29860000  1.0 -0.0987259405
C  C583  1  0.39410000  0.69270000  0.70140000  1.0 -0.0987259405
C  C584  1  0.99130000  0.69270000  0.29860000  1.0 -0.0987259405
C  C585  1  0.70140000  0.39410000  0.69270000  1.0 -0.0987259405
C  C586  1  0.29860000  0.99130000  0.69270000  1.0 -0.0987259405
C  C587  1  0.70140000  0.00870000  0.30730000  1.0 -0.0987259405
C  C588  1  0.29860000  0.60590000  0.30730000  1.0 -0.0987259405
C  C589  1  0.39410000  0.70140000  0.69270000  1.0 -0.0987259405
C  C590  1  0.99130000  0.29860000  0.69270000  1.0 -0.0987259405
C  C591  1  0.00870000  0.70140000  0.30730000  1.0 -0.0987259405
C  C592  1  0.60590000  0.29860000  0.30730000  1.0 -0.0987259405
C  C593  1  0.29860000  0.69270000  0.99130000  1.0 -0.0987259405
C  C594  1  0.70140000  0.69270000  0.39410000  1.0 -0.0987259405
C  C595  1  0.29860000  0.30730000  0.60590000  1.0 -0.0987259405
C  C596  1  0.70140000  0.30730000  0.00870000  1.0 -0.0987259405
C  C597  1  0.30730000  0.60590000  0.29860000  1.0 -0.0987259405
C  C598  1  0.30730000  0.00870000  0.70140000  1.0 -0.0987259405
C  C599  1  0.69270000  0.99130000  0.29860000  1.0 -0.0987259405
C  C600  1  0.69270000  0.39410000  0.70140000  1.0 -0.0987259405
C  C601  1  0.68245000  0.68245000  0.80212000  1.0 -0.1071474432
C  C602  1  0.58960000  0.58960000  0.74596000  1.0 0.2013253292
C  C603  1  0.44834000  0.44834000  0.68176000  1.0 -0.0920749626
C  C604  1  0.11967000  0.31755000  0.00000000  1.0 -0.1071474432
C  C605  1  0.15636000  0.41040000  0.00000000  1.0 0.2013253292
C  C606  1  0.23342000  0.55166000  0.00000000  1.0 -0.0920749626
C  C607  1  0.31755000  0.11967000  0.00000000  1.0 -0.1071474432
C  C608  1  0.41040000  0.15636000  0.00000000  1.0 0.2013253292
C  C609  1  0.55166000  0.23342000  0.00000000  1.0 -0.0920749626
C  C610  1  0.88033000  0.88033000  0.19788000  1.0 -0.1071474432
C  C611  1  0.84364000  0.84364000  0.25404000  1.0 0.2013253292
C  C612  1  0.76658000  0.76658000  0.31824000  1.0 -0.0920749626
C  C613  1  0.00000000  0.11967000  0.31755000  1.0 -0.1071474432
C  C614  1  0.00000000  0.15636000  0.41040000  1.0 0.2013253292
C  C615  1  0.00000000  0.23342000  0.55166000  1.0 -0.0920749626
C  C616  1  0.80212000  0.68245000  0.68245000  1.0 -0.1071474432
C  C617  1  0.74596000  0.58960000  0.58960000  1.0 0.2013253292
C  C618  1  0.68176000  0.44834000  0.44834000  1.0 -0.0920749626
C  C619  1  0.19788000  0.88033000  0.88033000  1.0 -0.1071474432
C  C620  1  0.25404000  0.84364000  0.84364000  1.0 0.2013253292
C  C621  1  0.31824000  0.76658000  0.76658000  1.0 -0.0920749626
C  C622  1  0.00000000  0.31755000  0.11967000  1.0 -0.1071474432
C  C623  1  0.00000000  0.41040000  0.15636000  1.0 0.2013253292
C  C624  1  0.00000000  0.55166000  0.23342000  1.0 -0.0920749626
C  C625  1  0.88033000  0.19788000  0.88033000  1.0 -0.1071474432
C  C626  1  0.84364000  0.25404000  0.84364000  1.0 0.2013253292
C  C627  1  0.76658000  0.31824000  0.76658000  1.0 -0.0920749626
C  C628  1  0.11967000  0.00000000  0.31755000  1.0 -0.1071474432
C  C629  1  0.15636000  0.00000000  0.41040000  1.0 0.2013253292
C  C630  1  0.23342000  0.00000000  0.55166000  1.0 -0.0920749626
C  C631  1  0.31755000  0.00000000  0.11967000  1.0 -0.1071474432
C  C632  1  0.41040000  0.00000000  0.15636000  1.0 0.2013253292
C  C633  1  0.55166000  0.00000000  0.23342000  1.0 -0.0920749626
C  C634  1  0.68245000  0.80212000  0.68245000  1.0 -0.1071474432
C  C635  1  0.58960000  0.74596000  0.58960000  1.0 0.2013253292
C  C636  1  0.44834000  0.68176000  0.44834000  1.0 -0.0920749626
C  C637  1  0.19788000  0.31755000  0.31755000  1.0 -0.1071474432
C  C638  1  0.25404000  0.41040000  0.41040000  1.0 0.2013253292
C  C639  1  0.31824000  0.55166000  0.55166000  1.0 -0.0920749626
C  C640  1  0.00000000  0.68245000  0.88033000  1.0 -0.1071474432
C  C641  1  0.00000000  0.58960000  0.84364000  1.0 0.2013253292
C  C642  1  0.00000000  0.44834000  0.76658000  1.0 -0.0920749626
C  C643  1  0.00000000  0.88033000  0.68245000  1.0 -0.1071474432
C  C644  1  0.00000000  0.84364000  0.58960000  1.0 0.2013253292
C  C645  1  0.00000000  0.76658000  0.44834000  1.0 -0.0920749626
C  C646  1  0.80212000  0.11967000  0.11967000  1.0 -0.1071474432
C  C647  1  0.74596000  0.15636000  0.15636000  1.0 0.2013253292
C  C648  1  0.68176000  0.23342000  0.23342000  1.0 -0.0920749626
C  C649  1  0.68245000  0.88033000  0.00000000  1.0 -0.1071474432
C  C650  1  0.58960000  0.84364000  0.00000000  1.0 0.2013253292
C  C651  1  0.44834000  0.76658000  0.00000000  1.0 -0.0920749626
C  C652  1  0.31755000  0.31755000  0.19788000  1.0 -0.1071474432
C  C653  1  0.41040000  0.41040000  0.25404000  1.0 0.2013253292
C  C654  1  0.55166000  0.55166000  0.31824000  1.0 -0.0920749626
C  C655  1  0.11967000  0.11967000  0.80212000  1.0 -0.1071474432
C  C656  1  0.15636000  0.15636000  0.74596000  1.0 0.2013253292
C  C657  1  0.23342000  0.23342000  0.68176000  1.0 -0.0920749626
C  C658  1  0.88033000  0.68245000  0.00000000  1.0 -0.1071474432
C  C659  1  0.84364000  0.58960000  0.00000000  1.0 0.2013253292
C  C660  1  0.76658000  0.44834000  0.00000000  1.0 -0.0920749626
C  C661  1  0.11967000  0.80212000  0.11967000  1.0 -0.1071474432
C  C662  1  0.15636000  0.74596000  0.15636000  1.0 0.2013253292
C  C663  1  0.23342000  0.68176000  0.23342000  1.0 -0.0920749626
C  C664  1  0.68245000  0.00000000  0.88033000  1.0 -0.1071474432
C  C665  1  0.58960000  0.00000000  0.84364000  1.0 0.2013253292
C  C666  1  0.44834000  0.00000000  0.76658000  1.0 -0.0920749626
C  C667  1  0.88033000  0.00000000  0.68245000  1.0 -0.1071474432
C  C668  1  0.84364000  0.00000000  0.58960000  1.0 0.2013253292
C  C669  1  0.76658000  0.00000000  0.44834000  1.0 -0.0920749626
C  C670  1  0.31755000  0.19788000  0.31755000  1.0 -0.1071474432
C  C671  1  0.41040000  0.25404000  0.41040000  1.0 0.2013253292
C  C672  1  0.55166000  0.31824000  0.55166000  1.0 -0.0920749626
N  N1  1  0.54900000  0.53690000  0.72290000  1.0 -0.0588889129
N  N2  1  0.18600000  0.46310000  0.01210000  1.0 -0.0588889129
N  N3  1  0.45100000  0.17390000  0.98790000  1.0 -0.0588889129
N  N4  1  0.81400000  0.82610000  0.27710000  1.0 -0.0588889129
N  N5  1  0.01210000  0.18600000  0.46310000  1.0 -0.0588889129
N  N6  1  0.72290000  0.54900000  0.53690000  1.0 -0.0588889129
N  N7  1  0.27710000  0.81400000  0.82610000  1.0 -0.0588889129
N  N8  1  0.98790000  0.45100000  0.17390000  1.0 -0.0588889129
N  N9  1  0.82610000  0.27710000  0.81400000  1.0 -0.0588889129
N  N10  1  0.17390000  0.98790000  0.45100000  1.0 -0.0588889129
N  N11  1  0.46310000  0.01210000  0.18600000  1.0 -0.0588889129
N  N12  1  0.53690000  0.72290000  0.54900000  1.0 -0.0588889129
N  N13  1  0.27710000  0.46310000  0.45100000  1.0 -0.0588889129
N  N14  1  0.98790000  0.53690000  0.81400000  1.0 -0.0588889129
N  N15  1  0.01210000  0.82610000  0.54900000  1.0 -0.0588889129
N  N16  1  0.72290000  0.17390000  0.18600000  1.0 -0.0588889129
N  N17  1  0.53690000  0.81400000  0.98790000  1.0 -0.0588889129
N  N18  1  0.46310000  0.45100000  0.27710000  1.0 -0.0588889129
N  N19  1  0.17390000  0.18600000  0.72290000  1.0 -0.0588889129
N  N20  1  0.82610000  0.54900000  0.01210000  1.0 -0.0588889129
N  N21  1  0.18600000  0.72290000  0.17390000  1.0 -0.0588889129
N  N22  1  0.54900000  0.01210000  0.82610000  1.0 -0.0588889129
N  N23  1  0.81400000  0.98790000  0.53690000  1.0 -0.0588889129
N  N24  1  0.45100000  0.27710000  0.46310000  1.0 -0.0588889129
N  N25  1  0.45100000  0.46310000  0.27710000  1.0 -0.0588889129
N  N26  1  0.81400000  0.53690000  0.98790000  1.0 -0.0588889129
N  N27  1  0.54900000  0.82610000  0.01210000  1.0 -0.0588889129
N  N28  1  0.18600000  0.17390000  0.72290000  1.0 -0.0588889129
N  N29  1  0.98790000  0.81400000  0.53690000  1.0 -0.0588889129
N  N30  1  0.27710000  0.45100000  0.46310000  1.0 -0.0588889129
N  N31  1  0.72290000  0.18600000  0.17390000  1.0 -0.0588889129
N  N32  1  0.01210000  0.54900000  0.82610000  1.0 -0.0588889129
N  N33  1  0.17390000  0.72290000  0.18600000  1.0 -0.0588889129
N  N34  1  0.82610000  0.01210000  0.54900000  1.0 -0.0588889129
N  N35  1  0.53690000  0.98790000  0.81400000  1.0 -0.0588889129
N  N36  1  0.46310000  0.27710000  0.45100000  1.0 -0.0588889129
N  N37  1  0.72290000  0.53690000  0.54900000  1.0 -0.0588889129
N  N38  1  0.01210000  0.46310000  0.18600000  1.0 -0.0588889129
N  N39  1  0.98790000  0.17390000  0.45100000  1.0 -0.0588889129
N  N40  1  0.27710000  0.82610000  0.81400000  1.0 -0.0588889129
N  N41  1  0.46310000  0.18600000  0.01210000  1.0 -0.0588889129
N  N42  1  0.53690000  0.54900000  0.72290000  1.0 -0.0588889129
N  N43  1  0.82610000  0.81400000  0.27710000  1.0 -0.0588889129
N  N44  1  0.17390000  0.45100000  0.98790000  1.0 -0.0588889129
N  N45  1  0.81400000  0.27710000  0.82610000  1.0 -0.0588889129
N  N46  1  0.45100000  0.98790000  0.17390000  1.0 -0.0588889129
N  N47  1  0.18600000  0.01210000  0.46310000  1.0 -0.0588889129
N  N48  1  0.54900000  0.72290000  0.53690000  1.0 -0.0588889129
N  N49  1  0.25400000  0.24620000  0.50020000  1.0 -0.1271080356
N  N50  1  0.25400000  0.75380000  0.00780000  1.0 -0.1271080356
N  N51  1  0.74600000  0.24620000  0.99220000  1.0 -0.1271080356
N  N52  1  0.74600000  0.75380000  0.49980000  1.0 -0.1271080356
N  N53  1  0.00780000  0.25400000  0.75380000  1.0 -0.1271080356
N  N54  1  0.50020000  0.25400000  0.24620000  1.0 -0.1271080356
N  N55  1  0.49980000  0.74600000  0.75380000  1.0 -0.1271080356
N  N56  1  0.99220000  0.74600000  0.24620000  1.0 -0.1271080356
N  N57  1  0.75380000  0.49980000  0.74600000  1.0 -0.1271080356
N  N58  1  0.24620000  0.99220000  0.74600000  1.0 -0.1271080356
N  N59  1  0.75380000  0.00780000  0.25400000  1.0 -0.1271080356
N  N60  1  0.24620000  0.50020000  0.25400000  1.0 -0.1271080356
N  N61  1  0.49980000  0.75380000  0.74600000  1.0 -0.1271080356
N  N62  1  0.99220000  0.24620000  0.74600000  1.0 -0.1271080356
N  N63  1  0.00780000  0.75380000  0.25400000  1.0 -0.1271080356
N  N64  1  0.50020000  0.24620000  0.25400000  1.0 -0.1271080356
N  N65  1  0.24620000  0.74600000  0.99220000  1.0 -0.1271080356
N  N66  1  0.75380000  0.74600000  0.49980000  1.0 -0.1271080356
N  N67  1  0.24620000  0.25400000  0.50020000  1.0 -0.1271080356
N  N68  1  0.75380000  0.25400000  0.00780000  1.0 -0.1271080356
N  N69  1  0.25400000  0.50020000  0.24620000  1.0 -0.1271080356
N  N70  1  0.25400000  0.00780000  0.75380000  1.0 -0.1271080356
N  N71  1  0.74600000  0.99220000  0.24620000  1.0 -0.1271080356
N  N72  1  0.74600000  0.49980000  0.75380000  1.0 -0.1271080356
N  N73  1  0.54090000  0.54090000  0.71240000  1.0 -0.0791410538
N  N74  1  0.17150000  0.45910000  0.00000000  1.0 -0.0791410538
N  N75  1  0.45910000  0.17150000  0.00000000  1.0 -0.0791410538
N  N76  1  0.82850000  0.82850000  0.28760000  1.0 -0.0791410538
N  N77  1  0.00000000  0.17150000  0.45910000  1.0 -0.0791410538
N  N78  1  0.71240000  0.54090000  0.54090000  1.0 -0.0791410538
N  N79  1  0.28760000  0.82850000  0.82850000  1.0 -0.0791410538
N  N80  1  0.00000000  0.45910000  0.17150000  1.0 -0.0791410538
N  N81  1  0.82850000  0.28760000  0.82850000  1.0 -0.0791410538
N  N82  1  0.17150000  0.00000000  0.45910000  1.0 -0.0791410538
N  N83  1  0.45910000  0.00000000  0.17150000  1.0 -0.0791410538
N  N84  1  0.54090000  0.71240000  0.54090000  1.0 -0.0791410538
N  N85  1  0.28760000  0.45910000  0.45910000  1.0 -0.0791410538
N  N86  1  0.00000000  0.54090000  0.82850000  1.0 -0.0791410538
N  N87  1  0.00000000  0.82850000  0.54090000  1.0 -0.0791410538
N  N88  1  0.71240000  0.17150000  0.17150000  1.0 -0.0791410538
N  N89  1  0.54090000  0.82850000  0.00000000  1.0 -0.0791410538
N  N90  1  0.45910000  0.45910000  0.28760000  1.0 -0.0791410538
N  N91  1  0.17150000  0.17150000  0.71240000  1.0 -0.0791410538
N  N92  1  0.82850000  0.54090000  0.00000000  1.0 -0.0791410538
N  N93  1  0.17150000  0.71240000  0.17150000  1.0 -0.0791410538
N  N94  1  0.54090000  0.00000000  0.82850000  1.0 -0.0791410538
N  N95  1  0.82850000  0.00000000  0.54090000  1.0 -0.0791410538
N  N96  1  0.45910000  0.28760000  0.45910000  1.0 -0.0791410538
O  O1  1  0.59230000  0.73015000  0.78359000  1.0 -0.541093412
O  O2  1  0.67881000  0.77362000  0.82751000  1.0 -0.5069912539
O  O3  1  0.56730000  0.48370000  0.67620000  1.0 -0.2388325493
O  O4  1  0.57200000  0.48200000  0.74160000  1.0 -0.400732224
O  O5  1  0.05344000  0.26985000  0.86215000  1.0 -0.541093412
O  O6  1  0.05389000  0.22638000  0.90519000  1.0 -0.5069912539
O  O7  1  0.19250000  0.51630000  0.08360000  1.0 -0.2388325493
O  O8  1  0.25960000  0.51800000  0.09000000  1.0 -0.400732224
O  O9  1  0.40770000  0.19129000  0.13785000  1.0 -0.541093412
O  O10  1  0.32119000  0.14870000  0.09481000  1.0 -0.5069912539
O  O11  1  0.43270000  0.10890000  0.91640000  1.0 -0.2388325493
O  O12  1  0.42800000  0.16960000  0.91000000  1.0 -0.400732224
O  O13  1  0.94656000  0.80871000  0.21641000  1.0 -0.541093412
O  O14  1  0.94611000  0.85130000  0.17249000  1.0 -0.5069912539
O  O15  1  0.80750000  0.89110000  0.32380000  1.0 -0.2388325493
O  O16  1  0.74040000  0.83040000  0.25840000  1.0 -0.400732224
O  O17  1  0.86215000  0.05344000  0.26985000  1.0 -0.541093412
O  O18  1  0.90519000  0.05389000  0.22638000  1.0 -0.5069912539
O  O19  1  0.08360000  0.19250000  0.51630000  1.0 -0.2388325493
O  O20  1  0.09000000  0.25960000  0.51800000  1.0 -0.400732224
O  O21  1  0.78359000  0.59230000  0.73015000  1.0 -0.541093412
O  O22  1  0.82751000  0.67881000  0.77362000  1.0 -0.5069912539
O  O23  1  0.67620000  0.56730000  0.48370000  1.0 -0.2388325493
O  O24  1  0.74160000  0.57200000  0.48200000  1.0 -0.400732224
O  O25  1  0.21641000  0.94656000  0.80871000  1.0 -0.541093412
O  O26  1  0.17249000  0.94611000  0.85130000  1.0 -0.5069912539
O  O27  1  0.32380000  0.80750000  0.89110000  1.0 -0.2388325493
O  O28  1  0.25840000  0.74040000  0.83040000  1.0 -0.400732224
O  O29  1  0.13785000  0.40770000  0.19129000  1.0 -0.541093412
O  O30  1  0.09481000  0.32119000  0.14870000  1.0 -0.5069912539
O  O31  1  0.91640000  0.43270000  0.10890000  1.0 -0.2388325493
O  O32  1  0.91000000  0.42800000  0.16960000  1.0 -0.400732224
O  O33  1  0.80871000  0.21641000  0.94656000  1.0 -0.541093412
O  O34  1  0.85130000  0.17249000  0.94611000  1.0 -0.5069912539
O  O35  1  0.89110000  0.32380000  0.80750000  1.0 -0.2388325493
O  O36  1  0.83040000  0.25840000  0.74040000  1.0 -0.400732224
O  O37  1  0.19129000  0.13785000  0.40770000  1.0 -0.541093412
O  O38  1  0.14870000  0.09481000  0.32119000  1.0 -0.5069912539
O  O39  1  0.10890000  0.91640000  0.43270000  1.0 -0.2388325493
O  O40  1  0.16960000  0.91000000  0.42800000  1.0 -0.400732224
O  O41  1  0.26985000  0.86215000  0.05344000  1.0 -0.541093412
O  O42  1  0.22638000  0.90519000  0.05389000  1.0 -0.5069912539
O  O43  1  0.51630000  0.08360000  0.19250000  1.0 -0.2388325493
O  O44  1  0.51800000  0.09000000  0.25960000  1.0 -0.400732224
O  O45  1  0.73015000  0.78359000  0.59230000  1.0 -0.541093412
O  O46  1  0.77362000  0.82751000  0.67881000  1.0 -0.5069912539
O  O47  1  0.48370000  0.67620000  0.56730000  1.0 -0.2388325493
O  O48  1  0.48200000  0.74160000  0.57200000  1.0 -0.400732224
O  O49  1  0.21641000  0.26985000  0.40770000  1.0 -0.541093412
O  O50  1  0.17249000  0.22638000  0.32119000  1.0 -0.5069912539
O  O51  1  0.32380000  0.51630000  0.43270000  1.0 -0.2388325493
O  O52  1  0.25840000  0.51800000  0.42800000  1.0 -0.400732224
O  O53  1  0.13785000  0.73015000  0.94656000  1.0 -0.541093412
O  O54  1  0.09481000  0.77362000  0.94611000  1.0 -0.5069912539
O  O55  1  0.91640000  0.48370000  0.80750000  1.0 -0.2388325493
O  O56  1  0.91000000  0.48200000  0.74040000  1.0 -0.400732224
O  O57  1  0.86215000  0.80871000  0.59230000  1.0 -0.541093412
O  O58  1  0.90519000  0.85130000  0.67881000  1.0 -0.5069912539
O  O59  1  0.08360000  0.89110000  0.56730000  1.0 -0.2388325493
O  O60  1  0.09000000  0.83040000  0.57200000  1.0 -0.400732224
O  O61  1  0.78359000  0.19129000  0.05344000  1.0 -0.541093412
O  O62  1  0.82751000  0.14870000  0.05389000  1.0 -0.5069912539
O  O63  1  0.67620000  0.10890000  0.19250000  1.0 -0.2388325493
O  O64  1  0.74160000  0.16960000  0.25960000  1.0 -0.400732224
O  O65  1  0.73015000  0.94656000  0.13785000  1.0 -0.541093412
O  O66  1  0.77362000  0.94611000  0.09481000  1.0 -0.5069912539
O  O67  1  0.48370000  0.80750000  0.91640000  1.0 -0.2388325493
O  O68  1  0.48200000  0.74040000  0.91000000  1.0 -0.400732224
O  O69  1  0.26985000  0.40770000  0.21641000  1.0 -0.541093412
O  O70  1  0.22638000  0.32119000  0.17249000  1.0 -0.5069912539
O  O71  1  0.51630000  0.43270000  0.32380000  1.0 -0.2388325493
O  O72  1  0.51800000  0.42800000  0.25840000  1.0 -0.400732224
O  O73  1  0.19129000  0.05344000  0.78359000  1.0 -0.541093412
O  O74  1  0.14870000  0.05389000  0.82751000  1.0 -0.5069912539
O  O75  1  0.10890000  0.19250000  0.67620000  1.0 -0.2388325493
O  O76  1  0.16960000  0.25960000  0.74160000  1.0 -0.400732224
O  O77  1  0.80871000  0.59230000  0.86215000  1.0 -0.541093412
O  O78  1  0.85130000  0.67881000  0.90519000  1.0 -0.5069912539
O  O79  1  0.89110000  0.56730000  0.08360000  1.0 -0.2388325493
O  O80  1  0.83040000  0.57200000  0.09000000  1.0 -0.400732224
O  O81  1  0.05344000  0.78359000  0.19129000  1.0 -0.541093412
O  O82  1  0.05389000  0.82751000  0.14870000  1.0 -0.5069912539
O  O83  1  0.19250000  0.67620000  0.10890000  1.0 -0.2388325493
O  O84  1  0.25960000  0.74160000  0.16960000  1.0 -0.400732224
O  O85  1  0.59230000  0.86215000  0.80871000  1.0 -0.541093412
O  O86  1  0.67881000  0.90519000  0.85130000  1.0 -0.5069912539
O  O87  1  0.56730000  0.08360000  0.89110000  1.0 -0.2388325493
O  O88  1  0.57200000  0.09000000  0.83040000  1.0 -0.400732224
O  O89  1  0.94656000  0.13785000  0.73015000  1.0 -0.541093412
O  O90  1  0.94611000  0.09481000  0.77362000  1.0 -0.5069912539
O  O91  1  0.80750000  0.91640000  0.48370000  1.0 -0.2388325493
O  O92  1  0.74040000  0.91000000  0.48200000  1.0 -0.400732224
O  O93  1  0.40770000  0.21641000  0.26985000  1.0 -0.541093412
O  O94  1  0.32119000  0.17249000  0.22638000  1.0 -0.5069912539
O  O95  1  0.43270000  0.32380000  0.51630000  1.0 -0.2388325493
O  O96  1  0.42800000  0.25840000  0.51800000  1.0 -0.400732224
O  O97  1  0.40770000  0.26985000  0.21641000  1.0 -0.541093412
O  O98  1  0.32119000  0.22638000  0.17249000  1.0 -0.5069912539
O  O99  1  0.43270000  0.51630000  0.32380000  1.0 -0.2388325493
O  O100  1  0.42800000  0.51800000  0.25840000  1.0 -0.400732224
O  O101  1  0.94656000  0.73015000  0.13785000  1.0 -0.541093412
O  O102  1  0.94611000  0.77362000  0.09481000  1.0 -0.5069912539
O  O103  1  0.80750000  0.48370000  0.91640000  1.0 -0.2388325493
O  O104  1  0.74040000  0.48200000  0.91000000  1.0 -0.400732224
O  O105  1  0.59230000  0.80871000  0.86215000  1.0 -0.541093412
O  O106  1  0.67881000  0.85130000  0.90519000  1.0 -0.5069912539
O  O107  1  0.56730000  0.89110000  0.08360000  1.0 -0.2388325493
O  O108  1  0.57200000  0.83040000  0.09000000  1.0 -0.400732224
O  O109  1  0.05344000  0.19129000  0.78359000  1.0 -0.541093412
O  O110  1  0.05389000  0.14870000  0.82751000  1.0 -0.5069912539
O  O111  1  0.19250000  0.10890000  0.67620000  1.0 -0.2388325493
O  O112  1  0.25960000  0.16960000  0.74160000  1.0 -0.400732224
O  O113  1  0.13785000  0.94656000  0.73015000  1.0 -0.541093412
O  O114  1  0.09481000  0.94611000  0.77362000  1.0 -0.5069912539
O  O115  1  0.91640000  0.80750000  0.48370000  1.0 -0.2388325493
O  O116  1  0.91000000  0.74040000  0.48200000  1.0 -0.400732224
O  O117  1  0.21641000  0.40770000  0.26985000  1.0 -0.541093412
O  O118  1  0.17249000  0.32119000  0.22638000  1.0 -0.5069912539
O  O119  1  0.32380000  0.43270000  0.51630000  1.0 -0.2388325493
O  O120  1  0.25840000  0.42800000  0.51800000  1.0 -0.400732224
O  O121  1  0.78359000  0.05344000  0.19129000  1.0 -0.541093412
O  O122  1  0.82751000  0.05389000  0.14870000  1.0 -0.5069912539
O  O123  1  0.67620000  0.19250000  0.10890000  1.0 -0.2388325493
O  O124  1  0.74160000  0.25960000  0.16960000  1.0 -0.400732224
O  O125  1  0.86215000  0.59230000  0.80871000  1.0 -0.541093412
O  O126  1  0.90519000  0.67881000  0.85130000  1.0 -0.5069912539
O  O127  1  0.08360000  0.56730000  0.89110000  1.0 -0.2388325493
O  O128  1  0.09000000  0.57200000  0.83040000  1.0 -0.400732224
O  O129  1  0.19129000  0.78359000  0.05344000  1.0 -0.541093412
O  O130  1  0.14870000  0.82751000  0.05389000  1.0 -0.5069912539
O  O131  1  0.10890000  0.67620000  0.19250000  1.0 -0.2388325493
O  O132  1  0.16960000  0.74160000  0.25960000  1.0 -0.400732224
O  O133  1  0.80871000  0.86215000  0.59230000  1.0 -0.541093412
O  O134  1  0.85130000  0.90519000  0.67881000  1.0 -0.5069912539
O  O135  1  0.89110000  0.08360000  0.56730000  1.0 -0.2388325493
O  O136  1  0.83040000  0.09000000  0.57200000  1.0 -0.400732224
O  O137  1  0.73015000  0.13785000  0.94656000  1.0 -0.541093412
O  O138  1  0.77362000  0.09481000  0.94611000  1.0 -0.5069912539
O  O139  1  0.48370000  0.91640000  0.80750000  1.0 -0.2388325493
O  O140  1  0.48200000  0.91000000  0.74040000  1.0 -0.400732224
O  O141  1  0.26985000  0.21641000  0.40770000  1.0 -0.541093412
O  O142  1  0.22638000  0.17249000  0.32119000  1.0 -0.5069912539
O  O143  1  0.51630000  0.32380000  0.43270000  1.0 -0.2388325493
O  O144  1  0.51800000  0.25840000  0.42800000  1.0 -0.400732224
O  O145  1  0.78359000  0.73015000  0.59230000  1.0 -0.541093412
O  O146  1  0.82751000  0.77362000  0.67881000  1.0 -0.5069912539
O  O147  1  0.67620000  0.48370000  0.56730000  1.0 -0.2388325493
O  O148  1  0.74160000  0.48200000  0.57200000  1.0 -0.400732224
O  O149  1  0.86215000  0.26985000  0.05344000  1.0 -0.541093412
O  O150  1  0.90519000  0.22638000  0.05389000  1.0 -0.5069912539
O  O151  1  0.08360000  0.51630000  0.19250000  1.0 -0.2388325493
O  O152  1  0.09000000  0.51800000  0.25960000  1.0 -0.400732224
O  O153  1  0.13785000  0.19129000  0.40770000  1.0 -0.541093412
O  O154  1  0.09481000  0.14870000  0.32119000  1.0 -0.5069912539
O  O155  1  0.91640000  0.10890000  0.43270000  1.0 -0.2388325493
O  O156  1  0.91000000  0.16960000  0.42800000  1.0 -0.400732224
O  O157  1  0.21641000  0.80871000  0.94656000  1.0 -0.541093412
O  O158  1  0.17249000  0.85130000  0.94611000  1.0 -0.5069912539
O  O159  1  0.32380000  0.89110000  0.80750000  1.0 -0.2388325493
O  O160  1  0.25840000  0.83040000  0.74040000  1.0 -0.400732224
O  O161  1  0.26985000  0.05344000  0.86215000  1.0 -0.541093412
O  O162  1  0.22638000  0.05389000  0.90519000  1.0 -0.5069912539
O  O163  1  0.51630000  0.19250000  0.08360000  1.0 -0.2388325493
O  O164  1  0.51800000  0.25960000  0.09000000  1.0 -0.400732224
O  O165  1  0.73015000  0.59230000  0.78359000  1.0 -0.541093412
O  O166  1  0.77362000  0.67881000  0.82751000  1.0 -0.5069912539
O  O167  1  0.48370000  0.56730000  0.67620000  1.0 -0.2388325493
O  O168  1  0.48200000  0.57200000  0.74160000  1.0 -0.400732224
O  O169  1  0.80871000  0.94656000  0.21641000  1.0 -0.541093412
O  O170  1  0.85130000  0.94611000  0.17249000  1.0 -0.5069912539
O  O171  1  0.89110000  0.80750000  0.32380000  1.0 -0.2388325493
O  O172  1  0.83040000  0.74040000  0.25840000  1.0 -0.400732224
O  O173  1  0.19129000  0.40770000  0.13785000  1.0 -0.541093412
O  O174  1  0.14870000  0.32119000  0.09481000  1.0 -0.5069912539
O  O175  1  0.10890000  0.43270000  0.91640000  1.0 -0.2388325493
O  O176  1  0.16960000  0.42800000  0.91000000  1.0 -0.400732224
O  O177  1  0.94656000  0.21641000  0.80871000  1.0 -0.541093412
O  O178  1  0.94611000  0.17249000  0.85130000  1.0 -0.5069912539
O  O179  1  0.80750000  0.32380000  0.89110000  1.0 -0.2388325493
O  O180  1  0.74040000  0.25840000  0.83040000  1.0 -0.400732224
O  O181  1  0.40770000  0.13785000  0.19129000  1.0 -0.541093412
O  O182  1  0.32119000  0.09481000  0.14870000  1.0 -0.5069912539
O  O183  1  0.43270000  0.91640000  0.10890000  1.0 -0.2388325493
O  O184  1  0.42800000  0.91000000  0.16960000  1.0 -0.400732224
O  O185  1  0.05344000  0.86215000  0.26985000  1.0 -0.541093412
O  O186  1  0.05389000  0.90519000  0.22638000  1.0 -0.5069912539
O  O187  1  0.19250000  0.08360000  0.51630000  1.0 -0.2388325493
O  O188  1  0.25960000  0.09000000  0.51800000  1.0 -0.400732224
O  O189  1  0.59230000  0.78359000  0.73015000  1.0 -0.541093412
O  O190  1  0.67881000  0.82751000  0.77362000  1.0 -0.5069912539
O  O191  1  0.56730000  0.67620000  0.48370000  1.0 -0.2388325493
O  O192  1  0.57200000  0.74160000  0.48200000  1.0 -0.400732224
