# DDEC6 charges by PACMAN v1.1 (https://github.com/mtap-research/PACMAN-charge/)
data_JENVIL_ASR_pacman
_symmetry_space_group_name_H-M   'P 1'
_cell_length_a   32.72780000
_cell_length_b   32.72780000
_cell_length_c   27.28710000
_cell_angle_alpha   90.00000000
_cell_angle_beta   90.00000000
_cell_angle_gamma   120.00000000
_symmetry_Int_Tables_number   1
_chemical_formula_structural   Zr3H15C29O16
_chemical_formula_sum   'Zr36 H180 C348 O192'
_cell_volume   25311.71892484
_cell_formula_units_Z   12
loop_
 _symmetry_equiv_pos_site_id
 _symmetry_equiv_pos_as_xyz
  1  'x, y, z'
loop_
 _atom_site_type_symbol
 _atom_site_label
 _atom_site_symmetry_multiplicity
 _atom_site_fract_x
 _atom_site_fract_y
 _atom_site_fract_z
 _atom_site_occupancy
 _atom_site_charge
Zr  Zr1  1  0.51851000  0.92901000  0.31480000  1.0 2.2710851482
Zr  Zr2  1  0.07099000  0.58950000  0.31480000  1.0 2.2710851482
Zr  Zr3  1  0.41050000  0.48149000  0.31480000  1.0 2.2710851482
Zr  Zr4  1  0.48149000  0.07099000  0.81480000  1.0 2.2710851482
Zr  Zr5  1  0.92901000  0.41050000  0.81480000  1.0 2.2710851482
Zr  Zr6  1  0.58950000  0.51851000  0.81480000  1.0 2.2710851482
Zr  Zr7  1  0.92901000  0.51851000  0.68520000  1.0 2.2710851482
Zr  Zr8  1  0.58950000  0.07099000  0.68520000  1.0 2.2710851482
Zr  Zr9  1  0.48149000  0.41050000  0.68520000  1.0 2.2710851482
Zr  Zr10  1  0.07099000  0.48149000  0.18520000  1.0 2.2710851482
Zr  Zr11  1  0.41050000  0.92901000  0.18520000  1.0 2.2710851482
Zr  Zr12  1  0.51851000  0.58950000  0.18520000  1.0 2.2767253948
Zr  Zr13  1  0.48149000  0.07099000  0.68520000  1.0 2.2710851482
Zr  Zr14  1  0.92901000  0.41050000  0.68520000  1.0 2.2710851482
Zr  Zr15  1  0.58950000  0.51851000  0.68520000  1.0 2.2710851482
Zr  Zr16  1  0.51851000  0.92901000  0.18520000  1.0 2.2710851482
Zr  Zr17  1  0.07099000  0.58950000  0.18520000  1.0 2.2710851482
Zr  Zr18  1  0.41050000  0.48149000  0.18520000  1.0 2.2710851482
Zr  Zr19  1  0.07099000  0.48149000  0.31480000  1.0 2.2710851482
Zr  Zr20  1  0.41050000  0.92901000  0.31480000  1.0 2.2710851482
Zr  Zr21  1  0.51851000  0.58950000  0.31480000  1.0 2.2767253948
Zr  Zr22  1  0.92901000  0.51851000  0.81480000  1.0 2.2710851482
Zr  Zr23  1  0.58950000  0.07099000  0.81480000  1.0 2.2710851482
Zr  Zr24  1  0.48149000  0.41050000  0.81480000  1.0 2.2710851482
Zr  Zr25  1  0.50782000  0.01565000  0.25000000  1.0 2.3608394933
Zr  Zr26  1  0.42063000  0.84127000  0.25000000  1.0 2.3809294535
Zr  Zr27  1  0.98435000  0.49218000  0.25000000  1.0 2.3650662733
Zr  Zr28  1  0.15873000  0.57937000  0.25000000  1.0 2.3809294535
Zr  Zr29  1  0.50782000  0.49218000  0.25000000  1.0 2.3608394933
Zr  Zr30  1  0.42063000  0.57937000  0.25000000  1.0 2.3809294535
Zr  Zr31  1  0.49218000  0.98435000  0.75000000  1.0 2.3608394933
Zr  Zr32  1  0.57937000  0.15873000  0.75000000  1.0 2.3809294535
Zr  Zr33  1  0.01565000  0.50782000  0.75000000  1.0 2.3608394933
Zr  Zr34  1  0.84127000  0.42063000  0.75000000  1.0 2.3809294535
Zr  Zr35  1  0.49218000  0.50782000  0.75000000  1.0 2.3608394933
Zr  Zr36  1  0.57937000  0.42063000  0.75000000  1.0 2.3809294535
H  H1  1  0.63060000  0.13365000  0.31813000  1.0 0.1274250568
H  H2  1  0.68942000  0.19489000  0.36176000  1.0 0.1086638837
H  H3  1  0.68217000  0.10331000  0.46454000  1.0 0.1086638837
H  H4  1  0.62407000  0.04166000  0.41900000  1.0 0.12258727
H  H5  1  0.70125000  0.17576000  0.51285000  1.0 0.1086638837
H  H6  1  0.81671000  0.30545000  0.58659000  1.0 0.1086638837
H  H7  1  0.86635000  0.49695000  0.31813000  1.0 0.1274250568
H  H8  1  0.80511000  0.49453000  0.36176000  1.0 0.1086638837
H  H9  1  0.89669000  0.57886000  0.46454000  1.0 0.1086638837
H  H10  1  0.95834000  0.58241000  0.41900000  1.0 0.12258727
H  H11  1  0.82424000  0.52549000  0.51285000  1.0 0.1086638837
H  H12  1  0.69455000  0.51125000  0.58659000  1.0 0.1086638837
H  H13  1  0.50305000  0.36940000  0.31813000  1.0 0.1274250568
H  H14  1  0.50547000  0.31058000  0.36176000  1.0 0.1086638837
H  H15  1  0.42114000  0.31783000  0.46454000  1.0 0.1086638837
H  H16  1  0.41759000  0.37593000  0.41900000  1.0 0.12258727
H  H17  1  0.47451000  0.29875000  0.51285000  1.0 0.1086638837
H  H18  1  0.48875000  0.18329000  0.58659000  1.0 0.1086638837
H  H19  1  0.36940000  0.86635000  0.81813000  1.0 0.1274250568
H  H20  1  0.31058000  0.80511000  0.86176000  1.0 0.1086638837
H  H21  1  0.31783000  0.89669000  0.96454000  1.0 0.1086638837
H  H22  1  0.37593000  0.95834000  0.91900000  1.0 0.12258727
H  H23  1  0.29875000  0.82424000  0.01285000  1.0 0.1086638837
H  H24  1  0.18329000  0.69455000  0.08659000  1.0 0.1086638837
H  H25  1  0.13365000  0.50305000  0.81813000  1.0 0.1274250568
H  H26  1  0.19489000  0.50547000  0.86176000  1.0 0.1086638837
H  H27  1  0.10331000  0.42114000  0.96454000  1.0 0.1086638837
H  H28  1  0.04166000  0.41759000  0.91900000  1.0 0.12258727
H  H29  1  0.17576000  0.47451000  0.01285000  1.0 0.1086638837
H  H30  1  0.30545000  0.48875000  0.08659000  1.0 0.1086638837
H  H31  1  0.49695000  0.63060000  0.81813000  1.0 0.1274250568
H  H32  1  0.49453000  0.68942000  0.86176000  1.0 0.1086638837
H  H33  1  0.57886000  0.68217000  0.96454000  1.0 0.1086638837
H  H34  1  0.58241000  0.62407000  0.91900000  1.0 0.12258727
H  H35  1  0.52549000  0.70125000  0.01285000  1.0 0.1086638837
H  H36  1  0.51125000  0.81671000  0.08659000  1.0 0.1086638837
H  H37  1  0.13365000  0.63060000  0.68187000  1.0 0.1274250568
H  H38  1  0.19489000  0.68942000  0.63824000  1.0 0.1086638837
H  H39  1  0.10331000  0.68217000  0.53546000  1.0 0.1086638837
H  H40  1  0.04166000  0.62407000  0.58100000  1.0 0.12258727
H  H41  1  0.17576000  0.70125000  0.48715000  1.0 0.1086638837
H  H42  1  0.30545000  0.81671000  0.41341000  1.0 0.1086638837
H  H43  1  0.49695000  0.86635000  0.68187000  1.0 0.1274250568
H  H44  1  0.49453000  0.80511000  0.63824000  1.0 0.1086638837
H  H45  1  0.57886000  0.89669000  0.53546000  1.0 0.1086638837
H  H46  1  0.58241000  0.95834000  0.58100000  1.0 0.12258727
H  H47  1  0.52549000  0.82424000  0.48715000  1.0 0.1086638837
H  H48  1  0.51125000  0.69455000  0.41341000  1.0 0.1086638837
H  H49  1  0.36940000  0.50305000  0.68187000  1.0 0.1274250568
H  H50  1  0.31058000  0.50547000  0.63824000  1.0 0.1086638837
H  H51  1  0.31783000  0.42114000  0.53546000  1.0 0.1086638837
H  H52  1  0.37593000  0.41759000  0.58100000  1.0 0.12258727
H  H53  1  0.29875000  0.47451000  0.48715000  1.0 0.1086638837
H  H54  1  0.18329000  0.48875000  0.41341000  1.0 0.1086638837
H  H55  1  0.86635000  0.36940000  0.18187000  1.0 0.1274250568
H  H56  1  0.80511000  0.31058000  0.13824000  1.0 0.1086638837
H  H57  1  0.89669000  0.31783000  0.03546000  1.0 0.1086638837
H  H58  1  0.95834000  0.37593000  0.08100000  1.0 0.12258727
H  H59  1  0.82424000  0.29875000  0.98715000  1.0 0.1086638837
H  H60  1  0.69455000  0.18329000  0.91341000  1.0 0.1086638837
H  H61  1  0.50305000  0.13365000  0.18187000  1.0 0.1274250568
H  H62  1  0.50547000  0.19489000  0.13824000  1.0 0.1086638837
H  H63  1  0.42114000  0.10331000  0.03546000  1.0 0.1086638837
H  H64  1  0.41759000  0.04166000  0.08100000  1.0 0.12258727
H  H65  1  0.47451000  0.17576000  0.98715000  1.0 0.1086638837
H  H66  1  0.48875000  0.30545000  0.91341000  1.0 0.1086638837
H  H67  1  0.63060000  0.49695000  0.18187000  1.0 0.1274250568
H  H68  1  0.68942000  0.49453000  0.13824000  1.0 0.1086638837
H  H69  1  0.68217000  0.57886000  0.03546000  1.0 0.1086638837
H  H70  1  0.62407000  0.58241000  0.08100000  1.0 0.12258727
H  H71  1  0.70125000  0.52549000  0.98715000  1.0 0.1086638837
H  H72  1  0.81671000  0.51125000  0.91341000  1.0 0.1086638837
H  H73  1  0.36940000  0.86635000  0.68187000  1.0 0.1274250568
H  H74  1  0.31058000  0.80511000  0.63824000  1.0 0.1086638837
H  H75  1  0.31783000  0.89669000  0.53546000  1.0 0.1086638837
H  H76  1  0.37593000  0.95834000  0.58100000  1.0 0.12258727
H  H77  1  0.29875000  0.82424000  0.48715000  1.0 0.1086638837
H  H78  1  0.18329000  0.69455000  0.41341000  1.0 0.1086638837
H  H79  1  0.13365000  0.50305000  0.68187000  1.0 0.1274250568
H  H80  1  0.19489000  0.50547000  0.63824000  1.0 0.1086638837
H  H81  1  0.10331000  0.42114000  0.53546000  1.0 0.1086638837
H  H82  1  0.04166000  0.41759000  0.58100000  1.0 0.12258727
H  H83  1  0.17576000  0.47451000  0.48715000  1.0 0.1086638837
H  H84  1  0.30545000  0.48875000  0.41341000  1.0 0.1086638837
H  H85  1  0.49695000  0.63060000  0.68187000  1.0 0.1274250568
H  H86  1  0.49453000  0.68942000  0.63824000  1.0 0.1086638837
H  H87  1  0.57886000  0.68217000  0.53546000  1.0 0.1086638837
H  H88  1  0.58241000  0.62407000  0.58100000  1.0 0.12258727
H  H89  1  0.52549000  0.70125000  0.48715000  1.0 0.1086638837
H  H90  1  0.51125000  0.81671000  0.41341000  1.0 0.1086638837
H  H91  1  0.63060000  0.13365000  0.18187000  1.0 0.1274250568
H  H92  1  0.68942000  0.19489000  0.13824000  1.0 0.1086638837
H  H93  1  0.68217000  0.10331000  0.03546000  1.0 0.1086638837
H  H94  1  0.62407000  0.04166000  0.08100000  1.0 0.12258727
H  H95  1  0.70125000  0.17576000  0.98715000  1.0 0.1086638837
H  H96  1  0.81671000  0.30545000  0.91341000  1.0 0.1086638837
H  H97  1  0.86635000  0.49695000  0.18187000  1.0 0.1274250568
H  H98  1  0.80511000  0.49453000  0.13824000  1.0 0.1086638837
H  H99  1  0.89669000  0.57886000  0.03546000  1.0 0.1086638837
H  H100  1  0.95834000  0.58241000  0.08100000  1.0 0.12258727
H  H101  1  0.82424000  0.52549000  0.98715000  1.0 0.1086638837
H  H102  1  0.69455000  0.51125000  0.91341000  1.0 0.1086638837
H  H103  1  0.50305000  0.36940000  0.18187000  1.0 0.1274250568
H  H104  1  0.50547000  0.31058000  0.13824000  1.0 0.1086638837
H  H105  1  0.42114000  0.31783000  0.03546000  1.0 0.1086638837
H  H106  1  0.41759000  0.37593000  0.08100000  1.0 0.12258727
H  H107  1  0.47451000  0.29875000  0.98715000  1.0 0.1086638837
H  H108  1  0.48875000  0.18329000  0.91341000  1.0 0.1086638837
H  H109  1  0.86635000  0.36940000  0.31813000  1.0 0.1274250568
H  H110  1  0.80511000  0.31058000  0.36176000  1.0 0.1086638837
H  H111  1  0.89669000  0.31783000  0.46454000  1.0 0.1086638837
H  H112  1  0.95834000  0.37593000  0.41900000  1.0 0.12258727
H  H113  1  0.82424000  0.29875000  0.51285000  1.0 0.1086638837
H  H114  1  0.69455000  0.18329000  0.58659000  1.0 0.1086638837
H  H115  1  0.50305000  0.13365000  0.31813000  1.0 0.1274250568
H  H116  1  0.50547000  0.19489000  0.36176000  1.0 0.1086638837
H  H117  1  0.42114000  0.10331000  0.46454000  1.0 0.1086638837
H  H118  1  0.41759000  0.04166000  0.41900000  1.0 0.12258727
H  H119  1  0.47451000  0.17576000  0.51285000  1.0 0.1086638837
H  H120  1  0.48875000  0.30545000  0.58659000  1.0 0.1086638837
H  H121  1  0.63060000  0.49695000  0.31813000  1.0 0.1274250568
H  H122  1  0.68942000  0.49453000  0.36176000  1.0 0.1086638837
H  H123  1  0.68217000  0.57886000  0.46454000  1.0 0.1086638837
H  H124  1  0.62407000  0.58241000  0.41900000  1.0 0.12258727
H  H125  1  0.70125000  0.52549000  0.51285000  1.0 0.1086638837
H  H126  1  0.81671000  0.51125000  0.58659000  1.0 0.1086638837
H  H127  1  0.13365000  0.63060000  0.81813000  1.0 0.1274250568
H  H128  1  0.19489000  0.68942000  0.86176000  1.0 0.1086638837
H  H129  1  0.10331000  0.68217000  0.96454000  1.0 0.1086638837
H  H130  1  0.04166000  0.62407000  0.91900000  1.0 0.12258727
H  H131  1  0.17576000  0.70125000  0.01285000  1.0 0.1086638837
H  H132  1  0.30545000  0.81671000  0.08659000  1.0 0.1086638837
H  H133  1  0.49695000  0.86635000  0.81813000  1.0 0.1274250568
H  H134  1  0.49453000  0.80511000  0.86176000  1.0 0.1086638837
H  H135  1  0.57886000  0.89669000  0.96454000  1.0 0.1086638837
H  H136  1  0.58241000  0.95834000  0.91900000  1.0 0.12258727
H  H137  1  0.52549000  0.82424000  0.01285000  1.0 0.1086638837
H  H138  1  0.51125000  0.69455000  0.08659000  1.0 0.1086638837
H  H139  1  0.36940000  0.50305000  0.81813000  1.0 0.1274250568
H  H140  1  0.31058000  0.50547000  0.86176000  1.0 0.1086638837
H  H141  1  0.31783000  0.42114000  0.96454000  1.0 0.1086638837
H  H142  1  0.37593000  0.41759000  0.91900000  1.0 0.12258727
H  H143  1  0.29875000  0.47451000  0.01285000  1.0 0.1086638837
H  H144  1  0.18329000  0.48875000  0.08659000  1.0 0.1086638837
H  H145  1  0.77107000  0.22893000  0.38701000  1.0 0.1086638837
H  H146  1  0.72937000  0.27063000  0.70185000  1.0 0.1274250568
H  H147  1  0.77107000  0.54213000  0.38701000  1.0 0.1086638837
H  H148  1  0.72937000  0.45874000  0.70185000  1.0 0.1274250568
H  H149  1  0.45787000  0.22893000  0.38701000  1.0 0.1086638837
H  H150  1  0.54126000  0.27063000  0.70185000  1.0 0.1274250568
H  H151  1  0.22893000  0.77107000  0.88701000  1.0 0.1086638837
H  H152  1  0.27063000  0.72937000  0.20185000  1.0 0.1274250568
H  H153  1  0.22893000  0.45787000  0.88701000  1.0 0.1086638837
H  H154  1  0.27063000  0.54126000  0.20185000  1.0 0.1274250568
H  H155  1  0.54213000  0.77107000  0.88701000  1.0 0.1086638837
H  H156  1  0.45874000  0.72937000  0.20185000  1.0 0.1274250568
H  H157  1  0.22893000  0.77107000  0.61299000  1.0 0.1086638837
H  H158  1  0.27063000  0.72937000  0.29815000  1.0 0.1274250568
H  H159  1  0.54213000  0.77107000  0.61299000  1.0 0.1086638837
H  H160  1  0.45874000  0.72937000  0.29815000  1.0 0.1274250568
H  H161  1  0.22893000  0.45787000  0.61299000  1.0 0.1086638837
H  H162  1  0.27063000  0.54126000  0.29815000  1.0 0.1274250568
H  H163  1  0.77107000  0.22893000  0.11299000  1.0 0.1086638837
H  H164  1  0.72937000  0.27063000  0.79815000  1.0 0.1274250568
H  H165  1  0.45787000  0.22893000  0.11299000  1.0 0.1086638837
H  H166  1  0.54126000  0.27063000  0.79815000  1.0 0.1274250568
H  H167  1  0.77107000  0.54213000  0.11299000  1.0 0.1086638837
H  H168  1  0.72937000  0.45874000  0.79815000  1.0 0.1274250568
H  H169  1  0.62741000  0.92574000  0.25000000  1.0 0.2092526563
H  H170  1  0.07426000  0.70167000  0.25000000  1.0 0.2092526563
H  H171  1  0.29833000  0.37259000  0.25000000  1.0 0.2092526563
H  H172  1  0.37259000  0.07426000  0.75000000  1.0 0.2092526563
H  H173  1  0.92574000  0.29833000  0.75000000  1.0 0.2092526563
H  H174  1  0.70167000  0.62741000  0.75000000  1.0 0.2092526563
H  H175  1  0.92574000  0.62741000  0.75000000  1.0 0.2092526563
H  H176  1  0.70167000  0.07426000  0.75000000  1.0 0.2092526563
H  H177  1  0.37259000  0.29833000  0.75000000  1.0 0.2092526563
H  H178  1  0.07426000  0.37259000  0.25000000  1.0 0.2092526563
H  H179  1  0.29833000  0.92574000  0.25000000  1.0 0.2092526563
H  H180  1  0.62741000  0.70167000  0.25000000  1.0 0.2092526563
C  C1  1  0.58460000  0.04228000  0.33424000  1.0 0.6291247255
C  C2  1  0.62202000  0.08139000  0.36402000  1.0 -0.0462570783
C  C3  1  0.64136000  0.12755000  0.34724000  1.0 -0.098341626
C  C4  1  0.67635000  0.16422000  0.37357000  1.0 -0.1598791963
C  C5  1  0.69256000  0.15595000  0.41791000  1.0 0.0683594338
C  C6  1  0.67227000  0.10953000  0.43494000  1.0 -0.1598791963
C  C7  1  0.63721000  0.07249000  0.40765000  1.0 -0.098341626
C  C8  1  0.73044000  0.19610000  0.44546000  1.0 0.0683594338
C  C9  1  0.72693000  0.19954000  0.49619000  1.0 -0.2109735178
C  C10  1  0.78800000  0.28476000  0.60124000  1.0 -0.1598791963
C  C11  1  0.77879000  0.29399000  0.64827000  1.0 -0.0278430244
C  C12  1  0.81572000  0.33754000  0.67376000  1.0 0.6291247255
C  C13  1  0.95772000  0.54232000  0.33424000  1.0 0.6291247255
C  C14  1  0.91861000  0.54063000  0.36402000  1.0 -0.0462570783
C  C15  1  0.87245000  0.51381000  0.34724000  1.0 -0.098341626
C  C16  1  0.83578000  0.51213000  0.37357000  1.0 -0.1598791963
C  C17  1  0.84405000  0.53661000  0.41791000  1.0 0.0683594338
C  C18  1  0.89047000  0.56274000  0.43494000  1.0 -0.1598791963
C  C19  1  0.92751000  0.56472000  0.40765000  1.0 -0.098341626
C  C20  1  0.80390000  0.53434000  0.44546000  1.0 0.0683594338
C  C21  1  0.80046000  0.52739000  0.49619000  1.0 -0.2109735178
C  C22  1  0.71524000  0.50324000  0.60124000  1.0 -0.1598791963
C  C23  1  0.70601000  0.48480000  0.64827000  1.0 -0.0278430244
C  C24  1  0.66246000  0.47818000  0.67376000  1.0 0.6291247255
C  C25  1  0.45768000  0.41540000  0.33424000  1.0 0.6239405892
C  C26  1  0.45937000  0.37798000  0.36402000  1.0 -0.0462570783
C  C27  1  0.48619000  0.35864000  0.34724000  1.0 -0.098341626
C  C28  1  0.48787000  0.32365000  0.37357000  1.0 -0.1598791963
C  C29  1  0.46339000  0.30744000  0.41791000  1.0 0.0683594338
C  C30  1  0.43726000  0.32773000  0.43494000  1.0 -0.1598791963
C  C31  1  0.43528000  0.36279000  0.40765000  1.0 -0.098341626
C  C32  1  0.46566000  0.26956000  0.44546000  1.0 0.0683594338
C  C33  1  0.47261000  0.27307000  0.49619000  1.0 -0.2109735178
C  C34  1  0.49676000  0.21200000  0.60124000  1.0 -0.1598791963
C  C35  1  0.51520000  0.22121000  0.64827000  1.0 -0.0278430244
C  C36  1  0.52182000  0.18428000  0.67376000  1.0 0.6291247255
C  C37  1  0.41540000  0.95772000  0.83424000  1.0 0.6239405892
C  C38  1  0.37798000  0.91861000  0.86402000  1.0 -0.0462570783
C  C39  1  0.35864000  0.87245000  0.84724000  1.0 -0.098341626
C  C40  1  0.32365000  0.83578000  0.87357000  1.0 -0.1598791963
C  C41  1  0.30744000  0.84405000  0.91791000  1.0 0.0683594338
C  C42  1  0.32773000  0.89047000  0.93494000  1.0 -0.1598791963
C  C43  1  0.36279000  0.92751000  0.90765000  1.0 -0.098341626
C  C44  1  0.26956000  0.80390000  0.94546000  1.0 0.0683594338
C  C45  1  0.27307000  0.80046000  0.99619000  1.0 -0.2109735178
C  C46  1  0.21200000  0.71524000  0.10124000  1.0 -0.1598791963
C  C47  1  0.22121000  0.70601000  0.14827000  1.0 -0.0278430244
C  C48  1  0.18428000  0.66246000  0.17376000  1.0 0.6291247255
C  C49  1  0.04228000  0.45768000  0.83424000  1.0 0.6239405892
C  C50  1  0.08139000  0.45937000  0.86402000  1.0 -0.0462570783
C  C51  1  0.12755000  0.48619000  0.84724000  1.0 -0.098341626
C  C52  1  0.16422000  0.48787000  0.87357000  1.0 -0.1598791963
C  C53  1  0.15595000  0.46339000  0.91791000  1.0 0.0683594338
C  C54  1  0.10953000  0.43726000  0.93494000  1.0 -0.1598791963
C  C55  1  0.07249000  0.43528000  0.90765000  1.0 -0.098341626
C  C56  1  0.19610000  0.46566000  0.94546000  1.0 0.0683594338
C  C57  1  0.19954000  0.47261000  0.99619000  1.0 -0.2109735178
C  C58  1  0.28476000  0.49676000  0.10124000  1.0 -0.1598791963
C  C59  1  0.29399000  0.51520000  0.14827000  1.0 -0.0278430244
C  C60  1  0.33754000  0.52182000  0.17376000  1.0 0.6291247255
C  C61  1  0.54232000  0.58460000  0.83424000  1.0 0.6239405892
C  C62  1  0.54063000  0.62202000  0.86402000  1.0 -0.0462570783
C  C63  1  0.51381000  0.64136000  0.84724000  1.0 -0.098341626
C  C64  1  0.51213000  0.67635000  0.87357000  1.0 -0.1598791963
C  C65  1  0.53661000  0.69256000  0.91791000  1.0 0.0683594338
C  C66  1  0.56274000  0.67227000  0.93494000  1.0 -0.1598791963
C  C67  1  0.56472000  0.63721000  0.90765000  1.0 -0.098341626
C  C68  1  0.53434000  0.73044000  0.94546000  1.0 0.0683594338
C  C69  1  0.52739000  0.72693000  0.99619000  1.0 -0.2109735178
C  C70  1  0.50324000  0.78800000  0.10124000  1.0 -0.1598791963
C  C71  1  0.48480000  0.77879000  0.14827000  1.0 -0.0278430244
C  C72  1  0.47818000  0.81572000  0.17376000  1.0 0.6291247255
C  C73  1  0.04228000  0.58460000  0.66576000  1.0 0.6239405892
C  C74  1  0.08139000  0.62202000  0.63598000  1.0 -0.0462570783
C  C75  1  0.12755000  0.64136000  0.65276000  1.0 -0.098341626
C  C76  1  0.16422000  0.67635000  0.62643000  1.0 -0.1598791963
C  C77  1  0.15595000  0.69256000  0.58209000  1.0 0.0683594338
C  C78  1  0.10953000  0.67227000  0.56506000  1.0 -0.1598791963
C  C79  1  0.07249000  0.63721000  0.59235000  1.0 -0.098341626
C  C80  1  0.19610000  0.73044000  0.55454000  1.0 0.0683594338
C  C81  1  0.19954000  0.72693000  0.50381000  1.0 -0.2109735178
C  C82  1  0.28476000  0.78800000  0.39876000  1.0 -0.1598791963
C  C83  1  0.29399000  0.77879000  0.35173000  1.0 -0.0278430244
C  C84  1  0.33754000  0.81572000  0.32624000  1.0 0.6291247255
C  C85  1  0.54232000  0.95772000  0.66576000  1.0 0.6239405892
C  C86  1  0.54063000  0.91861000  0.63598000  1.0 -0.0462570783
C  C87  1  0.51381000  0.87245000  0.65276000  1.0 -0.098341626
C  C88  1  0.51213000  0.83578000  0.62643000  1.0 -0.1598791963
C  C89  1  0.53661000  0.84405000  0.58209000  1.0 0.0683594338
C  C90  1  0.56274000  0.89047000  0.56506000  1.0 -0.1598791963
C  C91  1  0.56472000  0.92751000  0.59235000  1.0 -0.098341626
C  C92  1  0.53434000  0.80390000  0.55454000  1.0 0.0683594338
C  C93  1  0.52739000  0.80046000  0.50381000  1.0 -0.2109735178
C  C94  1  0.50324000  0.71524000  0.39876000  1.0 -0.1598791963
C  C95  1  0.48480000  0.70601000  0.35173000  1.0 -0.0278430244
C  C96  1  0.47818000  0.66246000  0.32624000  1.0 0.6291247255
C  C97  1  0.41540000  0.45768000  0.66576000  1.0 0.6239405892
C  C98  1  0.37798000  0.45937000  0.63598000  1.0 -0.0462570783
C  C99  1  0.35864000  0.48619000  0.65276000  1.0 -0.098341626
C  C100  1  0.32365000  0.48787000  0.62643000  1.0 -0.1598791963
C  C101  1  0.30744000  0.46339000  0.58209000  1.0 0.0683594338
C  C102  1  0.32773000  0.43726000  0.56506000  1.0 -0.1598791963
C  C103  1  0.36279000  0.43528000  0.59235000  1.0 -0.098341626
C  C104  1  0.26956000  0.46566000  0.55454000  1.0 0.0683594338
C  C105  1  0.27307000  0.47261000  0.50381000  1.0 -0.2109735178
C  C106  1  0.21200000  0.49676000  0.39876000  1.0 -0.1598791963
C  C107  1  0.22121000  0.51520000  0.35173000  1.0 -0.0278430244
C  C108  1  0.18428000  0.52182000  0.32624000  1.0 0.6291247255
C  C109  1  0.95772000  0.41540000  0.16576000  1.0 0.6239405892
C  C110  1  0.91861000  0.37798000  0.13598000  1.0 -0.0462570783
C  C111  1  0.87245000  0.35864000  0.15276000  1.0 -0.098341626
C  C112  1  0.83578000  0.32365000  0.12643000  1.0 -0.1598791963
C  C113  1  0.84405000  0.30744000  0.08209000  1.0 0.0683594338
C  C114  1  0.89047000  0.32773000  0.06506000  1.0 -0.1598791963
C  C115  1  0.92751000  0.36279000  0.09235000  1.0 -0.098341626
C  C116  1  0.80390000  0.26956000  0.05454000  1.0 0.0683594338
C  C117  1  0.80046000  0.27307000  0.00381000  1.0 -0.2109735178
C  C118  1  0.71524000  0.21200000  0.89876000  1.0 -0.1598791963
C  C119  1  0.70601000  0.22121000  0.85173000  1.0 -0.0278430244
C  C120  1  0.66246000  0.18428000  0.82624000  1.0 0.6291247255
C  C121  1  0.45768000  0.04228000  0.16576000  1.0 0.6239405892
C  C122  1  0.45937000  0.08139000  0.13598000  1.0 -0.0462570783
C  C123  1  0.48619000  0.12755000  0.15276000  1.0 -0.098341626
C  C124  1  0.48787000  0.16422000  0.12643000  1.0 -0.1598791963
C  C125  1  0.46339000  0.15595000  0.08209000  1.0 0.0683594338
C  C126  1  0.43726000  0.10953000  0.06506000  1.0 -0.1598791963
C  C127  1  0.43528000  0.07249000  0.09235000  1.0 -0.098341626
C  C128  1  0.46566000  0.19610000  0.05454000  1.0 0.0683594338
C  C129  1  0.47261000  0.19954000  0.00381000  1.0 -0.2109735178
C  C130  1  0.49676000  0.28476000  0.89876000  1.0 -0.1598791963
C  C131  1  0.51520000  0.29399000  0.85173000  1.0 -0.0278430244
C  C132  1  0.52182000  0.33754000  0.82624000  1.0 0.6291247255
C  C133  1  0.58460000  0.54232000  0.16576000  1.0 0.6291247255
C  C134  1  0.62202000  0.54063000  0.13598000  1.0 -0.0462570783
C  C135  1  0.64136000  0.51381000  0.15276000  1.0 -0.098341626
C  C136  1  0.67635000  0.51213000  0.12643000  1.0 -0.1598791963
C  C137  1  0.69256000  0.53661000  0.08209000  1.0 0.0683594338
C  C138  1  0.67227000  0.56274000  0.06506000  1.0 -0.1598791963
C  C139  1  0.63721000  0.56472000  0.09235000  1.0 -0.098341626
C  C140  1  0.73044000  0.53434000  0.05454000  1.0 0.0683594338
C  C141  1  0.72693000  0.52739000  0.00381000  1.0 -0.2109735178
C  C142  1  0.78800000  0.50324000  0.89876000  1.0 -0.1598791963
C  C143  1  0.77879000  0.48480000  0.85173000  1.0 -0.0278430244
C  C144  1  0.81572000  0.47818000  0.82624000  1.0 0.6291247255
C  C145  1  0.41540000  0.95772000  0.66576000  1.0 0.6239405892
C  C146  1  0.37798000  0.91861000  0.63598000  1.0 -0.0462570783
C  C147  1  0.35864000  0.87245000  0.65276000  1.0 -0.098341626
C  C148  1  0.32365000  0.83578000  0.62643000  1.0 -0.1598791963
C  C149  1  0.30744000  0.84405000  0.58209000  1.0 0.0683594338
C  C150  1  0.32773000  0.89047000  0.56506000  1.0 -0.1598791963
C  C151  1  0.36279000  0.92751000  0.59235000  1.0 -0.098341626
C  C152  1  0.26956000  0.80390000  0.55454000  1.0 0.0683594338
C  C153  1  0.27307000  0.80046000  0.50381000  1.0 -0.2109735178
C  C154  1  0.21200000  0.71524000  0.39876000  1.0 -0.1598791963
C  C155  1  0.22121000  0.70601000  0.35173000  1.0 -0.0278430244
C  C156  1  0.18428000  0.66246000  0.32624000  1.0 0.6291247255
C  C157  1  0.04228000  0.45768000  0.66576000  1.0 0.6239405892
C  C158  1  0.08139000  0.45937000  0.63598000  1.0 -0.0462570783
C  C159  1  0.12755000  0.48619000  0.65276000  1.0 -0.098341626
C  C160  1  0.16422000  0.48787000  0.62643000  1.0 -0.1598791963
C  C161  1  0.15595000  0.46339000  0.58209000  1.0 0.0683594338
C  C162  1  0.10953000  0.43726000  0.56506000  1.0 -0.1598791963
C  C163  1  0.07249000  0.43528000  0.59235000  1.0 -0.098341626
C  C164  1  0.19610000  0.46566000  0.55454000  1.0 0.0683594338
C  C165  1  0.19954000  0.47261000  0.50381000  1.0 -0.2109735178
C  C166  1  0.28476000  0.49676000  0.39876000  1.0 -0.1598791963
C  C167  1  0.29399000  0.51520000  0.35173000  1.0 -0.0278430244
C  C168  1  0.33754000  0.52182000  0.32624000  1.0 0.6291247255
C  C169  1  0.54232000  0.58460000  0.66576000  1.0 0.6239405892
C  C170  1  0.54063000  0.62202000  0.63598000  1.0 -0.0462570783
C  C171  1  0.51381000  0.64136000  0.65276000  1.0 -0.098341626
C  C172  1  0.51213000  0.67635000  0.62643000  1.0 -0.1598791963
C  C173  1  0.53661000  0.69256000  0.58209000  1.0 0.0683594338
C  C174  1  0.56274000  0.67227000  0.56506000  1.0 -0.1598791963
C  C175  1  0.56472000  0.63721000  0.59235000  1.0 -0.098341626
C  C176  1  0.53434000  0.73044000  0.55454000  1.0 0.0683594338
C  C177  1  0.52739000  0.72693000  0.50381000  1.0 -0.2109735178
C  C178  1  0.50324000  0.78800000  0.39876000  1.0 -0.1598791963
C  C179  1  0.48480000  0.77879000  0.35173000  1.0 -0.0278430244
C  C180  1  0.47818000  0.81572000  0.32624000  1.0 0.6291247255
C  C181  1  0.58460000  0.04228000  0.16576000  1.0 0.6239405892
C  C182  1  0.62202000  0.08139000  0.13598000  1.0 -0.0462570783
C  C183  1  0.64136000  0.12755000  0.15276000  1.0 -0.098341626
C  C184  1  0.67635000  0.16422000  0.12643000  1.0 -0.1598791963
C  C185  1  0.69256000  0.15595000  0.08209000  1.0 0.0683594338
C  C186  1  0.67227000  0.10953000  0.06506000  1.0 -0.1598791963
C  C187  1  0.63721000  0.07249000  0.09235000  1.0 -0.098341626
C  C188  1  0.73044000  0.19610000  0.05454000  1.0 0.0683594338
C  C189  1  0.72693000  0.19954000  0.00381000  1.0 -0.2109735178
C  C190  1  0.78800000  0.28476000  0.89876000  1.0 -0.1598791963
C  C191  1  0.77879000  0.29399000  0.85173000  1.0 -0.0278430244
C  C192  1  0.81572000  0.33754000  0.82624000  1.0 0.6291247255
C  C193  1  0.95772000  0.54232000  0.16576000  1.0 0.6291247255
C  C194  1  0.91861000  0.54063000  0.13598000  1.0 -0.0462570783
C  C195  1  0.87245000  0.51381000  0.15276000  1.0 -0.098341626
C  C196  1  0.83578000  0.51213000  0.12643000  1.0 -0.1598791963
C  C197  1  0.84405000  0.53661000  0.08209000  1.0 0.0683594338
C  C198  1  0.89047000  0.56274000  0.06506000  1.0 -0.1598791963
C  C199  1  0.92751000  0.56472000  0.09235000  1.0 -0.098341626
C  C200  1  0.80390000  0.53434000  0.05454000  1.0 0.0683594338
C  C201  1  0.80046000  0.52739000  0.00381000  1.0 -0.2109735178
C  C202  1  0.71524000  0.50324000  0.89876000  1.0 -0.1598791963
C  C203  1  0.70601000  0.48480000  0.85173000  1.0 -0.0278430244
C  C204  1  0.66246000  0.47818000  0.82624000  1.0 0.6291247255
C  C205  1  0.45768000  0.41540000  0.16576000  1.0 0.6239405892
C  C206  1  0.45937000  0.37798000  0.13598000  1.0 -0.0462570783
C  C207  1  0.48619000  0.35864000  0.15276000  1.0 -0.098341626
C  C208  1  0.48787000  0.32365000  0.12643000  1.0 -0.1598791963
C  C209  1  0.46339000  0.30744000  0.08209000  1.0 0.0683594338
C  C210  1  0.43726000  0.32773000  0.06506000  1.0 -0.1598791963
C  C211  1  0.43528000  0.36279000  0.09235000  1.0 -0.098341626
C  C212  1  0.46566000  0.26956000  0.05454000  1.0 0.0683594338
C  C213  1  0.47261000  0.27307000  0.00381000  1.0 -0.2109735178
C  C214  1  0.49676000  0.21200000  0.89876000  1.0 -0.1598791963
C  C215  1  0.51520000  0.22121000  0.85173000  1.0 -0.0278430244
C  C216  1  0.52182000  0.18428000  0.82624000  1.0 0.6291247255
C  C217  1  0.95772000  0.41540000  0.33424000  1.0 0.6239405892
C  C218  1  0.91861000  0.37798000  0.36402000  1.0 -0.0462570783
C  C219  1  0.87245000  0.35864000  0.34724000  1.0 -0.098341626
C  C220  1  0.83578000  0.32365000  0.37357000  1.0 -0.1598791963
C  C221  1  0.84405000  0.30744000  0.41791000  1.0 0.0683594338
C  C222  1  0.89047000  0.32773000  0.43494000  1.0 -0.1598791963
C  C223  1  0.92751000  0.36279000  0.40765000  1.0 -0.098341626
C  C224  1  0.80390000  0.26956000  0.44546000  1.0 0.0683594338
C  C225  1  0.80046000  0.27307000  0.49619000  1.0 -0.2109735178
C  C226  1  0.71524000  0.21200000  0.60124000  1.0 -0.1598791963
C  C227  1  0.70601000  0.22121000  0.64827000  1.0 -0.0278430244
C  C228  1  0.66246000  0.18428000  0.67376000  1.0 0.6291247255
C  C229  1  0.45768000  0.04228000  0.33424000  1.0 0.6239405892
C  C230  1  0.45937000  0.08139000  0.36402000  1.0 -0.0462570783
C  C231  1  0.48619000  0.12755000  0.34724000  1.0 -0.098341626
C  C232  1  0.48787000  0.16422000  0.37357000  1.0 -0.1598791963
C  C233  1  0.46339000  0.15595000  0.41791000  1.0 0.0683594338
C  C234  1  0.43726000  0.10953000  0.43494000  1.0 -0.1598791963
C  C235  1  0.43528000  0.07249000  0.40765000  1.0 -0.098341626
C  C236  1  0.46566000  0.19610000  0.44546000  1.0 0.0683594338
C  C237  1  0.47261000  0.19954000  0.49619000  1.0 -0.2109735178
C  C238  1  0.49676000  0.28476000  0.60124000  1.0 -0.1598791963
C  C239  1  0.51520000  0.29399000  0.64827000  1.0 -0.0278430244
C  C240  1  0.52182000  0.33754000  0.67376000  1.0 0.6291247255
C  C241  1  0.58460000  0.54232000  0.33424000  1.0 0.6291247255
C  C242  1  0.62202000  0.54063000  0.36402000  1.0 -0.0462570783
C  C243  1  0.64136000  0.51381000  0.34724000  1.0 -0.098341626
C  C244  1  0.67635000  0.51213000  0.37357000  1.0 -0.1598791963
C  C245  1  0.69256000  0.53661000  0.41791000  1.0 0.0683594338
C  C246  1  0.67227000  0.56274000  0.43494000  1.0 -0.1598791963
C  C247  1  0.63721000  0.56472000  0.40765000  1.0 -0.098341626
C  C248  1  0.73044000  0.53434000  0.44546000  1.0 0.0683594338
C  C249  1  0.72693000  0.52739000  0.49619000  1.0 -0.2109735178
C  C250  1  0.78800000  0.50324000  0.60124000  1.0 -0.1598791963
C  C251  1  0.77879000  0.48480000  0.64827000  1.0 -0.0278430244
C  C252  1  0.81572000  0.47818000  0.67376000  1.0 0.6291247255
C  C253  1  0.04228000  0.58460000  0.83424000  1.0 0.6239405892
C  C254  1  0.08139000  0.62202000  0.86402000  1.0 -0.0462570783
C  C255  1  0.12755000  0.64136000  0.84724000  1.0 -0.098341626
C  C256  1  0.16422000  0.67635000  0.87357000  1.0 -0.1598791963
C  C257  1  0.15595000  0.69256000  0.91791000  1.0 0.0683594338
C  C258  1  0.10953000  0.67227000  0.93494000  1.0 -0.1598791963
C  C259  1  0.07249000  0.63721000  0.90765000  1.0 -0.098341626
C  C260  1  0.19610000  0.73044000  0.94546000  1.0 0.0683594338
C  C261  1  0.19954000  0.72693000  0.99619000  1.0 -0.2109735178
C  C262  1  0.28476000  0.78800000  0.10124000  1.0 -0.1598791963
C  C263  1  0.29399000  0.77879000  0.14827000  1.0 -0.0278430244
C  C264  1  0.33754000  0.81572000  0.17376000  1.0 0.6291247255
C  C265  1  0.54232000  0.95772000  0.83424000  1.0 0.6239405892
C  C266  1  0.54063000  0.91861000  0.86402000  1.0 -0.0462570783
C  C267  1  0.51381000  0.87245000  0.84724000  1.0 -0.098341626
C  C268  1  0.51213000  0.83578000  0.87357000  1.0 -0.1598791963
C  C269  1  0.53661000  0.84405000  0.91791000  1.0 0.0683594338
C  C270  1  0.56274000  0.89047000  0.93494000  1.0 -0.1598791963
C  C271  1  0.56472000  0.92751000  0.90765000  1.0 -0.098341626
C  C272  1  0.53434000  0.80390000  0.94546000  1.0 0.0683594338
C  C273  1  0.52739000  0.80046000  0.99619000  1.0 -0.2109735178
C  C274  1  0.50324000  0.71524000  0.10124000  1.0 -0.1598791963
C  C275  1  0.48480000  0.70601000  0.14827000  1.0 -0.0278430244
C  C276  1  0.47818000  0.66246000  0.17376000  1.0 0.6291247255
C  C277  1  0.41540000  0.45768000  0.83424000  1.0 0.6239405892
C  C278  1  0.37798000  0.45937000  0.86402000  1.0 -0.0462570783
C  C279  1  0.35864000  0.48619000  0.84724000  1.0 -0.098341626
C  C280  1  0.32365000  0.48787000  0.87357000  1.0 -0.1598791963
C  C281  1  0.30744000  0.46339000  0.91791000  1.0 0.0683594338
C  C282  1  0.32773000  0.43726000  0.93494000  1.0 -0.1598791963
C  C283  1  0.36279000  0.43528000  0.90765000  1.0 -0.098341626
C  C284  1  0.26956000  0.46566000  0.94546000  1.0 0.0683594338
C  C285  1  0.27307000  0.47261000  0.99619000  1.0 -0.2109735178
C  C286  1  0.21200000  0.49676000  0.10124000  1.0 -0.1598791963
C  C287  1  0.22121000  0.51520000  0.14827000  1.0 -0.0278430244
C  C288  1  0.18428000  0.52182000  0.17376000  1.0 0.6291247255
C  C289  1  0.76882000  0.23118000  0.42077000  1.0 -0.2017610959
C  C290  1  0.76162000  0.23838000  0.52234000  1.0 0.0808257295
C  C291  1  0.75502000  0.24498000  0.57539000  1.0 0.0553212792
C  C292  1  0.73677000  0.26323000  0.67143000  1.0 -0.1204039364
C  C293  1  0.76882000  0.53764000  0.42077000  1.0 -0.2017610959
C  C294  1  0.76162000  0.52324000  0.52234000  1.0 0.0808257295
C  C295  1  0.75502000  0.51004000  0.57539000  1.0 0.054506926
C  C296  1  0.73677000  0.47354000  0.67143000  1.0 -0.1204039364
C  C297  1  0.46236000  0.23118000  0.42077000  1.0 -0.2017610959
C  C298  1  0.47676000  0.23838000  0.52234000  1.0 0.0808257295
C  C299  1  0.48996000  0.24498000  0.57539000  1.0 0.0553212792
C  C300  1  0.52646000  0.26323000  0.67143000  1.0 -0.1204039364
C  C301  1  0.23118000  0.76882000  0.92077000  1.0 -0.2017610959
C  C302  1  0.23838000  0.76162000  0.02234000  1.0 0.0808257295
C  C303  1  0.24498000  0.75502000  0.07539000  1.0 0.0553212792
C  C304  1  0.26323000  0.73677000  0.17143000  1.0 -0.1204039364
C  C305  1  0.23118000  0.46236000  0.92077000  1.0 -0.2017610959
C  C306  1  0.23838000  0.47676000  0.02234000  1.0 0.0808257295
C  C307  1  0.24498000  0.48996000  0.07539000  1.0 0.0553212792
C  C308  1  0.26323000  0.52646000  0.17143000  1.0 -0.1204039364
C  C309  1  0.53764000  0.76882000  0.92077000  1.0 -0.2017610959
C  C310  1  0.52324000  0.76162000  0.02234000  1.0 0.0808257295
C  C311  1  0.51004000  0.75502000  0.07539000  1.0 0.0553212792
C  C312  1  0.47354000  0.73677000  0.17143000  1.0 -0.1204039364
C  C313  1  0.23118000  0.76882000  0.57923000  1.0 -0.2017610959
C  C314  1  0.23838000  0.76162000  0.47766000  1.0 0.0808257295
C  C315  1  0.24498000  0.75502000  0.42461000  1.0 0.0553212792
C  C316  1  0.26323000  0.73677000  0.32857000  1.0 -0.1204039364
C  C317  1  0.53764000  0.76882000  0.57923000  1.0 -0.2017610959
C  C318  1  0.52324000  0.76162000  0.47766000  1.0 0.0808257295
C  C319  1  0.51004000  0.75502000  0.42461000  1.0 0.0553212792
C  C320  1  0.47354000  0.73677000  0.32857000  1.0 -0.1204039364
C  C321  1  0.23118000  0.46236000  0.57923000  1.0 -0.2017610959
C  C322  1  0.23838000  0.47676000  0.47766000  1.0 0.0808257295
C  C323  1  0.24498000  0.48996000  0.42461000  1.0 0.0553212792
C  C324  1  0.26323000  0.52646000  0.32857000  1.0 -0.1204039364
C  C325  1  0.76882000  0.23118000  0.07923000  1.0 -0.2017610959
C  C326  1  0.76162000  0.23838000  0.97766000  1.0 0.0808257295
C  C327  1  0.75502000  0.24498000  0.92461000  1.0 0.0553212792
C  C328  1  0.73677000  0.26323000  0.82857000  1.0 -0.1204039364
C  C329  1  0.46236000  0.23118000  0.07923000  1.0 -0.2017610959
C  C330  1  0.47676000  0.23838000  0.97766000  1.0 0.0808257295
C  C331  1  0.48996000  0.24498000  0.92461000  1.0 0.0553212792
C  C332  1  0.52646000  0.26323000  0.82857000  1.0 -0.1204039364
C  C333  1  0.76882000  0.53764000  0.07923000  1.0 -0.2017610959
C  C334  1  0.76162000  0.52324000  0.97766000  1.0 0.0808257295
C  C335  1  0.75502000  0.51004000  0.92461000  1.0 0.0553212792
C  C336  1  0.73677000  0.47354000  0.82857000  1.0 -0.1204039364
C  C337  1  0.60020000  0.92800000  0.25000000  1.0 0.12258727
C  C338  1  0.07200000  0.67220000  0.25000000  1.0 0.12258727
C  C339  1  0.32780000  0.39980000  0.25000000  1.0 0.12258727
C  C340  1  0.39980000  0.07200000  0.75000000  1.0 0.12258727
C  C341  1  0.92800000  0.32780000  0.75000000  1.0 0.1274250568
C  C342  1  0.67220000  0.60020000  0.75000000  1.0 0.12258727
C  C343  1  0.92800000  0.60020000  0.75000000  1.0 0.12258727
C  C344  1  0.67220000  0.07200000  0.75000000  1.0 0.12258727
C  C345  1  0.39980000  0.32780000  0.75000000  1.0 0.12258727
C  C346  1  0.07200000  0.39980000  0.25000000  1.0 0.12258727
C  C347  1  0.32780000  0.92800000  0.25000000  1.0 0.12258727
C  C348  1  0.60020000  0.67220000  0.25000000  1.0 0.12258727
O  O1  1  0.56750000  0.05457000  0.29940000  1.0 -0.5940144411
O  O2  1  0.57279000  0.00033000  0.34530000  1.0 -0.6063069668
O  O3  1  0.85792000  0.34933000  0.66440000  1.0 -0.5940144411
O  O4  1  0.80181000  0.35863000  0.70204000  1.0 -0.5940144411
O  O5  1  0.58460000  0.92920000  0.29380000  1.0 -0.1204039364
O  O6  1  0.58640000  0.93230000  0.31380000  1.0 -0.098341626
O  O7  1  0.94543000  0.51293000  0.29940000  1.0 -0.5940144411
O  O8  1  0.99967000  0.57246000  0.34530000  1.0 -0.6063069668
O  O9  1  0.65067000  0.50859000  0.66440000  1.0 -0.5984833057
O  O10  1  0.64137000  0.44318000  0.70204000  1.0 -0.5984833057
O  O11  1  0.07080000  0.65540000  0.29380000  1.0 -0.1204039364
O  O12  1  0.06770000  0.65410000  0.31380000  1.0 -0.098341626
O  O13  1  0.48707000  0.43250000  0.29940000  1.0 -0.5940144411
O  O14  1  0.42754000  0.42721000  0.34530000  1.0 -0.6063069668
O  O15  1  0.49141000  0.14208000  0.66440000  1.0 -0.5984833057
O  O16  1  0.55682000  0.19819000  0.70204000  1.0 -0.5984833057
O  O17  1  0.34460000  0.41540000  0.29380000  1.0 -0.1204039364
O  O18  1  0.34590000  0.41360000  0.31380000  1.0 -0.0924833615
O  O19  1  0.43250000  0.94543000  0.79940000  1.0 -0.5940144411
O  O20  1  0.42721000  0.99967000  0.84530000  1.0 -0.5984833057
O  O21  1  0.14208000  0.65067000  0.16440000  1.0 -0.5984833057
O  O22  1  0.19819000  0.64137000  0.20204000  1.0 -0.5984833057
O  O23  1  0.41540000  0.07080000  0.79380000  1.0 -0.1262957582
O  O24  1  0.41360000  0.06770000  0.81380000  1.0 -0.0924833615
O  O25  1  0.05457000  0.48707000  0.79940000  1.0 -0.5940144411
O  O26  1  0.00033000  0.42754000  0.84530000  1.0 -0.5984833057
O  O27  1  0.34933000  0.49141000  0.16440000  1.0 -0.5984833057
O  O28  1  0.35863000  0.55682000  0.20204000  1.0 -0.5984833057
O  O29  1  0.92920000  0.34460000  0.79380000  1.0 -0.1204039364
O  O30  1  0.93230000  0.34590000  0.81380000  1.0 -0.0924833615
O  O31  1  0.51293000  0.56750000  0.79940000  1.0 -0.5940144411
O  O32  1  0.57246000  0.57279000  0.84530000  1.0 -0.5984833057
O  O33  1  0.50859000  0.85792000  0.16440000  1.0 -0.5984833057
O  O34  1  0.44318000  0.80181000  0.20204000  1.0 -0.5984833057
O  O35  1  0.65540000  0.58460000  0.79380000  1.0 -0.1204039364
O  O36  1  0.65410000  0.58640000  0.81380000  1.0 -0.0924833615
O  O37  1  0.05457000  0.56750000  0.70060000  1.0 -0.5940144411
O  O38  1  0.00033000  0.57279000  0.65470000  1.0 -0.5984833057
O  O39  1  0.34933000  0.85792000  0.33560000  1.0 -0.5984833057
O  O40  1  0.35863000  0.80181000  0.29796000  1.0 -0.5984833057
O  O41  1  0.92920000  0.58460000  0.70620000  1.0 -0.1204039364
O  O42  1  0.93230000  0.58640000  0.68620000  1.0 -0.0924833615
O  O43  1  0.51293000  0.94543000  0.70060000  1.0 -0.5940144411
O  O44  1  0.57246000  0.99967000  0.65470000  1.0 -0.5984833057
O  O45  1  0.50859000  0.65067000  0.33560000  1.0 -0.5984833057
O  O46  1  0.44318000  0.64137000  0.29796000  1.0 -0.5984833057
O  O47  1  0.65540000  0.07080000  0.70620000  1.0 -0.1204039364
O  O48  1  0.65410000  0.06770000  0.68620000  1.0 -0.0924833615
O  O49  1  0.43250000  0.48707000  0.70060000  1.0 -0.5940144411
O  O50  1  0.42721000  0.42754000  0.65470000  1.0 -0.5984833057
O  O51  1  0.14208000  0.49141000  0.33560000  1.0 -0.5984833057
O  O52  1  0.19819000  0.55682000  0.29796000  1.0 -0.5984833057
O  O53  1  0.41540000  0.34460000  0.70620000  1.0 -0.1204039364
O  O54  1  0.41360000  0.34590000  0.68620000  1.0 -0.098341626
O  O55  1  0.94543000  0.43250000  0.20060000  1.0 -0.5984833057
O  O56  1  0.99967000  0.42721000  0.15470000  1.0 -0.6063069668
O  O57  1  0.65067000  0.14208000  0.83560000  1.0 -0.5940144411
O  O58  1  0.64137000  0.19819000  0.79796000  1.0 -0.5984833057
O  O59  1  0.07080000  0.41540000  0.20620000  1.0 -0.1204039364
O  O60  1  0.06770000  0.41360000  0.18620000  1.0 -0.098341626
O  O61  1  0.48707000  0.05457000  0.20060000  1.0 -0.5984833057
O  O62  1  0.42754000  0.00033000  0.15470000  1.0 -0.6063069668
O  O63  1  0.49141000  0.34933000  0.83560000  1.0 -0.5984833057
O  O64  1  0.55682000  0.35863000  0.79796000  1.0 -0.5984833057
O  O65  1  0.34460000  0.92920000  0.20620000  1.0 -0.1204039364
O  O66  1  0.34590000  0.93230000  0.18620000  1.0 -0.098341626
O  O67  1  0.56750000  0.51293000  0.20060000  1.0 -0.5940144411
O  O68  1  0.57279000  0.57246000  0.15470000  1.0 -0.6063069668
O  O69  1  0.85792000  0.50859000  0.83560000  1.0 -0.5984833057
O  O70  1  0.80181000  0.44318000  0.79796000  1.0 -0.5984833057
O  O71  1  0.58460000  0.65540000  0.20620000  1.0 -0.1204039364
O  O72  1  0.58640000  0.65410000  0.18620000  1.0 -0.0924833615
O  O73  1  0.43250000  0.94543000  0.70060000  1.0 -0.5940144411
O  O74  1  0.42721000  0.99967000  0.65470000  1.0 -0.5984833057
O  O75  1  0.14208000  0.65067000  0.33560000  1.0 -0.5984833057
O  O76  1  0.19819000  0.64137000  0.29796000  1.0 -0.5984833057
O  O77  1  0.41540000  0.07080000  0.70620000  1.0 -0.1262957582
O  O78  1  0.41360000  0.06770000  0.68620000  1.0 -0.0924833615
O  O79  1  0.05457000  0.48707000  0.70060000  1.0 -0.5940144411
O  O80  1  0.00033000  0.42754000  0.65470000  1.0 -0.5984833057
O  O81  1  0.34933000  0.49141000  0.33560000  1.0 -0.5984833057
O  O82  1  0.35863000  0.55682000  0.29796000  1.0 -0.5984833057
O  O83  1  0.92920000  0.34460000  0.70620000  1.0 -0.1204039364
O  O84  1  0.93230000  0.34590000  0.68620000  1.0 -0.0924833615
O  O85  1  0.51293000  0.56750000  0.70060000  1.0 -0.5940144411
O  O86  1  0.57246000  0.57279000  0.65470000  1.0 -0.5984833057
O  O87  1  0.50859000  0.85792000  0.33560000  1.0 -0.5984833057
O  O88  1  0.44318000  0.80181000  0.29796000  1.0 -0.5984833057
O  O89  1  0.65540000  0.58460000  0.70620000  1.0 -0.1204039364
O  O90  1  0.65410000  0.58640000  0.68620000  1.0 -0.0924833615
O  O91  1  0.56750000  0.05457000  0.20060000  1.0 -0.5940144411
O  O92  1  0.57279000  0.00033000  0.15470000  1.0 -0.6063069668
O  O93  1  0.85792000  0.34933000  0.83560000  1.0 -0.5940144411
O  O94  1  0.80181000  0.35863000  0.79796000  1.0 -0.5940144411
O  O95  1  0.58460000  0.92920000  0.20620000  1.0 -0.1204039364
O  O96  1  0.58640000  0.93230000  0.18620000  1.0 -0.098341626
O  O97  1  0.94543000  0.51293000  0.20060000  1.0 -0.5940144411
O  O98  1  0.99967000  0.57246000  0.15470000  1.0 -0.6063069668
O  O99  1  0.65067000  0.50859000  0.83560000  1.0 -0.5984833057
O  O100  1  0.64137000  0.44318000  0.79796000  1.0 -0.5984833057
O  O101  1  0.07080000  0.65540000  0.20620000  1.0 -0.1204039364
O  O102  1  0.06770000  0.65410000  0.18620000  1.0 -0.098341626
O  O103  1  0.48707000  0.43250000  0.20060000  1.0 -0.5940144411
O  O104  1  0.42754000  0.42721000  0.15470000  1.0 -0.6063069668
O  O105  1  0.49141000  0.14208000  0.83560000  1.0 -0.5984833057
O  O106  1  0.55682000  0.19819000  0.79796000  1.0 -0.5984833057
O  O107  1  0.34460000  0.41540000  0.20620000  1.0 -0.1204039364
O  O108  1  0.34590000  0.41360000  0.18620000  1.0 -0.0924833615
O  O109  1  0.94543000  0.43250000  0.29940000  1.0 -0.5984833057
O  O110  1  0.99967000  0.42721000  0.34530000  1.0 -0.6063069668
O  O111  1  0.65067000  0.14208000  0.66440000  1.0 -0.5940144411
O  O112  1  0.64137000  0.19819000  0.70204000  1.0 -0.5984833057
O  O113  1  0.07080000  0.41540000  0.29380000  1.0 -0.1204039364
O  O114  1  0.06770000  0.41360000  0.31380000  1.0 -0.098341626
O  O115  1  0.48707000  0.05457000  0.29940000  1.0 -0.5984833057
O  O116  1  0.42754000  0.00033000  0.34530000  1.0 -0.6063069668
O  O117  1  0.49141000  0.34933000  0.66440000  1.0 -0.5984833057
O  O118  1  0.55682000  0.35863000  0.70204000  1.0 -0.5984833057
O  O119  1  0.34460000  0.92920000  0.29380000  1.0 -0.1204039364
O  O120  1  0.34590000  0.93230000  0.31380000  1.0 -0.098341626
O  O121  1  0.56750000  0.51293000  0.29940000  1.0 -0.5940144411
O  O122  1  0.57279000  0.57246000  0.34530000  1.0 -0.6063069668
O  O123  1  0.85792000  0.50859000  0.66440000  1.0 -0.5984833057
O  O124  1  0.80181000  0.44318000  0.70204000  1.0 -0.5984833057
O  O125  1  0.58460000  0.65540000  0.29380000  1.0 -0.1204039364
O  O126  1  0.58640000  0.65410000  0.31380000  1.0 -0.0924833615
O  O127  1  0.05457000  0.56750000  0.79940000  1.0 -0.5940144411
O  O128  1  0.00033000  0.57279000  0.84530000  1.0 -0.5984833057
O  O129  1  0.34933000  0.85792000  0.16440000  1.0 -0.5984833057
O  O130  1  0.35863000  0.80181000  0.20204000  1.0 -0.5984833057
O  O131  1  0.92920000  0.58460000  0.79380000  1.0 -0.1204039364
O  O132  1  0.93230000  0.58640000  0.81380000  1.0 -0.0924833615
O  O133  1  0.51293000  0.94543000  0.79940000  1.0 -0.5940144411
O  O134  1  0.57246000  0.99967000  0.84530000  1.0 -0.5984833057
O  O135  1  0.50859000  0.65067000  0.16440000  1.0 -0.5984833057
O  O136  1  0.44318000  0.64137000  0.20204000  1.0 -0.5984833057
O  O137  1  0.65540000  0.07080000  0.79380000  1.0 -0.1204039364
O  O138  1  0.65410000  0.06770000  0.81380000  1.0 -0.0924833615
O  O139  1  0.43250000  0.48707000  0.79940000  1.0 -0.5940144411
O  O140  1  0.42721000  0.42754000  0.84530000  1.0 -0.5984833057
O  O141  1  0.14208000  0.49141000  0.16440000  1.0 -0.5984833057
O  O142  1  0.19819000  0.55682000  0.20204000  1.0 -0.5984833057
O  O143  1  0.41540000  0.34460000  0.79380000  1.0 -0.1204039364
O  O144  1  0.41360000  0.34590000  0.81380000  1.0 -0.098341626
O  O145  1  0.55025000  0.97667000  0.25000000  1.0 -1.031521597
O  O146  1  0.49111000  0.89212000  0.25000000  1.0 -1.1158131187
O  O147  1  0.02333000  0.57358000  0.25000000  1.0 -1.031521597
O  O148  1  0.10788000  0.59899000  0.25000000  1.0 -1.1158131187
O  O149  1  0.42642000  0.44975000  0.25000000  1.0 -1.0361597704
O  O150  1  0.40101000  0.50889000  0.25000000  1.0 -1.1094885436
O  O151  1  0.44975000  0.02333000  0.75000000  1.0 -1.031521597
O  O152  1  0.50889000  0.10788000  0.75000000  1.0 -1.1094885436
O  O153  1  0.97667000  0.42642000  0.75000000  1.0 -1.031521597
O  O154  1  0.89212000  0.40101000  0.75000000  1.0 -1.1158131187
O  O155  1  0.57358000  0.55025000  0.75000000  1.0 -1.031521597
O  O156  1  0.59899000  0.49111000  0.75000000  1.0 -1.1094885436
O  O157  1  0.97667000  0.55025000  0.75000000  1.0 -1.031521597
O  O158  1  0.89212000  0.49111000  0.75000000  1.0 -1.1094885436
O  O159  1  0.57358000  0.02333000  0.75000000  1.0 -1.031521597
O  O160  1  0.59899000  0.10788000  0.75000000  1.0 -1.1094885436
O  O161  1  0.44975000  0.42642000  0.75000000  1.0 -1.031521597
O  O162  1  0.50889000  0.40101000  0.75000000  1.0 -1.1158131187
O  O163  1  0.02333000  0.44975000  0.25000000  1.0 -1.031521597
O  O164  1  0.10788000  0.50889000  0.25000000  1.0 -1.1158131187
O  O165  1  0.42642000  0.97667000  0.25000000  1.0 -1.031521597
O  O166  1  0.40101000  0.89212000  0.25000000  1.0 -1.1158131187
O  O167  1  0.55025000  0.57358000  0.25000000  1.0 -1.031521597
O  O168  1  0.49111000  0.59899000  0.25000000  1.0 -1.1158131187
O  O169  1  0.48287000  0.96574000  0.30539000  1.0 -1.1094885436
O  O170  1  0.44050000  0.88100000  0.32576000  1.0 -1.0535935568
O  O171  1  0.03426000  0.51713000  0.30539000  1.0 -1.1094885436
O  O172  1  0.11900000  0.55950000  0.32576000  1.0 -1.0558960604
O  O173  1  0.48287000  0.51713000  0.30539000  1.0 -1.1094885436
O  O174  1  0.44050000  0.55950000  0.32576000  1.0 -1.0535935568
O  O175  1  0.51713000  0.03426000  0.80539000  1.0 -1.1094885436
O  O176  1  0.55950000  0.11900000  0.82576000  1.0 -1.0535935568
O  O177  1  0.96574000  0.48287000  0.80539000  1.0 -1.1015117335
O  O178  1  0.88100000  0.44050000  0.82576000  1.0 -1.0535935568
O  O179  1  0.51713000  0.48287000  0.80539000  1.0 -1.1094885436
O  O180  1  0.55950000  0.44050000  0.82576000  1.0 -1.0535935568
O  O181  1  0.96574000  0.48287000  0.69461000  1.0 -1.1015117335
O  O182  1  0.88100000  0.44050000  0.67424000  1.0 -1.0535935568
O  O183  1  0.51713000  0.03426000  0.69461000  1.0 -1.1094885436
O  O184  1  0.55950000  0.11900000  0.67424000  1.0 -1.0535935568
O  O185  1  0.51713000  0.48287000  0.69461000  1.0 -1.1094885436
O  O186  1  0.55950000  0.44050000  0.67424000  1.0 -1.0535935568
O  O187  1  0.03426000  0.51713000  0.19461000  1.0 -1.1094885436
O  O188  1  0.11900000  0.55950000  0.17424000  1.0 -1.0558960604
O  O189  1  0.48287000  0.96574000  0.19461000  1.0 -1.1094885436
O  O190  1  0.44050000  0.88100000  0.17424000  1.0 -1.0535935568
O  O191  1  0.48287000  0.51713000  0.19461000  1.0 -1.1094885436
O  O192  1  0.44050000  0.55950000  0.17424000  1.0 -1.0535935568
