# DDEC6 charges by PACMAN v1.1 (https://github.com/mtap-research/PACMAN-charge/)
data_JEVFUP_ASR_pacman
_symmetry_space_group_name_H-M   'P 1'
_cell_length_a   28.23480000
_cell_length_b   28.23480000
_cell_length_c   28.23480000
_cell_angle_alpha   60.00000000
_cell_angle_beta   60.00000000
_cell_angle_gamma   60.00000000
_symmetry_Int_Tables_number   1
_chemical_formula_structural   CoH20C36(NO2)8
_chemical_formula_sum   'Co12 H240 C432 N96 O192'
_cell_volume   15916.19126772
_cell_formula_units_Z   12
loop_
 _symmetry_equiv_pos_site_id
 _symmetry_equiv_pos_as_xyz
  1  'x, y, z'
loop_
 _atom_site_type_symbol
 _atom_site_label
 _atom_site_symmetry_multiplicity
 _atom_site_fract_x
 _atom_site_fract_y
 _atom_site_fract_z
 _atom_site_occupancy
 _atom_site_charge
Co  Co1  1  0.50000000  0.84590000  0.50000000  1.0 0.9050399644
Co  Co2  1  0.84590000  0.50000000  0.15410000  1.0 0.9050399644
Co  Co3  1  0.50000000  0.15410000  0.50000000  1.0 0.8997827006
Co  Co4  1  0.15410000  0.50000000  0.84590000  1.0 0.8997827006
Co  Co5  1  0.50000000  0.50000000  0.84590000  1.0 0.8997827006
Co  Co6  1  0.15410000  0.84590000  0.50000000  1.0 0.9050399644
Co  Co7  1  0.50000000  0.50000000  0.15410000  1.0 0.9050399644
Co  Co8  1  0.84590000  0.15410000  0.50000000  1.0 0.8997827006
Co  Co9  1  0.84590000  0.50000000  0.50000000  1.0 0.8997827006
Co  Co10  1  0.50000000  0.15410000  0.84590000  1.0 0.8997827006
Co  Co11  1  0.15410000  0.50000000  0.50000000  1.0 0.8997827006
Co  Co12  1  0.50000000  0.84590000  0.15410000  1.0 0.8997827006
H  H1  1  0.53784000  0.05056000  0.14038000  1.0 0.1317578276
H  H2  1  0.52216000  0.96826000  0.17326000  1.0 0.1228212664
H  H3  1  0.51588000  0.86698000  0.33756000  1.0 0.0786096974
H  H4  1  0.52015000  0.02781000  0.27735000  1.0 0.1228212664
H  H5  1  0.54779000  0.80917000  0.28895000  1.0 0.3027263043
H  H6  1  0.05056000  0.53784000  0.27122000  1.0 0.1317578276
H  H7  1  0.96826000  0.52216000  0.33632000  1.0 0.1228212664
H  H8  1  0.86698000  0.51588000  0.27958000  1.0 0.0786096974
H  H9  1  0.02781000  0.52015000  0.17469000  1.0 0.1228212664
H  H10  1  0.80917000  0.54779000  0.35409000  1.0 0.3027263043
H  H11  1  0.14038000  0.27122000  0.53784000  1.0 0.1317578276
H  H12  1  0.17326000  0.33632000  0.52216000  1.0 0.1228212664
H  H13  1  0.33756000  0.27958000  0.51588000  1.0 0.0786096974
H  H14  1  0.27735000  0.17469000  0.52015000  1.0 0.1228212664
H  H15  1  0.28895000  0.35409000  0.54779000  1.0 0.3027263043
H  H16  1  0.27122000  0.14038000  0.05056000  1.0 0.1317578276
H  H17  1  0.33632000  0.17326000  0.96826000  1.0 0.1228212664
H  H18  1  0.27958000  0.33756000  0.86698000  1.0 0.0786096974
H  H19  1  0.17469000  0.27735000  0.02781000  1.0 0.1228212664
H  H20  1  0.35409000  0.28895000  0.80917000  1.0 0.3027263043
H  H21  1  0.14038000  0.53784000  0.05056000  1.0 0.1317578276
H  H22  1  0.17326000  0.52216000  0.96826000  1.0 0.1228212664
H  H23  1  0.33756000  0.51588000  0.86698000  1.0 0.0786096974
H  H24  1  0.27735000  0.52015000  0.02781000  1.0 0.1228212664
H  H25  1  0.28895000  0.54779000  0.80917000  1.0 0.3027263043
H  H26  1  0.27122000  0.05056000  0.53784000  1.0 0.1317578276
H  H27  1  0.33632000  0.96826000  0.52216000  1.0 0.1228212664
H  H28  1  0.27958000  0.86698000  0.51588000  1.0 0.0786096974
H  H29  1  0.17469000  0.02781000  0.52015000  1.0 0.1228212664
H  H30  1  0.35409000  0.80917000  0.54779000  1.0 0.3027263043
H  H31  1  0.53784000  0.14038000  0.27122000  1.0 0.1317578276
H  H32  1  0.52216000  0.17326000  0.33632000  1.0 0.1228212664
H  H33  1  0.51588000  0.33756000  0.27958000  1.0 0.0786096974
H  H34  1  0.52015000  0.27735000  0.17469000  1.0 0.1228212664
H  H35  1  0.54779000  0.28895000  0.35409000  1.0 0.3027263043
H  H36  1  0.05056000  0.27122000  0.14038000  1.0 0.1317578276
H  H37  1  0.96826000  0.33632000  0.17326000  1.0 0.1228212664
H  H38  1  0.86698000  0.27958000  0.33756000  1.0 0.0786096974
H  H39  1  0.02781000  0.17469000  0.27735000  1.0 0.1228212664
H  H40  1  0.80917000  0.35409000  0.28895000  1.0 0.3027263043
H  H41  1  0.05056000  0.14038000  0.53784000  1.0 0.1317578276
H  H42  1  0.96826000  0.17326000  0.52216000  1.0 0.1228212664
H  H43  1  0.86698000  0.33756000  0.51588000  1.0 0.0786096974
H  H44  1  0.02781000  0.27735000  0.52015000  1.0 0.1228212664
H  H45  1  0.80917000  0.28895000  0.54779000  1.0 0.3027263043
H  H46  1  0.53784000  0.27122000  0.05056000  1.0 0.1317578276
H  H47  1  0.52216000  0.33632000  0.96826000  1.0 0.1228212664
H  H48  1  0.51588000  0.27958000  0.86698000  1.0 0.0786096974
H  H49  1  0.52015000  0.17469000  0.02781000  1.0 0.1228212664
H  H50  1  0.54779000  0.35409000  0.80917000  1.0 0.3027263043
H  H51  1  0.27122000  0.53784000  0.14038000  1.0 0.1317578276
H  H52  1  0.33632000  0.52216000  0.17326000  1.0 0.1228212664
H  H53  1  0.27958000  0.51588000  0.33756000  1.0 0.0786096974
H  H54  1  0.17469000  0.52015000  0.27735000  1.0 0.1228212664
H  H55  1  0.35409000  0.54779000  0.28895000  1.0 0.3027263043
H  H56  1  0.14038000  0.05056000  0.27122000  1.0 0.1317578276
H  H57  1  0.17326000  0.96826000  0.33632000  1.0 0.1228212664
H  H58  1  0.33756000  0.86698000  0.27958000  1.0 0.0786096974
H  H59  1  0.27735000  0.02781000  0.17469000  1.0 0.1228212664
H  H60  1  0.28895000  0.80917000  0.35409000  1.0 0.3027263043
H  H61  1  0.46216000  0.94944000  0.72878000  1.0 0.1317578276
H  H62  1  0.47784000  0.03174000  0.66368000  1.0 0.1228212664
H  H63  1  0.48412000  0.13302000  0.72042000  1.0 0.0786096974
H  H64  1  0.47985000  0.97219000  0.82531000  1.0 0.1228212664
H  H65  1  0.45221000  0.19083000  0.64591000  1.0 0.3027263043
H  H66  1  0.94944000  0.46216000  0.85962000  1.0 0.1317578276
H  H67  1  0.03174000  0.47784000  0.82674000  1.0 0.1228212664
H  H68  1  0.13302000  0.48412000  0.66244000  1.0 0.0786096974
H  H69  1  0.97219000  0.47985000  0.72265000  1.0 0.1228212664
H  H70  1  0.19083000  0.45221000  0.71105000  1.0 0.3027263043
H  H71  1  0.85962000  0.72878000  0.94944000  1.0 0.1317578276
H  H72  1  0.82674000  0.66368000  0.03174000  1.0 0.1228212664
H  H73  1  0.66244000  0.72042000  0.13302000  1.0 0.0786096974
H  H74  1  0.72265000  0.82531000  0.97219000  1.0 0.1228212664
H  H75  1  0.71105000  0.64591000  0.19083000  1.0 0.3027263043
H  H76  1  0.72878000  0.85962000  0.46216000  1.0 0.1317578276
H  H77  1  0.66368000  0.82674000  0.47784000  1.0 0.1228212664
H  H78  1  0.72042000  0.66244000  0.48412000  1.0 0.0786096974
H  H79  1  0.82531000  0.72265000  0.47985000  1.0 0.1228212664
H  H80  1  0.64591000  0.71105000  0.45221000  1.0 0.3027263043
H  H81  1  0.85962000  0.46216000  0.72878000  1.0 0.1317578276
H  H82  1  0.82674000  0.47784000  0.66368000  1.0 0.1228212664
H  H83  1  0.66244000  0.48412000  0.72042000  1.0 0.0786096974
H  H84  1  0.72265000  0.47985000  0.82531000  1.0 0.1228212664
H  H85  1  0.71105000  0.45221000  0.64591000  1.0 0.3027263043
H  H86  1  0.72878000  0.94944000  0.85962000  1.0 0.1317578276
H  H87  1  0.66368000  0.03174000  0.82674000  1.0 0.1228212664
H  H88  1  0.72042000  0.13302000  0.66244000  1.0 0.0786096974
H  H89  1  0.82531000  0.97219000  0.72265000  1.0 0.1228212664
H  H90  1  0.64591000  0.19083000  0.71105000  1.0 0.3027263043
H  H91  1  0.46216000  0.85962000  0.94944000  1.0 0.1317578276
H  H92  1  0.47784000  0.82674000  0.03174000  1.0 0.1228212664
H  H93  1  0.48412000  0.66244000  0.13302000  1.0 0.0786096974
H  H94  1  0.47985000  0.72265000  0.97219000  1.0 0.1228212664
H  H95  1  0.45221000  0.71105000  0.19083000  1.0 0.3027263043
H  H96  1  0.94944000  0.72878000  0.46216000  1.0 0.1317578276
H  H97  1  0.03174000  0.66368000  0.47784000  1.0 0.1228212664
H  H98  1  0.13302000  0.72042000  0.48412000  1.0 0.0786096974
H  H99  1  0.97219000  0.82531000  0.47985000  1.0 0.1228212664
H  H100  1  0.19083000  0.64591000  0.45221000  1.0 0.3027263043
H  H101  1  0.94944000  0.85962000  0.72878000  1.0 0.1317578276
H  H102  1  0.03174000  0.82674000  0.66368000  1.0 0.1228212664
H  H103  1  0.13302000  0.66244000  0.72042000  1.0 0.0786096974
H  H104  1  0.97219000  0.72265000  0.82531000  1.0 0.1228212664
H  H105  1  0.19083000  0.71105000  0.64591000  1.0 0.3027263043
H  H106  1  0.46216000  0.72878000  0.85962000  1.0 0.1317578276
H  H107  1  0.47784000  0.66368000  0.82674000  1.0 0.1228212664
H  H108  1  0.48412000  0.72042000  0.66244000  1.0 0.0786096974
H  H109  1  0.47985000  0.82531000  0.72265000  1.0 0.1228212664
H  H110  1  0.45221000  0.64591000  0.71105000  1.0 0.3027263043
H  H111  1  0.72878000  0.46216000  0.94944000  1.0 0.1317578276
H  H112  1  0.66368000  0.47784000  0.03174000  1.0 0.1228212664
H  H113  1  0.72042000  0.48412000  0.13302000  1.0 0.0786096974
H  H114  1  0.82531000  0.47985000  0.97219000  1.0 0.1228212664
H  H115  1  0.64591000  0.45221000  0.19083000  1.0 0.3027263043
H  H116  1  0.85962000  0.94944000  0.46216000  1.0 0.1317578276
H  H117  1  0.82674000  0.03174000  0.47784000  1.0 0.1228212664
H  H118  1  0.66244000  0.13302000  0.48412000  1.0 0.0786096974
H  H119  1  0.72265000  0.97219000  0.47985000  1.0 0.1228212664
H  H120  1  0.71105000  0.19083000  0.45221000  1.0 0.3027263043
H  H121  1  0.46216000  0.94944000  0.85962000  1.0 0.1317578276
H  H122  1  0.47784000  0.03174000  0.82674000  1.0 0.1228212664
H  H123  1  0.48412000  0.13302000  0.66244000  1.0 0.0786096974
H  H124  1  0.47985000  0.97219000  0.72265000  1.0 0.1228212664
H  H125  1  0.45221000  0.19083000  0.71105000  1.0 0.3027263043
H  H126  1  0.94944000  0.46216000  0.72878000  1.0 0.1317578276
H  H127  1  0.03174000  0.47784000  0.66368000  1.0 0.1228212664
H  H128  1  0.13302000  0.48412000  0.72042000  1.0 0.0786096974
H  H129  1  0.97219000  0.47985000  0.82531000  1.0 0.1228212664
H  H130  1  0.19083000  0.45221000  0.64591000  1.0 0.3027263043
H  H131  1  0.85962000  0.72878000  0.46216000  1.0 0.1317578276
H  H132  1  0.82674000  0.66368000  0.47784000  1.0 0.1228212664
H  H133  1  0.66244000  0.72042000  0.48412000  1.0 0.0786096974
H  H134  1  0.72265000  0.82531000  0.47985000  1.0 0.1228212664
H  H135  1  0.71105000  0.64591000  0.45221000  1.0 0.3027263043
H  H136  1  0.72878000  0.85962000  0.94944000  1.0 0.1317578276
H  H137  1  0.66368000  0.82674000  0.03174000  1.0 0.1228212664
H  H138  1  0.72042000  0.66244000  0.13302000  1.0 0.0786096974
H  H139  1  0.82531000  0.72265000  0.97219000  1.0 0.1228212664
H  H140  1  0.64591000  0.71105000  0.19083000  1.0 0.3027263043
H  H141  1  0.85962000  0.46216000  0.94944000  1.0 0.1317578276
H  H142  1  0.82674000  0.47784000  0.03174000  1.0 0.1228212664
H  H143  1  0.66244000  0.48412000  0.13302000  1.0 0.0786096974
H  H144  1  0.72265000  0.47985000  0.97219000  1.0 0.1228212664
H  H145  1  0.71105000  0.45221000  0.19083000  1.0 0.3027263043
H  H146  1  0.72878000  0.94944000  0.46216000  1.0 0.1317578276
H  H147  1  0.66368000  0.03174000  0.47784000  1.0 0.1228212664
H  H148  1  0.72042000  0.13302000  0.48412000  1.0 0.0786096974
H  H149  1  0.82531000  0.97219000  0.47985000  1.0 0.1228212664
H  H150  1  0.64591000  0.19083000  0.45221000  1.0 0.3027263043
H  H151  1  0.46216000  0.85962000  0.72878000  1.0 0.1317578276
H  H152  1  0.47784000  0.82674000  0.66368000  1.0 0.1228212664
H  H153  1  0.48412000  0.66244000  0.72042000  1.0 0.0786096974
H  H154  1  0.47985000  0.72265000  0.82531000  1.0 0.1228212664
H  H155  1  0.45221000  0.71105000  0.64591000  1.0 0.3027263043
H  H156  1  0.94944000  0.72878000  0.85962000  1.0 0.1317578276
H  H157  1  0.03174000  0.66368000  0.82674000  1.0 0.1228212664
H  H158  1  0.13302000  0.72042000  0.66244000  1.0 0.0786096974
H  H159  1  0.97219000  0.82531000  0.72265000  1.0 0.1228212664
H  H160  1  0.19083000  0.64591000  0.71105000  1.0 0.3027263043
H  H161  1  0.94944000  0.85962000  0.46216000  1.0 0.1317578276
H  H162  1  0.03174000  0.82674000  0.47784000  1.0 0.1228212664
H  H163  1  0.13302000  0.66244000  0.48412000  1.0 0.0786096974
H  H164  1  0.97219000  0.72265000  0.47985000  1.0 0.1228212664
H  H165  1  0.19083000  0.71105000  0.45221000  1.0 0.3027263043
H  H166  1  0.46216000  0.72878000  0.94944000  1.0 0.1317578276
H  H167  1  0.47784000  0.66368000  0.03174000  1.0 0.1228212664
H  H168  1  0.48412000  0.72042000  0.13302000  1.0 0.0786096974
H  H169  1  0.47985000  0.82531000  0.97219000  1.0 0.1228212664
H  H170  1  0.45221000  0.64591000  0.19083000  1.0 0.3027263043
H  H171  1  0.72878000  0.46216000  0.85962000  1.0 0.1317578276
H  H172  1  0.66368000  0.47784000  0.82674000  1.0 0.1228212664
H  H173  1  0.72042000  0.48412000  0.66244000  1.0 0.0786096974
H  H174  1  0.82531000  0.47985000  0.72265000  1.0 0.1228212664
H  H175  1  0.64591000  0.45221000  0.71105000  1.0 0.3027263043
H  H176  1  0.85962000  0.94944000  0.72878000  1.0 0.1317578276
H  H177  1  0.82674000  0.03174000  0.66368000  1.0 0.1228212664
H  H178  1  0.66244000  0.13302000  0.72042000  1.0 0.0786096974
H  H179  1  0.72265000  0.97219000  0.82531000  1.0 0.1228212664
H  H180  1  0.71105000  0.19083000  0.64591000  1.0 0.3027263043
H  H181  1  0.53784000  0.05056000  0.27122000  1.0 0.1317578276
H  H182  1  0.52216000  0.96826000  0.33632000  1.0 0.1228212664
H  H183  1  0.51588000  0.86698000  0.27958000  1.0 0.0786096974
H  H184  1  0.52015000  0.02781000  0.17469000  1.0 0.1228212664
H  H185  1  0.54779000  0.80917000  0.35409000  1.0 0.3027263043
H  H186  1  0.05056000  0.53784000  0.14038000  1.0 0.1317578276
H  H187  1  0.96826000  0.52216000  0.17326000  1.0 0.1228212664
H  H188  1  0.86698000  0.51588000  0.33756000  1.0 0.0786096974
H  H189  1  0.02781000  0.52015000  0.27735000  1.0 0.1228212664
H  H190  1  0.80917000  0.54779000  0.28895000  1.0 0.3027263043
H  H191  1  0.14038000  0.27122000  0.05056000  1.0 0.1317578276
H  H192  1  0.17326000  0.33632000  0.96826000  1.0 0.1228212664
H  H193  1  0.33756000  0.27958000  0.86698000  1.0 0.0786096974
H  H194  1  0.27735000  0.17469000  0.02781000  1.0 0.1228212664
H  H195  1  0.28895000  0.35409000  0.80917000  1.0 0.3027263043
H  H196  1  0.27122000  0.14038000  0.53784000  1.0 0.1317578276
H  H197  1  0.33632000  0.17326000  0.52216000  1.0 0.1228212664
H  H198  1  0.27958000  0.33756000  0.51588000  1.0 0.0786096974
H  H199  1  0.17469000  0.27735000  0.52015000  1.0 0.1228212664
H  H200  1  0.35409000  0.28895000  0.54779000  1.0 0.3027263043
H  H201  1  0.14038000  0.53784000  0.27122000  1.0 0.1317578276
H  H202  1  0.17326000  0.52216000  0.33632000  1.0 0.1228212664
H  H203  1  0.33756000  0.51588000  0.27958000  1.0 0.0786096974
H  H204  1  0.27735000  0.52015000  0.17469000  1.0 0.1228212664
H  H205  1  0.28895000  0.54779000  0.35409000  1.0 0.3027263043
H  H206  1  0.27122000  0.05056000  0.14038000  1.0 0.1317578276
H  H207  1  0.33632000  0.96826000  0.17326000  1.0 0.1228212664
H  H208  1  0.27958000  0.86698000  0.33756000  1.0 0.0786096974
H  H209  1  0.17469000  0.02781000  0.27735000  1.0 0.1228212664
H  H210  1  0.35409000  0.80917000  0.28895000  1.0 0.3027263043
H  H211  1  0.53784000  0.14038000  0.05056000  1.0 0.1317578276
H  H212  1  0.52216000  0.17326000  0.96826000  1.0 0.1228212664
H  H213  1  0.51588000  0.33756000  0.86698000  1.0 0.0786096974
H  H214  1  0.52015000  0.27735000  0.02781000  1.0 0.1228212664
H  H215  1  0.54779000  0.28895000  0.80917000  1.0 0.3027263043
H  H216  1  0.05056000  0.27122000  0.53784000  1.0 0.1317578276
H  H217  1  0.96826000  0.33632000  0.52216000  1.0 0.1228212664
H  H218  1  0.86698000  0.27958000  0.51588000  1.0 0.0786096974
H  H219  1  0.02781000  0.17469000  0.52015000  1.0 0.1228212664
H  H220  1  0.80917000  0.35409000  0.54779000  1.0 0.3027263043
H  H221  1  0.05056000  0.14038000  0.27122000  1.0 0.1317578276
H  H222  1  0.96826000  0.17326000  0.33632000  1.0 0.1228212664
H  H223  1  0.86698000  0.33756000  0.27958000  1.0 0.0786096974
H  H224  1  0.02781000  0.27735000  0.17469000  1.0 0.1228212664
H  H225  1  0.80917000  0.28895000  0.35409000  1.0 0.3027263043
H  H226  1  0.53784000  0.27122000  0.14038000  1.0 0.1317578276
H  H227  1  0.52216000  0.33632000  0.17326000  1.0 0.1228212664
H  H228  1  0.51588000  0.27958000  0.33756000  1.0 0.0786096974
H  H229  1  0.52015000  0.17469000  0.27735000  1.0 0.1228212664
H  H230  1  0.54779000  0.35409000  0.28895000  1.0 0.3027263043
H  H231  1  0.27122000  0.53784000  0.05056000  1.0 0.1317578276
H  H232  1  0.33632000  0.52216000  0.96826000  1.0 0.1228212664
H  H233  1  0.27958000  0.51588000  0.86698000  1.0 0.0786096974
H  H234  1  0.17469000  0.52015000  0.02781000  1.0 0.1228212664
H  H235  1  0.35409000  0.54779000  0.80917000  1.0 0.3027263043
H  H236  1  0.14038000  0.05056000  0.53784000  1.0 0.1317578276
H  H237  1  0.17326000  0.96826000  0.52216000  1.0 0.1228212664
H  H238  1  0.33756000  0.86698000  0.51588000  1.0 0.0786096974
H  H239  1  0.27735000  0.02781000  0.52015000  1.0 0.1228212664
H  H240  1  0.28895000  0.80917000  0.54779000  1.0 0.3027263043
C  C1  1  0.51894000  0.91034000  0.25406000  1.0 -0.033525912
C  C2  1  0.52110000  0.96270000  0.20910000  1.0 -0.0084640461
C  C3  1  0.52150000  0.00670000  0.21790000  1.0 0.0105255456
C  C4  1  0.51790000  0.87030000  0.23490000  1.0 0.3517284538
C  C5  1  0.52430000  0.11310000  0.15170000  1.0 0.0729092808
C  C6  1  0.51990000  0.99830000  0.27150000  1.0 0.0105255456
C  C7  1  0.51770000  0.94610000  0.31630000  1.0 -0.033525912
C  C8  1  0.51728000  0.90202000  0.30758000  1.0 -0.0084640461
C  C9  1  0.51580000  0.93200000  0.17840000  1.0 0.3264708179
C  C10  1  0.91034000  0.51894000  0.31666000  1.0 -0.033525912
C  C11  1  0.96270000  0.52110000  0.30710000  1.0 -0.0084640461
C  C12  1  0.00670000  0.52150000  0.25390000  1.0 0.0105255456
C  C13  1  0.87030000  0.51790000  0.37690000  1.0 0.3517284538
C  C14  1  0.11310000  0.52430000  0.21090000  1.0 0.0729092808
C  C15  1  0.99830000  0.51990000  0.21030000  1.0 0.0105255456
C  C16  1  0.94610000  0.51770000  0.21990000  1.0 -0.033525912
C  C17  1  0.90202000  0.51728000  0.27312000  1.0 -0.0084640461
C  C18  1  0.93200000  0.51580000  0.37380000  1.0 0.3264708179
C  C19  1  0.25406000  0.31666000  0.51894000  1.0 -0.033525912
C  C20  1  0.20910000  0.30710000  0.52110000  1.0 -0.0084640461
C  C21  1  0.21790000  0.25390000  0.52150000  1.0 0.0105255456
C  C22  1  0.23490000  0.37690000  0.51790000  1.0 0.3517284538
C  C23  1  0.15170000  0.21090000  0.52430000  1.0 0.0729092808
C  C24  1  0.27150000  0.21030000  0.51990000  1.0 0.0105255456
C  C25  1  0.31630000  0.21990000  0.51770000  1.0 -0.033525912
C  C26  1  0.30758000  0.27312000  0.51728000  1.0 -0.0084640461
C  C27  1  0.17840000  0.37380000  0.51580000  1.0 0.3264708179
C  C28  1  0.31666000  0.25406000  0.91034000  1.0 -0.033525912
C  C29  1  0.30710000  0.20910000  0.96270000  1.0 -0.0084640461
C  C30  1  0.25390000  0.21790000  0.00670000  1.0 0.0105255456
C  C31  1  0.37690000  0.23490000  0.87030000  1.0 0.3517284538
C  C32  1  0.21090000  0.15170000  0.11310000  1.0 0.0786096974
C  C33  1  0.21030000  0.27150000  0.99830000  1.0 0.0162494089
C  C34  1  0.21990000  0.31630000  0.94610000  1.0 -0.0357783924
C  C35  1  0.27312000  0.30758000  0.90202000  1.0 -0.0084640461
C  C36  1  0.37380000  0.17840000  0.93200000  1.0 0.3264708179
C  C37  1  0.25406000  0.51894000  0.91034000  1.0 -0.033525912
C  C38  1  0.20910000  0.52110000  0.96270000  1.0 -0.0084640461
C  C39  1  0.21790000  0.52150000  0.00670000  1.0 0.0105255456
C  C40  1  0.23490000  0.51790000  0.87030000  1.0 0.3517284538
C  C41  1  0.15170000  0.52430000  0.11310000  1.0 0.0729092808
C  C42  1  0.27150000  0.51990000  0.99830000  1.0 0.0105255456
C  C43  1  0.31630000  0.51770000  0.94610000  1.0 -0.033525912
C  C44  1  0.30758000  0.51728000  0.90202000  1.0 -0.0084640461
C  C45  1  0.17840000  0.51580000  0.93200000  1.0 0.3264708179
C  C46  1  0.31666000  0.91034000  0.51894000  1.0 -0.033525912
C  C47  1  0.30710000  0.96270000  0.52110000  1.0 -0.0084640461
C  C48  1  0.25390000  0.00670000  0.52150000  1.0 0.0105255456
C  C49  1  0.37690000  0.87030000  0.51790000  1.0 0.3517284538
C  C50  1  0.21090000  0.11310000  0.52430000  1.0 0.0729092808
C  C51  1  0.21030000  0.99830000  0.51990000  1.0 0.0105255456
C  C52  1  0.21990000  0.94610000  0.51770000  1.0 -0.033525912
C  C53  1  0.27312000  0.90202000  0.51728000  1.0 -0.0084640461
C  C54  1  0.37380000  0.93200000  0.51580000  1.0 0.3264708179
C  C55  1  0.51894000  0.25406000  0.31666000  1.0 -0.033525912
C  C56  1  0.52110000  0.20910000  0.30710000  1.0 -0.0084640461
C  C57  1  0.52150000  0.21790000  0.25390000  1.0 0.0105255456
C  C58  1  0.51790000  0.23490000  0.37690000  1.0 0.3517284538
C  C59  1  0.52430000  0.15170000  0.21090000  1.0 0.0786096974
C  C60  1  0.51990000  0.27150000  0.21030000  1.0 0.0162494089
C  C61  1  0.51770000  0.31630000  0.21990000  1.0 -0.0357783924
C  C62  1  0.51728000  0.30758000  0.27312000  1.0 -0.0084640461
C  C63  1  0.51580000  0.17840000  0.37380000  1.0 0.3264708179
C  C64  1  0.91034000  0.31666000  0.25406000  1.0 -0.033525912
C  C65  1  0.96270000  0.30710000  0.20910000  1.0 -0.0084640461
C  C66  1  0.00670000  0.25390000  0.21790000  1.0 0.0105255456
C  C67  1  0.87030000  0.37690000  0.23490000  1.0 0.3517284538
C  C68  1  0.11310000  0.21090000  0.15170000  1.0 0.0729092808
C  C69  1  0.99830000  0.21030000  0.27150000  1.0 0.0105255456
C  C70  1  0.94610000  0.21990000  0.31630000  1.0 -0.033525912
C  C71  1  0.90202000  0.27312000  0.30758000  1.0 -0.0084640461
C  C72  1  0.93200000  0.37380000  0.17840000  1.0 0.3264708179
C  C73  1  0.91034000  0.25406000  0.51894000  1.0 -0.033525912
C  C74  1  0.96270000  0.20910000  0.52110000  1.0 -0.0084640461
C  C75  1  0.00670000  0.21790000  0.52150000  1.0 0.0105255456
C  C76  1  0.87030000  0.23490000  0.51790000  1.0 0.3517284538
C  C77  1  0.11310000  0.15170000  0.52430000  1.0 0.0729092808
C  C78  1  0.99830000  0.27150000  0.51990000  1.0 0.0105255456
C  C79  1  0.94610000  0.31630000  0.51770000  1.0 -0.033525912
C  C80  1  0.90202000  0.30758000  0.51728000  1.0 -0.0084640461
C  C81  1  0.93200000  0.17840000  0.51580000  1.0 0.3264708179
C  C82  1  0.51894000  0.31666000  0.91034000  1.0 -0.033525912
C  C83  1  0.52110000  0.30710000  0.96270000  1.0 -0.0084640461
C  C84  1  0.52150000  0.25390000  0.00670000  1.0 0.0105255456
C  C85  1  0.51790000  0.37690000  0.87030000  1.0 0.3517284538
C  C86  1  0.52430000  0.21090000  0.11310000  1.0 0.0729092808
C  C87  1  0.51990000  0.21030000  0.99830000  1.0 0.0105255456
C  C88  1  0.51770000  0.21990000  0.94610000  1.0 -0.0357783924
C  C89  1  0.51728000  0.27312000  0.90202000  1.0 -0.0084640461
C  C90  1  0.51580000  0.37380000  0.93200000  1.0 0.3264708179
C  C91  1  0.31666000  0.51894000  0.25406000  1.0 -0.033525912
C  C92  1  0.30710000  0.52110000  0.20910000  1.0 -0.0084640461
C  C93  1  0.25390000  0.52150000  0.21790000  1.0 0.0105255456
C  C94  1  0.37690000  0.51790000  0.23490000  1.0 0.3517284538
C  C95  1  0.21090000  0.52430000  0.15170000  1.0 0.0729092808
C  C96  1  0.21030000  0.51990000  0.27150000  1.0 0.0105255456
C  C97  1  0.21990000  0.51770000  0.31630000  1.0 -0.033525912
C  C98  1  0.27312000  0.51728000  0.30758000  1.0 -0.0084640461
C  C99  1  0.37380000  0.51580000  0.17840000  1.0 0.3264708179
C  C100  1  0.25406000  0.91034000  0.31666000  1.0 -0.033525912
C  C101  1  0.20910000  0.96270000  0.30710000  1.0 -0.0084640461
C  C102  1  0.21790000  0.00670000  0.25390000  1.0 0.0105255456
C  C103  1  0.23490000  0.87030000  0.37690000  1.0 0.3517284538
C  C104  1  0.15170000  0.11310000  0.21090000  1.0 0.0729092808
C  C105  1  0.27150000  0.99830000  0.21030000  1.0 0.0105255456
C  C106  1  0.31630000  0.94610000  0.21990000  1.0 -0.0357783924
C  C107  1  0.30758000  0.90202000  0.27312000  1.0 -0.0084640461
C  C108  1  0.17840000  0.93200000  0.37380000  1.0 0.3264708179
C  C109  1  0.48106000  0.08966000  0.68334000  1.0 -0.033525912
C  C110  1  0.47890000  0.03730000  0.69290000  1.0 -0.0084640461
C  C111  1  0.47850000  0.99330000  0.74610000  1.0 0.0105255456
C  C112  1  0.48210000  0.12970000  0.62310000  1.0 0.3517284538
C  C113  1  0.47570000  0.88690000  0.78910000  1.0 0.0786096974
C  C114  1  0.48010000  0.00170000  0.78970000  1.0 0.0162494089
C  C115  1  0.48230000  0.05390000  0.78010000  1.0 -0.0357783924
C  C116  1  0.48272000  0.09798000  0.72688000  1.0 -0.0084640461
C  C117  1  0.48420000  0.06800000  0.62620000  1.0 0.3264708179
C  C118  1  0.08966000  0.48106000  0.74594000  1.0 -0.033525912
C  C119  1  0.03730000  0.47890000  0.79090000  1.0 -0.0084640461
C  C120  1  0.99330000  0.47850000  0.78210000  1.0 0.0105255456
C  C121  1  0.12970000  0.48210000  0.76510000  1.0 0.3517284538
C  C122  1  0.88690000  0.47570000  0.84830000  1.0 0.0786096974
C  C123  1  0.00170000  0.48010000  0.72850000  1.0 0.0105255456
C  C124  1  0.05390000  0.48230000  0.68370000  1.0 -0.0357783924
C  C125  1  0.09798000  0.48272000  0.69242000  1.0 -0.0084640461
C  C126  1  0.06800000  0.48420000  0.82160000  1.0 0.3264708179
C  C127  1  0.74594000  0.68334000  0.08966000  1.0 -0.033525912
C  C128  1  0.79090000  0.69290000  0.03730000  1.0 -0.0084640461
C  C129  1  0.78210000  0.74610000  0.99330000  1.0 0.0105255456
C  C130  1  0.76510000  0.62310000  0.12970000  1.0 0.3517284538
C  C131  1  0.84830000  0.78910000  0.88690000  1.0 0.0786096974
C  C132  1  0.72850000  0.78970000  0.00170000  1.0 0.0105255456
C  C133  1  0.68370000  0.78010000  0.05390000  1.0 -0.033525912
C  C134  1  0.69242000  0.72688000  0.09798000  1.0 -0.0084640461
C  C135  1  0.82160000  0.62620000  0.06800000  1.0 0.3264708179
C  C136  1  0.68334000  0.74594000  0.48106000  1.0 -0.033525912
C  C137  1  0.69290000  0.79090000  0.47890000  1.0 -0.0084640461
C  C138  1  0.74610000  0.78210000  0.47850000  1.0 0.0105255456
C  C139  1  0.62310000  0.76510000  0.48210000  1.0 0.3517284538
C  C140  1  0.78910000  0.84830000  0.47570000  1.0 0.0729092808
C  C141  1  0.78970000  0.72850000  0.48010000  1.0 0.0162494089
C  C142  1  0.78010000  0.68370000  0.48230000  1.0 -0.033525912
C  C143  1  0.72688000  0.69242000  0.48272000  1.0 -0.0084640461
C  C144  1  0.62620000  0.82160000  0.48420000  1.0 0.3264708179
C  C145  1  0.74594000  0.48106000  0.68334000  1.0 -0.033525912
C  C146  1  0.79090000  0.47890000  0.69290000  1.0 -0.0084640461
C  C147  1  0.78210000  0.47850000  0.74610000  1.0 0.0105255456
C  C148  1  0.76510000  0.48210000  0.62310000  1.0 0.3517284538
C  C149  1  0.84830000  0.47570000  0.78910000  1.0 0.0729092808
C  C150  1  0.72850000  0.48010000  0.78970000  1.0 0.0105255456
C  C151  1  0.68370000  0.48230000  0.78010000  1.0 -0.033525912
C  C152  1  0.69242000  0.48272000  0.72688000  1.0 -0.0084640461
C  C153  1  0.82160000  0.48420000  0.62620000  1.0 0.3264708179
C  C154  1  0.68334000  0.08966000  0.74594000  1.0 -0.033525912
C  C155  1  0.69290000  0.03730000  0.79090000  1.0 -0.0084640461
C  C156  1  0.74610000  0.99330000  0.78210000  1.0 0.0105255456
C  C157  1  0.62310000  0.12970000  0.76510000  1.0 0.3517284538
C  C158  1  0.78910000  0.88690000  0.84830000  1.0 0.0729092808
C  C159  1  0.78970000  0.00170000  0.72850000  1.0 0.0105255456
C  C160  1  0.78010000  0.05390000  0.68370000  1.0 -0.0357783924
C  C161  1  0.72688000  0.09798000  0.69242000  1.0 -0.0084640461
C  C162  1  0.62620000  0.06800000  0.82160000  1.0 0.3264708179
C  C163  1  0.48106000  0.74594000  0.08966000  1.0 -0.033525912
C  C164  1  0.47890000  0.79090000  0.03730000  1.0 -0.0084640461
C  C165  1  0.47850000  0.78210000  0.99330000  1.0 0.0105255456
C  C166  1  0.48210000  0.76510000  0.12970000  1.0 0.3517284538
C  C167  1  0.47570000  0.84830000  0.88690000  1.0 0.0729092808
C  C168  1  0.48010000  0.72850000  0.00170000  1.0 0.0105255456
C  C169  1  0.48230000  0.68370000  0.05390000  1.0 -0.033525912
C  C170  1  0.48272000  0.69242000  0.09798000  1.0 -0.0084640461
C  C171  1  0.48420000  0.82160000  0.06800000  1.0 0.3264708179
C  C172  1  0.08966000  0.68334000  0.48106000  1.0 -0.033525912
C  C173  1  0.03730000  0.69290000  0.47890000  1.0 -0.0084640461
C  C174  1  0.99330000  0.74610000  0.47850000  1.0 0.0105255456
C  C175  1  0.12970000  0.62310000  0.48210000  1.0 0.3517284538
C  C176  1  0.88690000  0.78910000  0.47570000  1.0 0.0786096974
C  C177  1  0.00170000  0.78970000  0.48010000  1.0 0.0105255456
C  C178  1  0.05390000  0.78010000  0.48230000  1.0 -0.0357783924
C  C179  1  0.09798000  0.72688000  0.48272000  1.0 -0.0084640461
C  C180  1  0.06800000  0.62620000  0.48420000  1.0 0.3264708179
C  C181  1  0.08966000  0.74594000  0.68334000  1.0 -0.033525912
C  C182  1  0.03730000  0.79090000  0.69290000  1.0 -0.0084640461
C  C183  1  0.99330000  0.78210000  0.74610000  1.0 0.0105255456
C  C184  1  0.12970000  0.76510000  0.62310000  1.0 0.3517284538
C  C185  1  0.88690000  0.84830000  0.78910000  1.0 0.0729092808
C  C186  1  0.00170000  0.72850000  0.78970000  1.0 0.0105255456
C  C187  1  0.05390000  0.68370000  0.78010000  1.0 -0.0357783924
C  C188  1  0.09798000  0.69242000  0.72688000  1.0 -0.0084640461
C  C189  1  0.06800000  0.82160000  0.62620000  1.0 0.3264708179
C  C190  1  0.48106000  0.68334000  0.74594000  1.0 -0.033525912
C  C191  1  0.47890000  0.69290000  0.79090000  1.0 -0.0084640461
C  C192  1  0.47850000  0.74610000  0.78210000  1.0 0.0105255456
C  C193  1  0.48210000  0.62310000  0.76510000  1.0 0.3517284538
C  C194  1  0.47570000  0.78910000  0.84830000  1.0 0.0729092808
C  C195  1  0.48010000  0.78970000  0.72850000  1.0 0.0105255456
C  C196  1  0.48230000  0.78010000  0.68370000  1.0 -0.033525912
C  C197  1  0.48272000  0.72688000  0.69242000  1.0 -0.0084640461
C  C198  1  0.48420000  0.62620000  0.82160000  1.0 0.3264708179
C  C199  1  0.68334000  0.48106000  0.08966000  1.0 -0.033525912
C  C200  1  0.69290000  0.47890000  0.03730000  1.0 -0.0084640461
C  C201  1  0.74610000  0.47850000  0.99330000  1.0 0.0105255456
C  C202  1  0.62310000  0.48210000  0.12970000  1.0 0.3517284538
C  C203  1  0.78910000  0.47570000  0.88690000  1.0 0.0729092808
C  C204  1  0.78970000  0.48010000  0.00170000  1.0 0.0105255456
C  C205  1  0.78010000  0.48230000  0.05390000  1.0 -0.033525912
C  C206  1  0.72688000  0.48272000  0.09798000  1.0 -0.0084640461
C  C207  1  0.62620000  0.48420000  0.06800000  1.0 0.3264708179
C  C208  1  0.74594000  0.08966000  0.48106000  1.0 -0.033525912
C  C209  1  0.79090000  0.03730000  0.47890000  1.0 -0.0084640461
C  C210  1  0.78210000  0.99330000  0.47850000  1.0 0.0105255456
C  C211  1  0.76510000  0.12970000  0.48210000  1.0 0.3517284538
C  C212  1  0.84830000  0.88690000  0.47570000  1.0 0.0729092808
C  C213  1  0.72850000  0.00170000  0.48010000  1.0 0.0105255456
C  C214  1  0.68370000  0.05390000  0.48230000  1.0 -0.033525912
C  C215  1  0.69242000  0.09798000  0.48272000  1.0 -0.0084640461
C  C216  1  0.82160000  0.06800000  0.48420000  1.0 0.3264708179
C  C217  1  0.48106000  0.08966000  0.74594000  1.0 -0.033525912
C  C218  1  0.47890000  0.03730000  0.79090000  1.0 -0.0084640461
C  C219  1  0.47850000  0.99330000  0.78210000  1.0 0.0105255456
C  C220  1  0.48210000  0.12970000  0.76510000  1.0 0.3517284538
C  C221  1  0.47570000  0.88690000  0.84830000  1.0 0.0729092808
C  C222  1  0.48010000  0.00170000  0.72850000  1.0 0.0105255456
C  C223  1  0.48230000  0.05390000  0.68370000  1.0 -0.0357783924
C  C224  1  0.48272000  0.09798000  0.69242000  1.0 -0.0084640461
C  C225  1  0.48420000  0.06800000  0.82160000  1.0 0.3264708179
C  C226  1  0.08966000  0.48106000  0.68334000  1.0 -0.033525912
C  C227  1  0.03730000  0.47890000  0.69290000  1.0 -0.0084640461
C  C228  1  0.99330000  0.47850000  0.74610000  1.0 0.0105255456
C  C229  1  0.12970000  0.48210000  0.62310000  1.0 0.3517284538
C  C230  1  0.88690000  0.47570000  0.78910000  1.0 0.0729092808
C  C231  1  0.00170000  0.48010000  0.78970000  1.0 0.0105255456
C  C232  1  0.05390000  0.48230000  0.78010000  1.0 -0.033525912
C  C233  1  0.09798000  0.48272000  0.72688000  1.0 -0.0084640461
C  C234  1  0.06800000  0.48420000  0.62620000  1.0 0.3264708179
C  C235  1  0.74594000  0.68334000  0.48106000  1.0 -0.033525912
C  C236  1  0.79090000  0.69290000  0.47890000  1.0 -0.0084640461
C  C237  1  0.78210000  0.74610000  0.47850000  1.0 0.0105255456
C  C238  1  0.76510000  0.62310000  0.48210000  1.0 0.3517284538
C  C239  1  0.84830000  0.78910000  0.47570000  1.0 0.0729092808
C  C240  1  0.72850000  0.78970000  0.48010000  1.0 0.0162494089
C  C241  1  0.68370000  0.78010000  0.48230000  1.0 -0.033525912
C  C242  1  0.69242000  0.72688000  0.48272000  1.0 -0.0084640461
C  C243  1  0.82160000  0.62620000  0.48420000  1.0 0.3264708179
C  C244  1  0.68334000  0.74594000  0.08966000  1.0 -0.033525912
C  C245  1  0.69290000  0.79090000  0.03730000  1.0 -0.0084640461
C  C246  1  0.74610000  0.78210000  0.99330000  1.0 0.0105255456
C  C247  1  0.62310000  0.76510000  0.12970000  1.0 0.3517284538
C  C248  1  0.78910000  0.84830000  0.88690000  1.0 0.0729092808
C  C249  1  0.78970000  0.72850000  0.00170000  1.0 0.0105255456
C  C250  1  0.78010000  0.68370000  0.05390000  1.0 -0.033525912
C  C251  1  0.72688000  0.69242000  0.09798000  1.0 -0.0084640461
C  C252  1  0.62620000  0.82160000  0.06800000  1.0 0.3264708179
C  C253  1  0.74594000  0.48106000  0.08966000  1.0 -0.033525912
C  C254  1  0.79090000  0.47890000  0.03730000  1.0 -0.0084640461
C  C255  1  0.78210000  0.47850000  0.99330000  1.0 0.0105255456
C  C256  1  0.76510000  0.48210000  0.12970000  1.0 0.3517284538
C  C257  1  0.84830000  0.47570000  0.88690000  1.0 0.0729092808
C  C258  1  0.72850000  0.48010000  0.00170000  1.0 0.0105255456
C  C259  1  0.68370000  0.48230000  0.05390000  1.0 -0.033525912
C  C260  1  0.69242000  0.48272000  0.09798000  1.0 -0.0084640461
C  C261  1  0.82160000  0.48420000  0.06800000  1.0 0.3264708179
C  C262  1  0.68334000  0.08966000  0.48106000  1.0 -0.033525912
C  C263  1  0.69290000  0.03730000  0.47890000  1.0 -0.0084640461
C  C264  1  0.74610000  0.99330000  0.47850000  1.0 0.0105255456
C  C265  1  0.62310000  0.12970000  0.48210000  1.0 0.3517284538
C  C266  1  0.78910000  0.88690000  0.47570000  1.0 0.0729092808
C  C267  1  0.78970000  0.00170000  0.48010000  1.0 0.0105255456
C  C268  1  0.78010000  0.05390000  0.48230000  1.0 -0.033525912
C  C269  1  0.72688000  0.09798000  0.48272000  1.0 -0.0084640461
C  C270  1  0.62620000  0.06800000  0.48420000  1.0 0.3264708179
C  C271  1  0.48106000  0.74594000  0.68334000  1.0 -0.033525912
C  C272  1  0.47890000  0.79090000  0.69290000  1.0 -0.0084640461
C  C273  1  0.47850000  0.78210000  0.74610000  1.0 0.0105255456
C  C274  1  0.48210000  0.76510000  0.62310000  1.0 0.3517284538
C  C275  1  0.47570000  0.84830000  0.78910000  1.0 0.0729092808
C  C276  1  0.48010000  0.72850000  0.78970000  1.0 0.0162494089
C  C277  1  0.48230000  0.68370000  0.78010000  1.0 -0.0357783924
C  C278  1  0.48272000  0.69242000  0.72688000  1.0 -0.0084640461
C  C279  1  0.48420000  0.82160000  0.62620000  1.0 0.3264708179
C  C280  1  0.08966000  0.68334000  0.74594000  1.0 -0.033525912
C  C281  1  0.03730000  0.69290000  0.79090000  1.0 -0.0084640461
C  C282  1  0.99330000  0.74610000  0.78210000  1.0 0.0105255456
C  C283  1  0.12970000  0.62310000  0.76510000  1.0 0.3517284538
C  C284  1  0.88690000  0.78910000  0.84830000  1.0 0.0729092808
C  C285  1  0.00170000  0.78970000  0.72850000  1.0 0.0105255456
C  C286  1  0.05390000  0.78010000  0.68370000  1.0 -0.033525912
C  C287  1  0.09798000  0.72688000  0.69242000  1.0 -0.0084640461
C  C288  1  0.06800000  0.62620000  0.82160000  1.0 0.3264708179
C  C289  1  0.08966000  0.74594000  0.48106000  1.0 -0.033525912
C  C290  1  0.03730000  0.79090000  0.47890000  1.0 -0.0084640461
C  C291  1  0.99330000  0.78210000  0.47850000  1.0 0.0105255456
C  C292  1  0.12970000  0.76510000  0.48210000  1.0 0.3517284538
C  C293  1  0.88690000  0.84830000  0.47570000  1.0 0.0729092808
C  C294  1  0.00170000  0.72850000  0.48010000  1.0 0.0105255456
C  C295  1  0.05390000  0.68370000  0.48230000  1.0 -0.0357783924
C  C296  1  0.09798000  0.69242000  0.48272000  1.0 -0.0084640461
C  C297  1  0.06800000  0.82160000  0.48420000  1.0 0.3264708179
C  C298  1  0.48106000  0.68334000  0.08966000  1.0 -0.033525912
C  C299  1  0.47890000  0.69290000  0.03730000  1.0 -0.0084640461
C  C300  1  0.47850000  0.74610000  0.99330000  1.0 0.0105255456
C  C301  1  0.48210000  0.62310000  0.12970000  1.0 0.3517284538
C  C302  1  0.47570000  0.78910000  0.88690000  1.0 0.0786096974
C  C303  1  0.48010000  0.78970000  0.00170000  1.0 0.0105255456
C  C304  1  0.48230000  0.78010000  0.05390000  1.0 -0.033525912
C  C305  1  0.48272000  0.72688000  0.09798000  1.0 -0.0084640461
C  C306  1  0.48420000  0.62620000  0.06800000  1.0 0.3264708179
C  C307  1  0.68334000  0.48106000  0.74594000  1.0 -0.033525912
C  C308  1  0.69290000  0.47890000  0.79090000  1.0 -0.0084640461
C  C309  1  0.74610000  0.47850000  0.78210000  1.0 0.0105255456
C  C310  1  0.62310000  0.48210000  0.76510000  1.0 0.3517284538
C  C311  1  0.78910000  0.47570000  0.84830000  1.0 0.0729092808
C  C312  1  0.78970000  0.48010000  0.72850000  1.0 0.0105255456
C  C313  1  0.78010000  0.48230000  0.68370000  1.0 -0.033525912
C  C314  1  0.72688000  0.48272000  0.69242000  1.0 -0.0084640461
C  C315  1  0.62620000  0.48420000  0.82160000  1.0 0.3264708179
C  C316  1  0.74594000  0.08966000  0.68334000  1.0 -0.033525912
C  C317  1  0.79090000  0.03730000  0.69290000  1.0 -0.0084640461
C  C318  1  0.78210000  0.99330000  0.74610000  1.0 0.0105255456
C  C319  1  0.76510000  0.12970000  0.62310000  1.0 0.3517284538
C  C320  1  0.84830000  0.88690000  0.78910000  1.0 0.0786096974
C  C321  1  0.72850000  0.00170000  0.78970000  1.0 0.0105255456
C  C322  1  0.68370000  0.05390000  0.78010000  1.0 -0.0357783924
C  C323  1  0.69242000  0.09798000  0.72688000  1.0 -0.0084640461
C  C324  1  0.82160000  0.06800000  0.62620000  1.0 0.3264708179
C  C325  1  0.51894000  0.91034000  0.31666000  1.0 -0.033525912
C  C326  1  0.52110000  0.96270000  0.30710000  1.0 -0.0084640461
C  C327  1  0.52150000  0.00670000  0.25390000  1.0 0.0105255456
C  C328  1  0.51790000  0.87030000  0.37690000  1.0 0.3517284538
C  C329  1  0.52430000  0.11310000  0.21090000  1.0 0.0729092808
C  C330  1  0.51990000  0.99830000  0.21030000  1.0 0.0105255456
C  C331  1  0.51770000  0.94610000  0.21990000  1.0 -0.033525912
C  C332  1  0.51728000  0.90202000  0.27312000  1.0 -0.0084640461
C  C333  1  0.51580000  0.93200000  0.37380000  1.0 0.3264708179
C  C334  1  0.91034000  0.51894000  0.25406000  1.0 -0.033525912
C  C335  1  0.96270000  0.52110000  0.20910000  1.0 -0.0084640461
C  C336  1  0.00670000  0.52150000  0.21790000  1.0 0.0105255456
C  C337  1  0.87030000  0.51790000  0.23490000  1.0 0.3517284538
C  C338  1  0.11310000  0.52430000  0.15170000  1.0 0.0729092808
C  C339  1  0.99830000  0.51990000  0.27150000  1.0 0.0105255456
C  C340  1  0.94610000  0.51770000  0.31630000  1.0 -0.033525912
C  C341  1  0.90202000  0.51728000  0.30758000  1.0 -0.0084640461
C  C342  1  0.93200000  0.51580000  0.17840000  1.0 0.3264708179
C  C343  1  0.25406000  0.31666000  0.91034000  1.0 -0.033525912
C  C344  1  0.20910000  0.30710000  0.96270000  1.0 -0.0084640461
C  C345  1  0.21790000  0.25390000  0.00670000  1.0 0.0105255456
C  C346  1  0.23490000  0.37690000  0.87030000  1.0 0.3517284538
C  C347  1  0.15170000  0.21090000  0.11310000  1.0 0.0729092808
C  C348  1  0.27150000  0.21030000  0.99830000  1.0 0.0105255456
C  C349  1  0.31630000  0.21990000  0.94610000  1.0 -0.033525912
C  C350  1  0.30758000  0.27312000  0.90202000  1.0 -0.0084640461
C  C351  1  0.17840000  0.37380000  0.93200000  1.0 0.3264708179
C  C352  1  0.31666000  0.25406000  0.51894000  1.0 -0.033525912
C  C353  1  0.30710000  0.20910000  0.52110000  1.0 -0.0084640461
C  C354  1  0.25390000  0.21790000  0.52150000  1.0 0.0105255456
C  C355  1  0.37690000  0.23490000  0.51790000  1.0 0.3517284538
C  C356  1  0.21090000  0.15170000  0.52430000  1.0 0.0729092808
C  C357  1  0.21030000  0.27150000  0.51990000  1.0 0.0105255456
C  C358  1  0.21990000  0.31630000  0.51770000  1.0 -0.033525912
C  C359  1  0.27312000  0.30758000  0.51728000  1.0 -0.0084640461
C  C360  1  0.37380000  0.17840000  0.51580000  1.0 0.3264708179
C  C361  1  0.25406000  0.51894000  0.31666000  1.0 -0.033525912
C  C362  1  0.20910000  0.52110000  0.30710000  1.0 -0.0084640461
C  C363  1  0.21790000  0.52150000  0.25390000  1.0 0.0105255456
C  C364  1  0.23490000  0.51790000  0.37690000  1.0 0.3517284538
C  C365  1  0.15170000  0.52430000  0.21090000  1.0 0.0729092808
C  C366  1  0.27150000  0.51990000  0.21030000  1.0 0.0105255456
C  C367  1  0.31630000  0.51770000  0.21990000  1.0 -0.0357783924
C  C368  1  0.30758000  0.51728000  0.27312000  1.0 -0.0084640461
C  C369  1  0.17840000  0.51580000  0.37380000  1.0 0.3264708179
C  C370  1  0.31666000  0.91034000  0.25406000  1.0 -0.033525912
C  C371  1  0.30710000  0.96270000  0.20910000  1.0 -0.0084640461
C  C372  1  0.25390000  0.00670000  0.21790000  1.0 0.0105255456
C  C373  1  0.37690000  0.87030000  0.23490000  1.0 0.3517284538
C  C374  1  0.21090000  0.11310000  0.15170000  1.0 0.0729092808
C  C375  1  0.21030000  0.99830000  0.27150000  1.0 0.0105255456
C  C376  1  0.21990000  0.94610000  0.31630000  1.0 -0.033525912
C  C377  1  0.27312000  0.90202000  0.30758000  1.0 -0.0084640461
C  C378  1  0.37380000  0.93200000  0.17840000  1.0 0.3264708179
C  C379  1  0.51894000  0.25406000  0.91034000  1.0 -0.033525912
C  C380  1  0.52110000  0.20910000  0.96270000  1.0 -0.0084640461
C  C381  1  0.52150000  0.21790000  0.00670000  1.0 0.0105255456
C  C382  1  0.51790000  0.23490000  0.87030000  1.0 0.3517284538
C  C383  1  0.52430000  0.15170000  0.11310000  1.0 0.0729092808
C  C384  1  0.51990000  0.27150000  0.99830000  1.0 0.0162494089
C  C385  1  0.51770000  0.31630000  0.94610000  1.0 -0.0357783924
C  C386  1  0.51728000  0.30758000  0.90202000  1.0 -0.0084640461
C  C387  1  0.51580000  0.17840000  0.93200000  1.0 0.3264708179
C  C388  1  0.91034000  0.31666000  0.51894000  1.0 -0.033525912
C  C389  1  0.96270000  0.30710000  0.52110000  1.0 -0.0084640461
C  C390  1  0.00670000  0.25390000  0.52150000  1.0 0.0105255456
C  C391  1  0.87030000  0.37690000  0.51790000  1.0 0.3517284538
C  C392  1  0.11310000  0.21090000  0.52430000  1.0 0.0729092808
C  C393  1  0.99830000  0.21030000  0.51990000  1.0 0.0105255456
C  C394  1  0.94610000  0.21990000  0.51770000  1.0 -0.033525912
C  C395  1  0.90202000  0.27312000  0.51728000  1.0 -0.0084640461
C  C396  1  0.93200000  0.37380000  0.51580000  1.0 0.3264708179
C  C397  1  0.91034000  0.25406000  0.31666000  1.0 -0.033525912
C  C398  1  0.96270000  0.20910000  0.30710000  1.0 -0.0084640461
C  C399  1  0.00670000  0.21790000  0.25390000  1.0 0.0105255456
C  C400  1  0.87030000  0.23490000  0.37690000  1.0 0.3517284538
C  C401  1  0.11310000  0.15170000  0.21090000  1.0 0.0729092808
C  C402  1  0.99830000  0.27150000  0.21030000  1.0 0.0162494089
C  C403  1  0.94610000  0.31630000  0.21990000  1.0 -0.033525912
C  C404  1  0.90202000  0.30758000  0.27312000  1.0 -0.0084640461
C  C405  1  0.93200000  0.17840000  0.37380000  1.0 0.3264708179
C  C406  1  0.51894000  0.31666000  0.25406000  1.0 -0.033525912
C  C407  1  0.52110000  0.30710000  0.20910000  1.0 -0.0084640461
C  C408  1  0.52150000  0.25390000  0.21790000  1.0 0.0105255456
C  C409  1  0.51790000  0.37690000  0.23490000  1.0 0.3517284538
C  C410  1  0.52430000  0.21090000  0.15170000  1.0 0.0729092808
C  C411  1  0.51990000  0.21030000  0.27150000  1.0 0.0105255456
C  C412  1  0.51770000  0.21990000  0.31630000  1.0 -0.0357783924
C  C413  1  0.51728000  0.27312000  0.30758000  1.0 -0.0084640461
C  C414  1  0.51580000  0.37380000  0.17840000  1.0 0.3264708179
C  C415  1  0.31666000  0.51894000  0.91034000  1.0 -0.033525912
C  C416  1  0.30710000  0.52110000  0.96270000  1.0 -0.0084640461
C  C417  1  0.25390000  0.52150000  0.00670000  1.0 0.0105255456
C  C418  1  0.37690000  0.51790000  0.87030000  1.0 0.3517284538
C  C419  1  0.21090000  0.52430000  0.11310000  1.0 0.0729092808
C  C420  1  0.21030000  0.51990000  0.99830000  1.0 0.0105255456
C  C421  1  0.21990000  0.51770000  0.94610000  1.0 -0.0357783924
C  C422  1  0.27312000  0.51728000  0.90202000  1.0 -0.0084640461
C  C423  1  0.37380000  0.51580000  0.93200000  1.0 0.3264708179
C  C424  1  0.25406000  0.91034000  0.51894000  1.0 -0.033525912
C  C425  1  0.20910000  0.96270000  0.52110000  1.0 -0.0084640461
C  C426  1  0.21790000  0.00670000  0.52150000  1.0 0.0105255456
C  C427  1  0.23490000  0.87030000  0.51790000  1.0 0.3517284538
C  C428  1  0.15170000  0.11310000  0.52430000  1.0 0.0729092808
C  C429  1  0.27150000  0.99830000  0.51990000  1.0 0.0105255456
C  C430  1  0.31630000  0.94610000  0.51770000  1.0 -0.0357783924
C  C431  1  0.30758000  0.90202000  0.51728000  1.0 -0.0084640461
C  C432  1  0.17840000  0.93200000  0.51580000  1.0 0.3264708179
N  N1  1  0.52800000  0.05620000  0.17180000  1.0 -0.1359615511
N  N2  1  0.52440000  0.10700000  0.16480000  1.0 -0.0206909058
N  N3  1  0.05620000  0.52800000  0.24400000  1.0 -0.1359615511
N  N4  1  0.10700000  0.52440000  0.20380000  1.0 -0.0206909058
N  N5  1  0.17180000  0.24400000  0.52800000  1.0 -0.1359615511
N  N6  1  0.16480000  0.20380000  0.52440000  1.0 -0.0206909058
N  N7  1  0.24400000  0.17180000  0.05620000  1.0 -0.1359615511
N  N8  1  0.20380000  0.16480000  0.10700000  1.0 -0.0206909058
N  N9  1  0.17180000  0.52800000  0.05620000  1.0 -0.1359615511
N  N10  1  0.16480000  0.52440000  0.10700000  1.0 -0.0206909058
N  N11  1  0.24400000  0.05620000  0.52800000  1.0 -0.1359615511
N  N12  1  0.20380000  0.10700000  0.52440000  1.0 -0.0206909058
N  N13  1  0.52800000  0.17180000  0.24400000  1.0 -0.1332520487
N  N14  1  0.52440000  0.16480000  0.20380000  1.0 -0.0206909058
N  N15  1  0.05620000  0.24400000  0.17180000  1.0 -0.1359615511
N  N16  1  0.10700000  0.20380000  0.16480000  1.0 -0.0206909058
N  N17  1  0.05620000  0.17180000  0.52800000  1.0 -0.1359615511
N  N18  1  0.10700000  0.16480000  0.52440000  1.0 -0.0206909058
N  N19  1  0.52800000  0.24400000  0.05620000  1.0 -0.1359615511
N  N20  1  0.52440000  0.20380000  0.10700000  1.0 -0.0206909058
N  N21  1  0.24400000  0.52800000  0.17180000  1.0 -0.1359615511
N  N22  1  0.20380000  0.52440000  0.16480000  1.0 -0.0206909058
N  N23  1  0.17180000  0.05620000  0.24400000  1.0 -0.1359615511
N  N24  1  0.16480000  0.10700000  0.20380000  1.0 -0.0206909058
N  N25  1  0.47200000  0.94380000  0.75600000  1.0 -0.1332520487
N  N26  1  0.47560000  0.89300000  0.79620000  1.0 -0.0206909058
N  N27  1  0.94380000  0.47200000  0.82820000  1.0 -0.1332520487
N  N28  1  0.89300000  0.47560000  0.83520000  1.0 -0.0206909058
N  N29  1  0.82820000  0.75600000  0.94380000  1.0 -0.1359615511
N  N30  1  0.83520000  0.79620000  0.89300000  1.0 -0.0206909058
N  N31  1  0.75600000  0.82820000  0.47200000  1.0 -0.1332520487
N  N32  1  0.79620000  0.83520000  0.47560000  1.0 -0.0206909058
N  N33  1  0.82820000  0.47200000  0.75600000  1.0 -0.1359615511
N  N34  1  0.83520000  0.47560000  0.79620000  1.0 -0.0206909058
N  N35  1  0.75600000  0.94380000  0.82820000  1.0 -0.1359615511
N  N36  1  0.79620000  0.89300000  0.83520000  1.0 -0.0206909058
N  N37  1  0.47200000  0.82820000  0.94380000  1.0 -0.1332520487
N  N38  1  0.47560000  0.83520000  0.89300000  1.0 -0.0206909058
N  N39  1  0.94380000  0.75600000  0.47200000  1.0 -0.1332520487
N  N40  1  0.89300000  0.79620000  0.47560000  1.0 -0.0206909058
N  N41  1  0.94380000  0.82820000  0.75600000  1.0 -0.1359615511
N  N42  1  0.89300000  0.83520000  0.79620000  1.0 -0.0206909058
N  N43  1  0.47200000  0.75600000  0.82820000  1.0 -0.1359615511
N  N44  1  0.47560000  0.79620000  0.83520000  1.0 -0.0206909058
N  N45  1  0.75600000  0.47200000  0.94380000  1.0 -0.1359615511
N  N46  1  0.79620000  0.47560000  0.89300000  1.0 -0.0206909058
N  N47  1  0.82820000  0.94380000  0.47200000  1.0 -0.1332520487
N  N48  1  0.83520000  0.89300000  0.47560000  1.0 -0.0206909058
N  N49  1  0.47200000  0.94380000  0.82820000  1.0 -0.1359615511
N  N50  1  0.47560000  0.89300000  0.83520000  1.0 -0.0206909058
N  N51  1  0.94380000  0.47200000  0.75600000  1.0 -0.1359615511
N  N52  1  0.89300000  0.47560000  0.79620000  1.0 -0.0206909058
N  N53  1  0.82820000  0.75600000  0.47200000  1.0 -0.1332520487
N  N54  1  0.83520000  0.79620000  0.47560000  1.0 -0.0206909058
N  N55  1  0.75600000  0.82820000  0.94380000  1.0 -0.1359615511
N  N56  1  0.79620000  0.83520000  0.89300000  1.0 -0.0206909058
N  N57  1  0.82820000  0.47200000  0.94380000  1.0 -0.1359615511
N  N58  1  0.83520000  0.47560000  0.89300000  1.0 -0.0206909058
N  N59  1  0.75600000  0.94380000  0.47200000  1.0 -0.1332520487
N  N60  1  0.79620000  0.89300000  0.47560000  1.0 -0.0206909058
N  N61  1  0.47200000  0.82820000  0.75600000  1.0 -0.1359615511
N  N62  1  0.47560000  0.83520000  0.79620000  1.0 -0.0206909058
N  N63  1  0.94380000  0.75600000  0.82820000  1.0 -0.1332520487
N  N64  1  0.89300000  0.79620000  0.83520000  1.0 -0.0206909058
N  N65  1  0.94380000  0.82820000  0.47200000  1.0 -0.1332520487
N  N66  1  0.89300000  0.83520000  0.47560000  1.0 -0.0206909058
N  N67  1  0.47200000  0.75600000  0.94380000  1.0 -0.1332520487
N  N68  1  0.47560000  0.79620000  0.89300000  1.0 -0.0206909058
N  N69  1  0.75600000  0.47200000  0.82820000  1.0 -0.1332520487
N  N70  1  0.79620000  0.47560000  0.83520000  1.0 -0.0206909058
N  N71  1  0.82820000  0.94380000  0.75600000  1.0 -0.1332520487
N  N72  1  0.83520000  0.89300000  0.79620000  1.0 -0.0206909058
N  N73  1  0.52800000  0.05620000  0.24400000  1.0 -0.1359615511
N  N74  1  0.52440000  0.10700000  0.20380000  1.0 -0.0206909058
N  N75  1  0.05620000  0.52800000  0.17180000  1.0 -0.1359615511
N  N76  1  0.10700000  0.52440000  0.16480000  1.0 -0.0206909058
N  N77  1  0.17180000  0.24400000  0.05620000  1.0 -0.1359615511
N  N78  1  0.16480000  0.20380000  0.10700000  1.0 -0.0206909058
N  N79  1  0.24400000  0.17180000  0.52800000  1.0 -0.1359615511
N  N80  1  0.20380000  0.16480000  0.52440000  1.0 -0.0206909058
N  N81  1  0.17180000  0.52800000  0.24400000  1.0 -0.1359615511
N  N82  1  0.16480000  0.52440000  0.20380000  1.0 -0.0206909058
N  N83  1  0.24400000  0.05620000  0.17180000  1.0 -0.1359615511
N  N84  1  0.20380000  0.10700000  0.16480000  1.0 -0.0206909058
N  N85  1  0.52800000  0.17180000  0.05620000  1.0 -0.1359615511
N  N86  1  0.52440000  0.16480000  0.10700000  1.0 -0.0206909058
N  N87  1  0.05620000  0.24400000  0.52800000  1.0 -0.1359615511
N  N88  1  0.10700000  0.20380000  0.52440000  1.0 -0.0206909058
N  N89  1  0.05620000  0.17180000  0.24400000  1.0 -0.1332520487
N  N90  1  0.10700000  0.16480000  0.20380000  1.0 -0.0206909058
N  N91  1  0.52800000  0.24400000  0.17180000  1.0 -0.1332520487
N  N92  1  0.52440000  0.20380000  0.16480000  1.0 -0.0206909058
N  N93  1  0.24400000  0.52800000  0.05620000  1.0 -0.1359615511
N  N94  1  0.20380000  0.52440000  0.10700000  1.0 -0.0206909058
N  N95  1  0.17180000  0.05620000  0.52800000  1.0 -0.1359615511
N  N96  1  0.16480000  0.10700000  0.52440000  1.0 -0.0206909058
O  O1  1  0.51060000  0.97100000  0.13220000  1.0 -0.3847229992
O  O2  1  0.52720000  0.81560000  0.27240000  1.0 -0.4207866606
O  O3  1  0.51200000  0.88120000  0.19100000  1.0 -0.3857939358
O  O4  1  0.51810000  0.88370000  0.19090000  1.0 -0.3262171067
O  O5  1  0.97100000  0.51060000  0.38620000  1.0 -0.3857939358
O  O6  1  0.81560000  0.52720000  0.38480000  1.0 -0.4207866606
O  O7  1  0.88120000  0.51200000  0.41580000  1.0 -0.3857939358
O  O8  1  0.88370000  0.51810000  0.40730000  1.0 -0.3262171067
O  O9  1  0.13220000  0.38620000  0.51060000  1.0 -0.3857939358
O  O10  1  0.27240000  0.38480000  0.52720000  1.0 -0.4207866606
O  O11  1  0.19100000  0.41580000  0.51200000  1.0 -0.3847229992
O  O12  1  0.19090000  0.40730000  0.51810000  1.0 -0.3262171067
O  O13  1  0.38620000  0.13220000  0.97100000  1.0 -0.3857939358
O  O14  1  0.38480000  0.27240000  0.81560000  1.0 -0.4207866606
O  O15  1  0.41580000  0.19100000  0.88120000  1.0 -0.3847229992
O  O16  1  0.40730000  0.19090000  0.88370000  1.0 -0.3262171067
O  O17  1  0.13220000  0.51060000  0.97100000  1.0 -0.3857939358
O  O18  1  0.27240000  0.52720000  0.81560000  1.0 -0.4207866606
O  O19  1  0.19100000  0.51200000  0.88120000  1.0 -0.3847229992
O  O20  1  0.19090000  0.51810000  0.88370000  1.0 -0.3262171067
O  O21  1  0.38620000  0.97100000  0.51060000  1.0 -0.3857939358
O  O22  1  0.38480000  0.81560000  0.52720000  1.0 -0.4207866606
O  O23  1  0.41580000  0.88120000  0.51200000  1.0 -0.3857939358
O  O24  1  0.40730000  0.88370000  0.51810000  1.0 -0.3262171067
O  O25  1  0.51060000  0.13220000  0.38620000  1.0 -0.3857939358
O  O26  1  0.52720000  0.27240000  0.38480000  1.0 -0.4207866606
O  O27  1  0.51200000  0.19100000  0.41580000  1.0 -0.3847229992
O  O28  1  0.51810000  0.19090000  0.40730000  1.0 -0.3262171067
O  O29  1  0.97100000  0.38620000  0.13220000  1.0 -0.3857939358
O  O30  1  0.81560000  0.38480000  0.27240000  1.0 -0.4207866606
O  O31  1  0.88120000  0.41580000  0.19100000  1.0 -0.3857939358
O  O32  1  0.88370000  0.40730000  0.19090000  1.0 -0.3262171067
O  O33  1  0.97100000  0.13220000  0.51060000  1.0 -0.3847229992
O  O34  1  0.81560000  0.27240000  0.52720000  1.0 -0.4207866606
O  O35  1  0.88120000  0.19100000  0.51200000  1.0 -0.3847229992
O  O36  1  0.88370000  0.19090000  0.51810000  1.0 -0.3262171067
O  O37  1  0.51060000  0.38620000  0.97100000  1.0 -0.3857939358
O  O38  1  0.52720000  0.38480000  0.81560000  1.0 -0.4207866606
O  O39  1  0.51200000  0.41580000  0.88120000  1.0 -0.3857939358
O  O40  1  0.51810000  0.40730000  0.88370000  1.0 -0.3262171067
O  O41  1  0.38620000  0.51060000  0.13220000  1.0 -0.3857939358
O  O42  1  0.38480000  0.52720000  0.27240000  1.0 -0.4207866606
O  O43  1  0.41580000  0.51200000  0.19100000  1.0 -0.3847229992
O  O44  1  0.40730000  0.51810000  0.19090000  1.0 -0.3262171067
O  O45  1  0.13220000  0.97100000  0.38620000  1.0 -0.3857939358
O  O46  1  0.27240000  0.81560000  0.38480000  1.0 -0.4207866606
O  O47  1  0.19100000  0.88120000  0.41580000  1.0 -0.3847229992
O  O48  1  0.19090000  0.88370000  0.40730000  1.0 -0.3262171067
O  O49  1  0.48940000  0.02900000  0.61380000  1.0 -0.3857939358
O  O50  1  0.47280000  0.18440000  0.61520000  1.0 -0.4207866606
O  O51  1  0.48800000  0.11880000  0.58420000  1.0 -0.3847229992
O  O52  1  0.48190000  0.11630000  0.59270000  1.0 -0.3262171067
O  O53  1  0.02900000  0.48940000  0.86780000  1.0 -0.3847229992
O  O54  1  0.18440000  0.47280000  0.72760000  1.0 -0.4207866606
O  O55  1  0.11880000  0.48800000  0.80900000  1.0 -0.3857939358
O  O56  1  0.11630000  0.48190000  0.80910000  1.0 -0.3262171067
O  O57  1  0.86780000  0.61380000  0.02900000  1.0 -0.3847229992
O  O58  1  0.72760000  0.61520000  0.18440000  1.0 -0.4207866606
O  O59  1  0.80900000  0.58420000  0.11880000  1.0 -0.3857939358
O  O60  1  0.80910000  0.59270000  0.11630000  1.0 -0.3262171067
O  O61  1  0.61380000  0.86780000  0.48940000  1.0 -0.3857939358
O  O62  1  0.61520000  0.72760000  0.47280000  1.0 -0.4207866606
O  O63  1  0.58420000  0.80900000  0.48800000  1.0 -0.3857939358
O  O64  1  0.59270000  0.80910000  0.48190000  1.0 -0.3262171067
O  O65  1  0.86780000  0.48940000  0.61380000  1.0 -0.3847229992
O  O66  1  0.72760000  0.47280000  0.61520000  1.0 -0.4207866606
O  O67  1  0.80900000  0.48800000  0.58420000  1.0 -0.3857939358
O  O68  1  0.80910000  0.48190000  0.59270000  1.0 -0.3262171067
O  O69  1  0.61380000  0.02900000  0.86780000  1.0 -0.3857939358
O  O70  1  0.61520000  0.18440000  0.72760000  1.0 -0.4207866606
O  O71  1  0.58420000  0.11880000  0.80900000  1.0 -0.3847229992
O  O72  1  0.59270000  0.11630000  0.80910000  1.0 -0.3262171067
O  O73  1  0.48940000  0.86780000  0.02900000  1.0 -0.3847229992
O  O74  1  0.47280000  0.72760000  0.18440000  1.0 -0.4207866606
O  O75  1  0.48800000  0.80900000  0.11880000  1.0 -0.3847229992
O  O76  1  0.48190000  0.80910000  0.11630000  1.0 -0.3262171067
O  O77  1  0.02900000  0.61380000  0.48940000  1.0 -0.3847229992
O  O78  1  0.18440000  0.61520000  0.47280000  1.0 -0.4207866606
O  O79  1  0.11880000  0.58420000  0.48800000  1.0 -0.3847229992
O  O80  1  0.11630000  0.59270000  0.48190000  1.0 -0.3262171067
O  O81  1  0.02900000  0.86780000  0.61380000  1.0 -0.3847229992
O  O82  1  0.18440000  0.72760000  0.61520000  1.0 -0.4207866606
O  O83  1  0.11880000  0.80900000  0.58420000  1.0 -0.3857939358
O  O84  1  0.11630000  0.80910000  0.59270000  1.0 -0.3262171067
O  O85  1  0.48940000  0.61380000  0.86780000  1.0 -0.3857939358
O  O86  1  0.47280000  0.61520000  0.72760000  1.0 -0.4207866606
O  O87  1  0.48800000  0.58420000  0.80900000  1.0 -0.3857939358
O  O88  1  0.48190000  0.59270000  0.80910000  1.0 -0.3262171067
O  O89  1  0.61380000  0.48940000  0.02900000  1.0 -0.3857939358
O  O90  1  0.61520000  0.47280000  0.18440000  1.0 -0.4207866606
O  O91  1  0.58420000  0.48800000  0.11880000  1.0 -0.3847229992
O  O92  1  0.59270000  0.48190000  0.11630000  1.0 -0.3262171067
O  O93  1  0.86780000  0.02900000  0.48940000  1.0 -0.3847229992
O  O94  1  0.72760000  0.18440000  0.47280000  1.0 -0.4207866606
O  O95  1  0.80900000  0.11880000  0.48800000  1.0 -0.3847229992
O  O96  1  0.80910000  0.11630000  0.48190000  1.0 -0.3262171067
O  O97  1  0.48940000  0.02900000  0.86780000  1.0 -0.3847229992
O  O98  1  0.47280000  0.18440000  0.72760000  1.0 -0.4207866606
O  O99  1  0.48800000  0.11880000  0.80900000  1.0 -0.3847229992
O  O100  1  0.48190000  0.11630000  0.80910000  1.0 -0.3262171067
O  O101  1  0.02900000  0.48940000  0.61380000  1.0 -0.3847229992
O  O102  1  0.18440000  0.47280000  0.61520000  1.0 -0.4207866606
O  O103  1  0.11880000  0.48800000  0.58420000  1.0 -0.3847229992
O  O104  1  0.11630000  0.48190000  0.59270000  1.0 -0.3262171067
O  O105  1  0.86780000  0.61380000  0.48940000  1.0 -0.3857939358
O  O106  1  0.72760000  0.61520000  0.47280000  1.0 -0.4207866606
O  O107  1  0.80900000  0.58420000  0.48800000  1.0 -0.3857939358
O  O108  1  0.80910000  0.59270000  0.48190000  1.0 -0.3262171067
O  O109  1  0.61380000  0.86780000  0.02900000  1.0 -0.3847229992
O  O110  1  0.61520000  0.72760000  0.18440000  1.0 -0.4207866606
O  O111  1  0.58420000  0.80900000  0.11880000  1.0 -0.3847229992
O  O112  1  0.59270000  0.80910000  0.11630000  1.0 -0.3262171067
O  O113  1  0.86780000  0.48940000  0.02900000  1.0 -0.3847229992
O  O114  1  0.72760000  0.47280000  0.18440000  1.0 -0.4207866606
O  O115  1  0.80900000  0.48800000  0.11880000  1.0 -0.3857939358
O  O116  1  0.80910000  0.48190000  0.11630000  1.0 -0.3262171067
O  O117  1  0.61380000  0.02900000  0.48940000  1.0 -0.3857939358
O  O118  1  0.61520000  0.18440000  0.47280000  1.0 -0.4207866606
O  O119  1  0.58420000  0.11880000  0.48800000  1.0 -0.3847229992
O  O120  1  0.59270000  0.11630000  0.48190000  1.0 -0.3262171067
O  O121  1  0.48940000  0.86780000  0.61380000  1.0 -0.3857939358
O  O122  1  0.47280000  0.72760000  0.61520000  1.0 -0.4207866606
O  O123  1  0.48800000  0.80900000  0.58420000  1.0 -0.3857939358
O  O124  1  0.48190000  0.80910000  0.59270000  1.0 -0.3262171067
O  O125  1  0.02900000  0.61380000  0.86780000  1.0 -0.3857939358
O  O126  1  0.18440000  0.61520000  0.72760000  1.0 -0.4207866606
O  O127  1  0.11880000  0.58420000  0.80900000  1.0 -0.3847229992
O  O128  1  0.11630000  0.59270000  0.80910000  1.0 -0.3262171067
O  O129  1  0.02900000  0.86780000  0.48940000  1.0 -0.3857939358
O  O130  1  0.18440000  0.72760000  0.47280000  1.0 -0.4207866606
O  O131  1  0.11880000  0.80900000  0.48800000  1.0 -0.3857939358
O  O132  1  0.11630000  0.80910000  0.48190000  1.0 -0.3262171067
O  O133  1  0.48940000  0.61380000  0.02900000  1.0 -0.3847229992
O  O134  1  0.47280000  0.61520000  0.18440000  1.0 -0.4207866606
O  O135  1  0.48800000  0.58420000  0.11880000  1.0 -0.3857939358
O  O136  1  0.48190000  0.59270000  0.11630000  1.0 -0.3262171067
O  O137  1  0.61380000  0.48940000  0.86780000  1.0 -0.3847229992
O  O138  1  0.61520000  0.47280000  0.72760000  1.0 -0.4207866606
O  O139  1  0.58420000  0.48800000  0.80900000  1.0 -0.3857939358
O  O140  1  0.59270000  0.48190000  0.80910000  1.0 -0.3262171067
O  O141  1  0.86780000  0.02900000  0.61380000  1.0 -0.3857939358
O  O142  1  0.72760000  0.18440000  0.61520000  1.0 -0.4207866606
O  O143  1  0.80900000  0.11880000  0.58420000  1.0 -0.3847229992
O  O144  1  0.80910000  0.11630000  0.59270000  1.0 -0.3262171067
O  O145  1  0.51060000  0.97100000  0.38620000  1.0 -0.3857939358
O  O146  1  0.52720000  0.81560000  0.38480000  1.0 -0.4207866606
O  O147  1  0.51200000  0.88120000  0.41580000  1.0 -0.3857939358
O  O148  1  0.51810000  0.88370000  0.40730000  1.0 -0.3262171067
O  O149  1  0.97100000  0.51060000  0.13220000  1.0 -0.3847229992
O  O150  1  0.81560000  0.52720000  0.27240000  1.0 -0.4207866606
O  O151  1  0.88120000  0.51200000  0.19100000  1.0 -0.3847229992
O  O152  1  0.88370000  0.51810000  0.19090000  1.0 -0.3262171067
O  O153  1  0.13220000  0.38620000  0.97100000  1.0 -0.3857939358
O  O154  1  0.27240000  0.38480000  0.81560000  1.0 -0.4207866606
O  O155  1  0.19100000  0.41580000  0.88120000  1.0 -0.3857939358
O  O156  1  0.19090000  0.40730000  0.88370000  1.0 -0.3262171067
O  O157  1  0.38620000  0.13220000  0.51060000  1.0 -0.3847229992
O  O158  1  0.38480000  0.27240000  0.52720000  1.0 -0.4207866606
O  O159  1  0.41580000  0.19100000  0.51200000  1.0 -0.3847229992
O  O160  1  0.40730000  0.19090000  0.51810000  1.0 -0.3262171067
O  O161  1  0.13220000  0.51060000  0.38620000  1.0 -0.3857939358
O  O162  1  0.27240000  0.52720000  0.38480000  1.0 -0.4207866606
O  O163  1  0.19100000  0.51200000  0.41580000  1.0 -0.3847229992
O  O164  1  0.19090000  0.51810000  0.40730000  1.0 -0.3262171067
O  O165  1  0.38620000  0.97100000  0.13220000  1.0 -0.3857939358
O  O166  1  0.38480000  0.81560000  0.27240000  1.0 -0.4207866606
O  O167  1  0.41580000  0.88120000  0.19100000  1.0 -0.3857939358
O  O168  1  0.40730000  0.88370000  0.19090000  1.0 -0.3262171067
O  O169  1  0.51060000  0.13220000  0.97100000  1.0 -0.3857939358
O  O170  1  0.52720000  0.27240000  0.81560000  1.0 -0.4207866606
O  O171  1  0.51200000  0.19100000  0.88120000  1.0 -0.3847229992
O  O172  1  0.51810000  0.19090000  0.88370000  1.0 -0.3262171067
O  O173  1  0.97100000  0.38620000  0.51060000  1.0 -0.3847229992
O  O174  1  0.81560000  0.38480000  0.52720000  1.0 -0.4207866606
O  O175  1  0.88120000  0.41580000  0.51200000  1.0 -0.3857939358
O  O176  1  0.88370000  0.40730000  0.51810000  1.0 -0.3262171067
O  O177  1  0.97100000  0.13220000  0.38620000  1.0 -0.3857939358
O  O178  1  0.81560000  0.27240000  0.38480000  1.0 -0.4207866606
O  O179  1  0.88120000  0.19100000  0.41580000  1.0 -0.3847229992
O  O180  1  0.88370000  0.19090000  0.40730000  1.0 -0.3262171067
O  O181  1  0.51060000  0.38620000  0.13220000  1.0 -0.3857939358
O  O182  1  0.52720000  0.38480000  0.27240000  1.0 -0.4207866606
O  O183  1  0.51200000  0.41580000  0.19100000  1.0 -0.3847229992
O  O184  1  0.51810000  0.40730000  0.19090000  1.0 -0.3262171067
O  O185  1  0.38620000  0.51060000  0.97100000  1.0 -0.3857939358
O  O186  1  0.38480000  0.52720000  0.81560000  1.0 -0.4207866606
O  O187  1  0.41580000  0.51200000  0.88120000  1.0 -0.3847229992
O  O188  1  0.40730000  0.51810000  0.88370000  1.0 -0.3262171067
O  O189  1  0.13220000  0.97100000  0.51060000  1.0 -0.3857939358
O  O190  1  0.27240000  0.81560000  0.52720000  1.0 -0.4207866606
O  O191  1  0.19100000  0.88120000  0.51200000  1.0 -0.3857939358
O  O192  1  0.19090000  0.88370000  0.51810000  1.0 -0.3262171067
