# DDEC6 charges by PACMAN v1.1 (https://github.com/mtap-research/PACMAN-charge/)
data_JEVPUY_ASR_pacman
_symmetry_space_group_name_H-M   'P 1'
_cell_length_a   18.73090000
_cell_length_b   18.73090000
_cell_length_c   34.23500000
_cell_angle_alpha   90.00000000
_cell_angle_beta   90.00000000
_cell_angle_gamma   120.00000000
_symmetry_Int_Tables_number   1
_chemical_formula_structural   CuH10C20NO4
_chemical_formula_sum   'Cu12 H120 C240 N12 O48'
_cell_volume   10402.03365184
_cell_formula_units_Z   12
loop_
 _symmetry_equiv_pos_site_id
 _symmetry_equiv_pos_as_xyz
  1  'x, y, z'
loop_
 _atom_site_type_symbol
 _atom_site_label
 _atom_site_symmetry_multiplicity
 _atom_site_fract_x
 _atom_site_fract_y
 _atom_site_fract_z
 _atom_site_occupancy
 _atom_site_charge
Cu  Cu1  1  0.04737000  0.52367000  0.53191000  1.0 0.8693984466
Cu  Cu2  1  0.47630000  0.95263000  0.53191000  1.0 0.8693984466
Cu  Cu3  1  0.47633000  0.52370000  0.53191000  1.0 0.8693984466
Cu  Cu4  1  0.47630000  0.52367000  0.96809000  1.0 0.8693984466
Cu  Cu5  1  0.47633000  0.95263000  0.96809000  1.0 0.8693984466
Cu  Cu6  1  0.04737000  0.52370000  0.96809000  1.0 0.8693984466
Cu  Cu7  1  0.95263000  0.47633000  0.46809000  1.0 0.8693984466
Cu  Cu8  1  0.52370000  0.04737000  0.46809000  1.0 0.8693984466
Cu  Cu9  1  0.52367000  0.47630000  0.46809000  1.0 0.8693984466
Cu  Cu10  1  0.52370000  0.47633000  0.03191000  1.0 0.8693984466
Cu  Cu11  1  0.52367000  0.04737000  0.03191000  1.0 0.8693984466
Cu  Cu12  1  0.95263000  0.47630000  0.03191000  1.0 0.8693984466
H  H1  1  0.76670000  0.23310000  0.50570000  1.0 0.1386253181
H  H2  1  0.69900000  0.08940000  0.60130000  1.0 0.1103432855
H  H3  1  0.91080000  0.30080000  0.60140000  1.0 0.1103432855
H  H4  1  0.70950000  0.15260000  0.67060000  1.0 0.0897767544
H  H5  1  0.97200000  0.20250000  0.70770000  1.0 0.1103432855
H  H6  1  0.94040000  0.20710000  0.64190000  1.0 0.0897767544
H  H7  1  0.68680000  0.14840000  0.74970000  1.0 0.2968784811
H  H8  1  0.84340000  0.28770000  0.67130000  1.0 0.0897767544
H  H9  1  0.79740000  0.03030000  0.70920000  1.0 0.1103432855
H  H10  1  0.78940000  0.05840000  0.64400000  1.0 0.0897767544
H  H11  1  0.46640000  0.23330000  0.50570000  1.0 0.1386253181
H  H12  1  0.39040000  0.30100000  0.60130000  1.0 0.1103432855
H  H13  1  0.39000000  0.08920000  0.60140000  1.0 0.1103432855
H  H14  1  0.44310000  0.29050000  0.67060000  1.0 0.0897767544
H  H15  1  0.23050000  0.02800000  0.70770000  1.0 0.1103432855
H  H16  1  0.26670000  0.05960000  0.64190000  1.0 0.0897767544
H  H17  1  0.46160000  0.31320000  0.74970000  1.0 0.2968784811
H  H18  1  0.44430000  0.15660000  0.67130000  1.0 0.0846124333
H  H19  1  0.23290000  0.20260000  0.70920000  1.0 0.1103432855
H  H20  1  0.26900000  0.21060000  0.64400000  1.0 0.0897767544
H  H21  1  0.76690000  0.53360000  0.50570000  1.0 0.1386253181
H  H22  1  0.91060000  0.60960000  0.60130000  1.0 0.1103432855
H  H23  1  0.69920000  0.61000000  0.60140000  1.0 0.1103432855
H  H24  1  0.84740000  0.55690000  0.67060000  1.0 0.0897767544
H  H25  1  0.79750000  0.76950000  0.70770000  1.0 0.1103432855
H  H26  1  0.79290000  0.73330000  0.64190000  1.0 0.0897767544
H  H27  1  0.85160000  0.53840000  0.74970000  1.0 0.2968784811
H  H28  1  0.71230000  0.55570000  0.67130000  1.0 0.0897767544
H  H29  1  0.96970000  0.76710000  0.70920000  1.0 0.1103432855
H  H30  1  0.94160000  0.73100000  0.64400000  1.0 0.0897767544
H  H31  1  0.46640000  0.23310000  0.99430000  1.0 0.1386253181
H  H32  1  0.39040000  0.08940000  0.89870000  1.0 0.1103432855
H  H33  1  0.39000000  0.30080000  0.89860000  1.0 0.1103432855
H  H34  1  0.44310000  0.15260000  0.82940000  1.0 0.0897767544
H  H35  1  0.23050000  0.20250000  0.79230000  1.0 0.1103432855
H  H36  1  0.26670000  0.20710000  0.85810000  1.0 0.0897767544
H  H37  1  0.46160000  0.14840000  0.75030000  1.0 0.2968784811
H  H38  1  0.44430000  0.28770000  0.82870000  1.0 0.0897767544
H  H39  1  0.23290000  0.03030000  0.79080000  1.0 0.1103432855
H  H40  1  0.26900000  0.05840000  0.85600000  1.0 0.0897767544
H  H41  1  0.76690000  0.23330000  0.99430000  1.0 0.1386253181
H  H42  1  0.91060000  0.30100000  0.89870000  1.0 0.1103432855
H  H43  1  0.69920000  0.08920000  0.89860000  1.0 0.1103432855
H  H44  1  0.84740000  0.29050000  0.82940000  1.0 0.0897767544
H  H45  1  0.79750000  0.02800000  0.79230000  1.0 0.1103432855
H  H46  1  0.79290000  0.05960000  0.85810000  1.0 0.0897767544
H  H47  1  0.85160000  0.31320000  0.75030000  1.0 0.2968784811
H  H48  1  0.71230000  0.15660000  0.82870000  1.0 0.0846124333
H  H49  1  0.96970000  0.20260000  0.79080000  1.0 0.1103432855
H  H50  1  0.94160000  0.21060000  0.85600000  1.0 0.0897767544
H  H51  1  0.76670000  0.53360000  0.99430000  1.0 0.1386253181
H  H52  1  0.69900000  0.60960000  0.89870000  1.0 0.1103432855
H  H53  1  0.91080000  0.61000000  0.89860000  1.0 0.1103432855
H  H54  1  0.70950000  0.55690000  0.82940000  1.0 0.0897767544
H  H55  1  0.97200000  0.76950000  0.79230000  1.0 0.1103432855
H  H56  1  0.94040000  0.73330000  0.85810000  1.0 0.0897767544
H  H57  1  0.68680000  0.53840000  0.75030000  1.0 0.2968784811
H  H58  1  0.84340000  0.55570000  0.82870000  1.0 0.0846124333
H  H59  1  0.79740000  0.76710000  0.79080000  1.0 0.1103432855
H  H60  1  0.78940000  0.73100000  0.85600000  1.0 0.0897767544
H  H61  1  0.23330000  0.76690000  0.49430000  1.0 0.1386253181
H  H62  1  0.30100000  0.91060000  0.39870000  1.0 0.1153004956
H  H63  1  0.08920000  0.69920000  0.39860000  1.0 0.1103432855
H  H64  1  0.29050000  0.84740000  0.32940000  1.0 0.0897767544
H  H65  1  0.02800000  0.79750000  0.29230000  1.0 0.1103432855
H  H66  1  0.05960000  0.79290000  0.35810000  1.0 0.0897767544
H  H67  1  0.31320000  0.85160000  0.25030000  1.0 0.2968784811
H  H68  1  0.15660000  0.71230000  0.32870000  1.0 0.0897767544
H  H69  1  0.20260000  0.96970000  0.29080000  1.0 0.1103432855
H  H70  1  0.21060000  0.94160000  0.35600000  1.0 0.0897767544
H  H71  1  0.53360000  0.76670000  0.49430000  1.0 0.1386253181
H  H72  1  0.60960000  0.69900000  0.39870000  1.0 0.1103432855
H  H73  1  0.61000000  0.91080000  0.39860000  1.0 0.1103432855
H  H74  1  0.55690000  0.70950000  0.32940000  1.0 0.0897767544
H  H75  1  0.76950000  0.97200000  0.29230000  1.0 0.1103432855
H  H76  1  0.73330000  0.94040000  0.35810000  1.0 0.0897767544
H  H77  1  0.53840000  0.68680000  0.25030000  1.0 0.2968784811
H  H78  1  0.55570000  0.84340000  0.32870000  1.0 0.0846124333
H  H79  1  0.76710000  0.79740000  0.29080000  1.0 0.1103432855
H  H80  1  0.73100000  0.78940000  0.35600000  1.0 0.0897767544
H  H81  1  0.23310000  0.46640000  0.49430000  1.0 0.1386253181
H  H82  1  0.08940000  0.39040000  0.39870000  1.0 0.1103432855
H  H83  1  0.30080000  0.39000000  0.39860000  1.0 0.1103432855
H  H84  1  0.15260000  0.44310000  0.32940000  1.0 0.0897767544
H  H85  1  0.20250000  0.23050000  0.29230000  1.0 0.1103432855
H  H86  1  0.20710000  0.26670000  0.35810000  1.0 0.0897767544
H  H87  1  0.14840000  0.46160000  0.25030000  1.0 0.2968784811
H  H88  1  0.28770000  0.44430000  0.32870000  1.0 0.0846124333
H  H89  1  0.03030000  0.23290000  0.29080000  1.0 0.1103432855
H  H90  1  0.05840000  0.26900000  0.35600000  1.0 0.0897767544
H  H91  1  0.53360000  0.76690000  0.00570000  1.0 0.1386253181
H  H92  1  0.60960000  0.91060000  0.10130000  1.0 0.1103432855
H  H93  1  0.61000000  0.69920000  0.10140000  1.0 0.1103432855
H  H94  1  0.55690000  0.84740000  0.17060000  1.0 0.0897767544
H  H95  1  0.76950000  0.79750000  0.20770000  1.0 0.1103432855
H  H96  1  0.73330000  0.79290000  0.14190000  1.0 0.0897767544
H  H97  1  0.53840000  0.85160000  0.24970000  1.0 0.2968784811
H  H98  1  0.55570000  0.71230000  0.17130000  1.0 0.0897767544
H  H99  1  0.76710000  0.96970000  0.20920000  1.0 0.1103432855
H  H100  1  0.73100000  0.94160000  0.14400000  1.0 0.0897767544
H  H101  1  0.23310000  0.76670000  0.00570000  1.0 0.1386253181
H  H102  1  0.08940000  0.69900000  0.10130000  1.0 0.1103432855
H  H103  1  0.30080000  0.91080000  0.10140000  1.0 0.1103432855
H  H104  1  0.15260000  0.70950000  0.17060000  1.0 0.0897767544
H  H105  1  0.20250000  0.97200000  0.20770000  1.0 0.1103432855
H  H106  1  0.20710000  0.94040000  0.14190000  1.0 0.0897767544
H  H107  1  0.14840000  0.68680000  0.24970000  1.0 0.2968784811
H  H108  1  0.28770000  0.84340000  0.17130000  1.0 0.0846124333
H  H109  1  0.03030000  0.79740000  0.20920000  1.0 0.1103432855
H  H110  1  0.05840000  0.78940000  0.14400000  1.0 0.0897767544
H  H111  1  0.23330000  0.46640000  0.00570000  1.0 0.1386253181
H  H112  1  0.30100000  0.39040000  0.10130000  1.0 0.1103432855
H  H113  1  0.08920000  0.39000000  0.10140000  1.0 0.1103432855
H  H114  1  0.29050000  0.44310000  0.17060000  1.0 0.0897767544
H  H115  1  0.02800000  0.23050000  0.20770000  1.0 0.1103432855
H  H116  1  0.05960000  0.26670000  0.14190000  1.0 0.0897767544
H  H117  1  0.31320000  0.46160000  0.24970000  1.0 0.2968784811
H  H118  1  0.15660000  0.44430000  0.17130000  1.0 0.0846124333
H  H119  1  0.20260000  0.23290000  0.20920000  1.0 0.1103432855
H  H120  1  0.21060000  0.26900000  0.14400000  1.0 0.0897767544
C  C1  1  0.90780000  0.36100000  0.53053000  1.0 0.5836833434
C  C2  1  0.63900000  0.09220000  0.53047000  1.0 0.5836833434
C  C3  1  0.84920000  0.28070000  0.54997000  1.0 -0.0162643636
C  C4  1  0.77680000  0.22310000  0.53119000  1.0 -0.1108689937
C  C5  1  0.71950000  0.15090000  0.55007000  1.0 -0.0162643636
C  C6  1  0.73720000  0.13720000  0.58846000  1.0 -0.1698129585
C  C7  1  0.80860000  0.19160000  0.60764000  1.0 0.0609749433
C  C8  1  0.86300000  0.26280000  0.58853000  1.0 -0.1698129585
C  C9  1  0.81800000  0.17700000  0.65040000  1.0 0.031768442
C  C10  1  0.85800000  0.17000000  0.77140000  1.0 0.031768442
C  C11  1  0.85900000  0.17600000  0.72830000  1.0 0.031768442
C  C12  1  0.76330000  0.16310000  0.67800000  1.0 -0.0896483261
C  C13  1  0.78410000  0.16190000  0.71680000  1.0 0.0394731993
C  C14  1  0.91840000  0.19260000  0.70020000  1.0 -0.1698129585
C  C15  1  0.89930000  0.19470000  0.66160000  1.0 -0.0589689555
C  C16  1  0.84180000  0.21710000  0.71680000  1.0 0.0498650144
C  C17  1  0.83660000  0.23670000  0.67830000  1.0 -0.0896483261
C  C18  1  0.81060000  0.08260000  0.70060000  1.0 -0.2015969562
C  C19  1  0.80440000  0.10050000  0.66220000  1.0 -0.0434941624
C  C20  1  0.82400000  0.18000000  0.64990000  1.0 0.031768442
C  C21  1  0.45320000  0.09220000  0.53053000  1.0 0.5836833434
C  C22  1  0.45320000  0.36100000  0.53047000  1.0 0.5836833434
C  C23  1  0.43150000  0.15080000  0.54997000  1.0 -0.0162643636
C  C24  1  0.44630000  0.22320000  0.53119000  1.0 -0.1108689937
C  C25  1  0.43140000  0.28050000  0.55007000  1.0 -0.0162643636
C  C26  1  0.40000000  0.26280000  0.58846000  1.0 -0.1698129585
C  C27  1  0.38300000  0.19140000  0.60764000  1.0 0.0609749433
C  C28  1  0.39980000  0.13700000  0.58853000  1.0 -0.1698129585
C  C29  1  0.35900000  0.18200000  0.65040000  1.0 0.031768442
C  C30  1  0.31200000  0.14200000  0.77140000  1.0 0.031768442
C  C31  1  0.31700000  0.14100000  0.72830000  1.0 0.031768442
C  C32  1  0.39980000  0.23670000  0.67800000  1.0 -0.0896483261
C  C33  1  0.37780000  0.21590000  0.71680000  1.0 0.0394731993
C  C34  1  0.27420000  0.08160000  0.70020000  1.0 -0.1757909156
C  C35  1  0.29540000  0.10070000  0.66160000  1.0 -0.0589689555
C  C36  1  0.37530000  0.15820000  0.71680000  1.0 0.0498650144
C  C37  1  0.40010000  0.16340000  0.67830000  1.0 -0.0896483261
C  C38  1  0.27200000  0.18940000  0.70060000  1.0 -0.2015969562
C  C39  1  0.29610000  0.19560000  0.66220000  1.0 -0.0434941624
C  C40  1  0.35600000  0.17600000  0.64990000  1.0 0.031768442
C  C41  1  0.63900000  0.54680000  0.53053000  1.0 0.5836833434
C  C42  1  0.90780000  0.54680000  0.53047000  1.0 0.5836833434
C  C43  1  0.71930000  0.56850000  0.54997000  1.0 -0.0162643636
C  C44  1  0.77690000  0.55370000  0.53119000  1.0 -0.1108689937
C  C45  1  0.84910000  0.56860000  0.55007000  1.0 -0.0162643636
C  C46  1  0.86280000  0.60000000  0.58846000  1.0 -0.1698129585
C  C47  1  0.80840000  0.61700000  0.60764000  1.0 0.0609749433
C  C48  1  0.73720000  0.60020000  0.58853000  1.0 -0.1698129585
C  C49  1  0.82300000  0.64100000  0.65040000  1.0 0.031768442
C  C50  1  0.83000000  0.68800000  0.77140000  1.0 0.031768442
C  C51  1  0.82400000  0.68300000  0.72830000  1.0 0.031768442
C  C52  1  0.83690000  0.60020000  0.67800000  1.0 -0.0896483261
C  C53  1  0.83810000  0.62220000  0.71680000  1.0 0.0394731993
C  C54  1  0.80740000  0.72580000  0.70020000  1.0 -0.1698129585
C  C55  1  0.80530000  0.70460000  0.66160000  1.0 -0.0589689555
C  C56  1  0.78290000  0.62470000  0.71680000  1.0 0.0498650144
C  C57  1  0.76330000  0.59990000  0.67830000  1.0 -0.0896483261
C  C58  1  0.91740000  0.72800000  0.70060000  1.0 -0.2052636924
C  C59  1  0.89950000  0.70390000  0.66220000  1.0 -0.0434941624
C  C60  1  0.82000000  0.64400000  0.64990000  1.0 0.031768442
C  C61  1  0.45320000  0.36100000  0.96947000  1.0 0.5836833434
C  C62  1  0.45320000  0.09220000  0.96953000  1.0 0.5836833434
C  C63  1  0.43150000  0.28070000  0.95003000  1.0 -0.0162643636
C  C64  1  0.44630000  0.22310000  0.96881000  1.0 -0.1108689937
C  C65  1  0.43140000  0.15090000  0.94993000  1.0 -0.0162643636
C  C66  1  0.40000000  0.13720000  0.91154000  1.0 -0.1698129585
C  C67  1  0.38300000  0.19160000  0.89236000  1.0 0.0609749433
C  C68  1  0.39980000  0.26280000  0.91147000  1.0 -0.1698129585
C  C69  1  0.35900000  0.17700000  0.84960000  1.0 0.031768442
C  C70  1  0.31200000  0.17000000  0.72860000  1.0 0.031768442
C  C71  1  0.31700000  0.17600000  0.77170000  1.0 0.031768442
C  C72  1  0.39980000  0.16310000  0.82200000  1.0 -0.0896483261
C  C73  1  0.37780000  0.16190000  0.78320000  1.0 0.0394731993
C  C74  1  0.27420000  0.19260000  0.79980000  1.0 -0.1757909156
C  C75  1  0.29540000  0.19470000  0.83840000  1.0 -0.0589689555
C  C76  1  0.37530000  0.21710000  0.78320000  1.0 0.0498650144
C  C77  1  0.40010000  0.23670000  0.82170000  1.0 -0.0896483261
C  C78  1  0.27200000  0.08260000  0.79940000  1.0 -0.2015969562
C  C79  1  0.29610000  0.10050000  0.83780000  1.0 -0.0434941624
C  C80  1  0.35600000  0.18000000  0.85010000  1.0 0.031768442
C  C81  1  0.63900000  0.09220000  0.96947000  1.0 0.5836833434
C  C82  1  0.90780000  0.36100000  0.96953000  1.0 0.5836833434
C  C83  1  0.71930000  0.15080000  0.95003000  1.0 -0.0162643636
C  C84  1  0.77690000  0.22320000  0.96881000  1.0 -0.1108689937
C  C85  1  0.84910000  0.28050000  0.94993000  1.0 -0.0162643636
C  C86  1  0.86280000  0.26280000  0.91154000  1.0 -0.1698129585
C  C87  1  0.80840000  0.19140000  0.89236000  1.0 0.0609749433
C  C88  1  0.73720000  0.13700000  0.91147000  1.0 -0.1698129585
C  C89  1  0.82300000  0.18200000  0.84960000  1.0 0.031768442
C  C90  1  0.83000000  0.14200000  0.72860000  1.0 0.031768442
C  C91  1  0.82400000  0.14100000  0.77170000  1.0 0.031768442
C  C92  1  0.83690000  0.23670000  0.82200000  1.0 -0.0896483261
C  C93  1  0.83810000  0.21590000  0.78320000  1.0 0.0394731993
C  C94  1  0.80740000  0.08160000  0.79980000  1.0 -0.1757909156
C  C95  1  0.80530000  0.10070000  0.83840000  1.0 -0.0589689555
C  C96  1  0.78290000  0.15820000  0.78320000  1.0 0.0498650144
C  C97  1  0.76330000  0.16340000  0.82170000  1.0 -0.0896483261
C  C98  1  0.91740000  0.18940000  0.79940000  1.0 -0.2052636924
C  C99  1  0.89950000  0.19560000  0.83780000  1.0 -0.0434941624
C  C100  1  0.82000000  0.17600000  0.85010000  1.0 0.0394731993
C  C101  1  0.90780000  0.54680000  0.96947000  1.0 0.5836833434
C  C102  1  0.63900000  0.54680000  0.96953000  1.0 0.5836833434
C  C103  1  0.84920000  0.56850000  0.95003000  1.0 -0.0162643636
C  C104  1  0.77680000  0.55370000  0.96881000  1.0 -0.1108689937
C  C105  1  0.71950000  0.56860000  0.94993000  1.0 -0.0162643636
C  C106  1  0.73720000  0.60000000  0.91154000  1.0 -0.1698129585
C  C107  1  0.80860000  0.61700000  0.89236000  1.0 0.0609749433
C  C108  1  0.86300000  0.60020000  0.91147000  1.0 -0.1698129585
C  C109  1  0.81800000  0.64100000  0.84960000  1.0 0.031768442
C  C110  1  0.85800000  0.68800000  0.72860000  1.0 0.031768442
C  C111  1  0.85900000  0.68300000  0.77170000  1.0 0.031768442
C  C112  1  0.76330000  0.60020000  0.82200000  1.0 -0.0896483261
C  C113  1  0.78410000  0.62220000  0.78320000  1.0 0.0394731993
C  C114  1  0.91840000  0.72580000  0.79980000  1.0 -0.1698129585
C  C115  1  0.89930000  0.70460000  0.83840000  1.0 -0.0589689555
C  C116  1  0.84180000  0.62470000  0.78320000  1.0 0.0498650144
C  C117  1  0.83660000  0.59990000  0.82170000  1.0 -0.0896483261
C  C118  1  0.81060000  0.72800000  0.79940000  1.0 -0.2015969562
C  C119  1  0.80440000  0.70390000  0.83780000  1.0 -0.0434941624
C  C120  1  0.82400000  0.64400000  0.85010000  1.0 0.031768442
C  C121  1  0.09220000  0.63900000  0.46947000  1.0 0.5836833434
C  C122  1  0.36100000  0.90780000  0.46953000  1.0 0.5836833434
C  C123  1  0.15080000  0.71930000  0.45003000  1.0 -0.0162643636
C  C124  1  0.22320000  0.77690000  0.46881000  1.0 -0.1108689937
C  C125  1  0.28050000  0.84910000  0.44993000  1.0 -0.0162643636
C  C126  1  0.26280000  0.86280000  0.41154000  1.0 -0.1698129585
C  C127  1  0.19140000  0.80840000  0.39236000  1.0 0.0609749433
C  C128  1  0.13700000  0.73720000  0.41147000  1.0 -0.1698129585
C  C129  1  0.18200000  0.82300000  0.34960000  1.0 0.031768442
C  C130  1  0.14200000  0.83000000  0.22860000  1.0 0.031768442
C  C131  1  0.14100000  0.82400000  0.27170000  1.0 0.0394731993
C  C132  1  0.23670000  0.83690000  0.32200000  1.0 -0.0896483261
C  C133  1  0.21590000  0.83810000  0.28320000  1.0 0.0394731993
C  C134  1  0.08160000  0.80740000  0.29980000  1.0 -0.1757909156
C  C135  1  0.10070000  0.80530000  0.33840000  1.0 -0.0589689555
C  C136  1  0.15820000  0.78290000  0.28320000  1.0 0.0498650144
C  C137  1  0.16340000  0.76330000  0.32170000  1.0 -0.0896483261
C  C138  1  0.18940000  0.91740000  0.29940000  1.0 -0.2015969562
C  C139  1  0.19560000  0.89950000  0.33780000  1.0 -0.0470690015
C  C140  1  0.17600000  0.82000000  0.35010000  1.0 0.031768442
C  C141  1  0.54680000  0.90780000  0.46947000  1.0 0.5836833434
C  C142  1  0.54680000  0.63900000  0.46953000  1.0 0.5836833434
C  C143  1  0.56850000  0.84920000  0.45003000  1.0 -0.0162643636
C  C144  1  0.55370000  0.77680000  0.46881000  1.0 -0.1108689937
C  C145  1  0.56860000  0.71950000  0.44993000  1.0 -0.0162643636
C  C146  1  0.60000000  0.73720000  0.41154000  1.0 -0.1698129585
C  C147  1  0.61700000  0.80860000  0.39236000  1.0 0.0609749433
C  C148  1  0.60020000  0.86300000  0.41147000  1.0 -0.1698129585
C  C149  1  0.64100000  0.81800000  0.34960000  1.0 0.031768442
C  C150  1  0.68800000  0.85800000  0.22860000  1.0 0.031768442
C  C151  1  0.68300000  0.85900000  0.27170000  1.0 0.031768442
C  C152  1  0.60020000  0.76330000  0.32200000  1.0 -0.0896483261
C  C153  1  0.62220000  0.78410000  0.28320000  1.0 0.0394731993
C  C154  1  0.72580000  0.91840000  0.29980000  1.0 -0.1757909156
C  C155  1  0.70460000  0.89930000  0.33840000  1.0 -0.0589689555
C  C156  1  0.62470000  0.84180000  0.28320000  1.0 0.0498650144
C  C157  1  0.59990000  0.83660000  0.32170000  1.0 -0.0896483261
C  C158  1  0.72800000  0.81060000  0.29940000  1.0 -0.2015969562
C  C159  1  0.70390000  0.80440000  0.33780000  1.0 -0.0434941624
C  C160  1  0.64400000  0.82400000  0.35010000  1.0 0.031768442
C  C161  1  0.36100000  0.45320000  0.46947000  1.0 0.5836833434
C  C162  1  0.09220000  0.45320000  0.46953000  1.0 0.5836833434
C  C163  1  0.28070000  0.43150000  0.45003000  1.0 -0.0162643636
C  C164  1  0.22310000  0.44630000  0.46881000  1.0 -0.1108689937
C  C165  1  0.15090000  0.43140000  0.44993000  1.0 -0.0162643636
C  C166  1  0.13720000  0.40000000  0.41154000  1.0 -0.1698129585
C  C167  1  0.19160000  0.38300000  0.39236000  1.0 0.0609749433
C  C168  1  0.26280000  0.39980000  0.41147000  1.0 -0.1698129585
C  C169  1  0.17700000  0.35900000  0.34960000  1.0 0.031768442
C  C170  1  0.17000000  0.31200000  0.22860000  1.0 0.031768442
C  C171  1  0.17600000  0.31700000  0.27170000  1.0 0.031768442
C  C172  1  0.16310000  0.39980000  0.32200000  1.0 -0.0896483261
C  C173  1  0.16190000  0.37780000  0.28320000  1.0 0.0394731993
C  C174  1  0.19260000  0.27420000  0.29980000  1.0 -0.1698129585
C  C175  1  0.19470000  0.29540000  0.33840000  1.0 -0.0589689555
C  C176  1  0.21710000  0.37530000  0.28320000  1.0 0.0498650144
C  C177  1  0.23670000  0.40010000  0.32170000  1.0 -0.0896483261
C  C178  1  0.08260000  0.27200000  0.29940000  1.0 -0.2015969562
C  C179  1  0.10050000  0.29610000  0.33780000  1.0 -0.0434941624
C  C180  1  0.18000000  0.35600000  0.35010000  1.0 0.031768442
C  C181  1  0.54680000  0.63900000  0.03053000  1.0 0.5836833434
C  C182  1  0.54680000  0.90780000  0.03047000  1.0 0.5836833434
C  C183  1  0.56850000  0.71930000  0.04997000  1.0 -0.0162643636
C  C184  1  0.55370000  0.77690000  0.03119000  1.0 -0.1108689937
C  C185  1  0.56860000  0.84910000  0.05007000  1.0 -0.0162643636
C  C186  1  0.60000000  0.86280000  0.08846000  1.0 -0.1698129585
C  C187  1  0.61700000  0.80840000  0.10764000  1.0 0.0609749433
C  C188  1  0.60020000  0.73720000  0.08853000  1.0 -0.1698129585
C  C189  1  0.64100000  0.82300000  0.15040000  1.0 0.031768442
C  C190  1  0.68800000  0.83000000  0.27140000  1.0 0.031768442
C  C191  1  0.68300000  0.82400000  0.22830000  1.0 0.031768442
C  C192  1  0.60020000  0.83690000  0.17800000  1.0 -0.0896483261
C  C193  1  0.62220000  0.83810000  0.21680000  1.0 0.0394731993
C  C194  1  0.72580000  0.80740000  0.20020000  1.0 -0.1757909156
C  C195  1  0.70460000  0.80530000  0.16160000  1.0 -0.0589689555
C  C196  1  0.62470000  0.78290000  0.21680000  1.0 0.0498650144
C  C197  1  0.59990000  0.76330000  0.17830000  1.0 -0.0896483261
C  C198  1  0.72800000  0.91740000  0.20060000  1.0 -0.2015969562
C  C199  1  0.70390000  0.89950000  0.16220000  1.0 -0.0470690015
C  C200  1  0.64400000  0.82000000  0.14990000  1.0 0.031768442
C  C201  1  0.36100000  0.90780000  0.03053000  1.0 0.5836833434
C  C202  1  0.09220000  0.63900000  0.03047000  1.0 0.5836833434
C  C203  1  0.28070000  0.84920000  0.04997000  1.0 -0.0162643636
C  C204  1  0.22310000  0.77680000  0.03119000  1.0 -0.1108689937
C  C205  1  0.15090000  0.71950000  0.05007000  1.0 -0.0162643636
C  C206  1  0.13720000  0.73720000  0.08846000  1.0 -0.1698129585
C  C207  1  0.19160000  0.80860000  0.10764000  1.0 0.0609749433
C  C208  1  0.26280000  0.86300000  0.08853000  1.0 -0.1698129585
C  C209  1  0.17700000  0.81800000  0.15040000  1.0 0.031768442
C  C210  1  0.17000000  0.85800000  0.27140000  1.0 0.031768442
C  C211  1  0.17600000  0.85900000  0.22830000  1.0 0.031768442
C  C212  1  0.16310000  0.76330000  0.17800000  1.0 -0.0896483261
C  C213  1  0.16190000  0.78410000  0.21680000  1.0 0.0394731993
C  C214  1  0.19260000  0.91840000  0.20020000  1.0 -0.1757909156
C  C215  1  0.19470000  0.89930000  0.16160000  1.0 -0.0589689555
C  C216  1  0.21710000  0.84180000  0.21680000  1.0 0.0498650144
C  C217  1  0.23670000  0.83660000  0.17830000  1.0 -0.0896483261
C  C218  1  0.08260000  0.81060000  0.20060000  1.0 -0.2015969562
C  C219  1  0.10050000  0.80440000  0.16220000  1.0 -0.0470690015
C  C220  1  0.18000000  0.82400000  0.14990000  1.0 0.031768442
C  C221  1  0.09220000  0.45320000  0.03053000  1.0 0.5836833434
C  C222  1  0.36100000  0.45320000  0.03047000  1.0 0.5836833434
C  C223  1  0.15080000  0.43150000  0.04997000  1.0 -0.0162643636
C  C224  1  0.22320000  0.44630000  0.03119000  1.0 -0.1108689937
C  C225  1  0.28050000  0.43140000  0.05007000  1.0 -0.0146585493
C  C226  1  0.26280000  0.40000000  0.08846000  1.0 -0.1698129585
C  C227  1  0.19140000  0.38300000  0.10764000  1.0 0.0609749433
C  C228  1  0.13700000  0.39980000  0.08853000  1.0 -0.1698129585
C  C229  1  0.18200000  0.35900000  0.15040000  1.0 0.031768442
C  C230  1  0.14200000  0.31200000  0.27140000  1.0 0.031768442
C  C231  1  0.14100000  0.31700000  0.22830000  1.0 0.031768442
C  C232  1  0.23670000  0.39980000  0.17800000  1.0 -0.0896483261
C  C233  1  0.21590000  0.37780000  0.21680000  1.0 0.0394731993
C  C234  1  0.08160000  0.27420000  0.20020000  1.0 -0.1698129585
C  C235  1  0.10070000  0.29540000  0.16160000  1.0 -0.0589689555
C  C236  1  0.15820000  0.37530000  0.21680000  1.0 0.0498650144
C  C237  1  0.16340000  0.40010000  0.17830000  1.0 -0.0896483261
C  C238  1  0.18940000  0.27200000  0.20060000  1.0 -0.2015969562
C  C239  1  0.19560000  0.29610000  0.16220000  1.0 -0.0434941624
C  C240  1  0.17600000  0.35600000  0.14990000  1.0 0.031768442
N  N1  1  0.73660000  0.15210000  0.74987000  1.0 -0.3006418678
N  N2  1  0.41550000  0.26340000  0.74987000  1.0 -0.3006418678
N  N3  1  0.84790000  0.58450000  0.74987000  1.0 -0.3006418678
N  N4  1  0.41550000  0.15210000  0.75013000  1.0 -0.3006418678
N  N5  1  0.84790000  0.26340000  0.75013000  1.0 -0.3006418678
N  N6  1  0.73660000  0.58450000  0.75013000  1.0 -0.3006418678
N  N7  1  0.26340000  0.84790000  0.25013000  1.0 -0.3006418678
N  N8  1  0.58450000  0.73660000  0.25013000  1.0 -0.3006418678
N  N9  1  0.15210000  0.41550000  0.25013000  1.0 -0.3006418678
N  N10  1  0.58450000  0.84790000  0.24987000  1.0 -0.3006418678
N  N11  1  0.15210000  0.73660000  0.24987000  1.0 -0.3006418678
N  N12  1  0.26340000  0.41550000  0.24987000  1.0 -0.3006418678
O  O1  1  0.97003000  0.41140000  0.55017000  1.0 -0.5359227712
O  O2  1  0.88966000  0.37126000  0.49639000  1.0 -0.5183935273
O  O3  1  0.58894000  0.03025000  0.55027000  1.0 -0.5341165068
O  O4  1  0.62914000  0.11007000  0.49646000  1.0 -0.5183935273
O  O5  1  0.44137000  0.02997000  0.55017000  1.0 -0.5359227712
O  O6  1  0.48160000  0.11034000  0.49639000  1.0 -0.5183935273
O  O7  1  0.44131000  0.41106000  0.55027000  1.0 -0.5341165068
O  O8  1  0.48093000  0.37086000  0.49646000  1.0 -0.5183935273
O  O9  1  0.58860000  0.55863000  0.55017000  1.0 -0.5359227712
O  O10  1  0.62874000  0.51840000  0.49639000  1.0 -0.5183935273
O  O11  1  0.96975000  0.55869000  0.55027000  1.0 -0.5341165068
O  O12  1  0.88993000  0.51907000  0.49646000  1.0 -0.5183935273
O  O13  1  0.44137000  0.41140000  0.94983000  1.0 -0.5359227712
O  O14  1  0.48160000  0.37126000  0.00361000  1.0 -0.5183935273
O  O15  1  0.44131000  0.03025000  0.94973000  1.0 -0.5341165068
O  O16  1  0.48093000  0.11007000  0.00354000  1.0 -0.5183935273
O  O17  1  0.58860000  0.02997000  0.94983000  1.0 -0.5359227712
O  O18  1  0.62874000  0.11034000  0.00361000  1.0 -0.5183935273
O  O19  1  0.96975000  0.41106000  0.94973000  1.0 -0.5341165068
O  O20  1  0.88993000  0.37086000  0.00354000  1.0 -0.5183935273
O  O21  1  0.97003000  0.55863000  0.94983000  1.0 -0.5359227712
O  O22  1  0.88966000  0.51840000  0.00361000  1.0 -0.5183935273
O  O23  1  0.58894000  0.55869000  0.94973000  1.0 -0.5341165068
O  O24  1  0.62914000  0.51907000  0.00354000  1.0 -0.5183935273
O  O25  1  0.02997000  0.58860000  0.44983000  1.0 -0.5359227712
O  O26  1  0.11034000  0.62874000  0.50361000  1.0 -0.5183935273
O  O27  1  0.41106000  0.96975000  0.44973000  1.0 -0.5341165068
O  O28  1  0.37086000  0.88993000  0.50354000  1.0 -0.5183935273
O  O29  1  0.55863000  0.97003000  0.44983000  1.0 -0.5359227712
O  O30  1  0.51840000  0.88966000  0.50361000  1.0 -0.5183935273
O  O31  1  0.55869000  0.58894000  0.44973000  1.0 -0.5341165068
O  O32  1  0.51907000  0.62914000  0.50354000  1.0 -0.5183935273
O  O33  1  0.41140000  0.44137000  0.44983000  1.0 -0.5359227712
O  O34  1  0.37126000  0.48160000  0.50361000  1.0 -0.5183935273
O  O35  1  0.03025000  0.44131000  0.44973000  1.0 -0.5341165068
O  O36  1  0.11007000  0.48093000  0.50354000  1.0 -0.5183935273
O  O37  1  0.55863000  0.58860000  0.05017000  1.0 -0.5359227712
O  O38  1  0.51840000  0.62874000  0.99639000  1.0 -0.5183935273
O  O39  1  0.55869000  0.96975000  0.05027000  1.0 -0.5359227712
O  O40  1  0.51907000  0.88993000  0.99646000  1.0 -0.5183935273
O  O41  1  0.41140000  0.97003000  0.05017000  1.0 -0.5359227712
O  O42  1  0.37126000  0.88966000  0.99639000  1.0 -0.5183935273
O  O43  1  0.03025000  0.58894000  0.05027000  1.0 -0.5341165068
O  O44  1  0.11007000  0.62914000  0.99646000  1.0 -0.5183935273
O  O45  1  0.02997000  0.44137000  0.05017000  1.0 -0.5359227712
O  O46  1  0.11034000  0.48160000  0.99639000  1.0 -0.5183935273
O  O47  1  0.41106000  0.44131000  0.05027000  1.0 -0.5359227712
O  O48  1  0.37086000  0.48093000  0.99646000  1.0 -0.5183935273
