# DDEC6 charges by PACMAN v1.1 (https://github.com/mtap-research/PACMAN-charge/)
data_JEWKUU_ASR_pacman
_symmetry_space_group_name_H-M   'P 1'
_cell_length_a   10.64770000
_cell_length_b   16.23400000
_cell_length_c   17.04800000
_cell_angle_alpha   96.09100000
_cell_angle_beta   100.59700000
_cell_angle_gamma   102.77800000
_symmetry_Int_Tables_number   1
_chemical_formula_structural   Ag7H8(C2N3)4
_chemical_formula_sum   'Ag28 H32 C32 N48'
_cell_volume   2791.52246252
_cell_formula_units_Z   4
loop_
 _symmetry_equiv_pos_site_id
 _symmetry_equiv_pos_as_xyz
  1  'x, y, z'
loop_
 _atom_site_type_symbol
 _atom_site_label
 _atom_site_symmetry_multiplicity
 _atom_site_fract_x
 _atom_site_fract_y
 _atom_site_fract_z
 _atom_site_occupancy
 _atom_site_charge
Ag  Ag1  1  0.44950000  0.88240000  0.54290000  1.0 0.1538172278
Ag  Ag2  1  0.99820000  0.04610000  0.36260000  1.0 0.2081060025
Ag  Ag3  1  0.23070000  0.08810000  0.22960000  1.0 0.2348359141
Ag  Ag4  1  0.71550000  0.84720000  0.26610000  1.0 0.2039020274
Ag  Ag5  1  0.73650000  0.07110000  0.64710000  1.0 0.2422236565
Ag  Ag6  1  0.72440000  0.95824000  0.46210000  1.0 0.1811454508
Ag  Ag7  1  0.97490000  0.65290000  0.54060000  1.0 0.218288264
Ag  Ag8  1  0.68560000  0.55950000  0.64300000  1.0 0.218288264
Ag  Ag9  1  0.77260000  0.33839000  0.28830000  1.0 0.2081060025
Ag  Ag10  1  0.73440000  0.44330000  0.46350000  1.0 0.1894304368
Ag  Ag11  1  0.47680000  0.26730000  0.37000000  1.0 0.1593243692
Ag  Ag12  1  0.19810000  0.84320000  0.66990000  1.0 0.218288264
Ag  Ag13  1  0.26520000  0.12840000  0.39220000  1.0 -0.1725899421
Ag  Ag14  1  0.24010000  0.73730000  0.55010000  1.0 -0.1897891101
Ag  Ag15  1  0.55050000  0.11760000  0.45710000  1.0 0.1538172278
Ag  Ag16  1  0.00180000  0.95390000  0.63740000  1.0 0.2081060025
Ag  Ag17  1  0.76930000  0.91190000  0.77040000  1.0 0.2348359141
Ag  Ag18  1  0.28450000  0.15280000  0.73390000  1.0 0.2039020274
Ag  Ag19  1  0.26350000  0.92890000  0.35290000  1.0 0.2422236565
Ag  Ag20  1  0.27560000  0.04176000  0.53790000  1.0 0.1811454508
Ag  Ag21  1  0.02510000  0.34710000  0.45940000  1.0 0.218288264
Ag  Ag22  1  0.31440000  0.44050000  0.35700000  1.0 0.218288264
Ag  Ag23  1  0.22740000  0.66161000  0.71170000  1.0 0.2039020274
Ag  Ag24  1  0.26560000  0.55670000  0.53650000  1.0 0.1894304368
Ag  Ag25  1  0.52320000  0.73270000  0.63000000  1.0 0.1593243692
Ag  Ag26  1  0.80190000  0.15680000  0.33010000  1.0 0.218288264
Ag  Ag27  1  0.73480000  0.87160000  0.60780000  1.0 -0.1725899421
Ag  Ag28  1  0.75990000  0.26270000  0.44990000  1.0 -0.1897891101
H  H1  1  0.59530000  0.09120000  0.80700000  1.0 0.1103927268
H  H2  1  0.38180000  0.00630000  0.81190000  1.0 0.0995651733
H  H3  1  0.31110000  0.72380000  0.37890000  1.0 0.1103927268
H  H4  1  0.42920000  0.70290000  0.26760000  1.0 0.1103927268
H  H5  1  0.81870000  0.83610000  0.11140000  1.0 0.0995651733
H  H6  1  0.01290000  0.93900000  0.06930000  1.0 0.118010531
H  H7  1  0.03950000  0.21310000  0.64410000  1.0 0.1103927268
H  H8  1  0.13390000  0.19860000  0.52250000  1.0 0.0934573922
H  H9  1  0.00860000  0.82400000  0.81010000  1.0 0.1103927268
H  H10  1  0.81110000  0.71780000  0.79670000  1.0 0.118010531
H  H11  1  0.64630000  0.20700000  0.12270000  1.0 0.1103927268
H  H12  1  0.41850000  0.10790000  0.08430000  1.0 0.1103927268
H  H13  1  0.39080000  0.41480000  0.63250000  1.0 0.118010531
H  H14  1  0.08990000  0.64240000  0.36620000  1.0 0.1103927268
H  H15  1  0.03850000  0.50320000  0.27330000  1.0 0.118010531
H  H16  1  0.29310000  0.30160000  0.50860000  1.0 0.0934573922
H  H17  1  0.40470000  0.90880000  0.19300000  1.0 0.1103927268
H  H18  1  0.61820000  0.99370000  0.18810000  1.0 0.0995651733
H  H19  1  0.68890000  0.27620000  0.62110000  1.0 0.1103927268
H  H20  1  0.57080000  0.29710000  0.73240000  1.0 0.1103927268
H  H21  1  0.18130000  0.16390000  0.88860000  1.0 0.0995651733
H  H22  1  0.98710000  0.06100000  0.93070000  1.0 0.118010531
H  H23  1  0.96050000  0.78690000  0.35590000  1.0 0.1103927268
H  H24  1  0.86610000  0.80140000  0.47750000  1.0 0.0934573922
H  H25  1  0.99140000  0.17600000  0.18990000  1.0 0.1103927268
H  H26  1  0.18890000  0.28220000  0.20330000  1.0 0.118010531
H  H27  1  0.35370000  0.79300000  0.87730000  1.0 0.1103927268
H  H28  1  0.58150000  0.89210000  0.91570000  1.0 0.1103927268
H  H29  1  0.60920000  0.58520000  0.36750000  1.0 0.118010531
H  H30  1  0.91010000  0.35760000  0.63380000  1.0 0.1103927268
H  H31  1  0.96150000  0.49680000  0.72670000  1.0 0.118010531
H  H32  1  0.70690000  0.69840000  0.49140000  1.0 0.0934573922
C  C1  1  0.54100000  0.04900000  0.76600000  1.0 -0.0713665161
C  C2  1  0.42400000  0.00300000  0.76900000  1.0 -0.1072729167
C  C3  1  0.39200000  0.75700000  0.37400000  1.0 -0.100649548
C  C4  1  0.45900000  0.74500000  0.31300000  1.0 -0.0408779106
C  C5  1  0.87500000  0.88500000  0.14400000  1.0 0.0235520851
C  C6  1  0.98900000  0.94000000  0.11900000  1.0 -0.11806685
C  C7  1  0.00200000  0.17400000  0.59700000  1.0 -0.0896819556
C  C8  1  0.05500000  0.16500000  0.53000000  1.0 -0.0896819556
C  C9  1  0.96900000  0.78200000  0.76500000  1.0 -0.0896819556
C  C10  1  0.86200000  0.72400000  0.75800000  1.0 -0.0896819556
C  C11  1  0.58600000  0.19800000  0.15600000  1.0 -0.0309750305
C  C12  1  0.45900000  0.14300000  0.13300000  1.0 -0.100649548
C  C13  1  0.43100000  0.40400000  0.59000000  1.0 -0.078616583
C  C14  1  0.03200000  0.59200000  0.37000000  1.0 -0.0896819556
C  C15  1  0.00100000  0.51400000  0.31700000  1.0 -0.0626091
C  C16  1  0.37600000  0.34000000  0.52000000  1.0 -0.0408779106
C  C17  1  0.45900000  0.95100000  0.23400000  1.0 -0.0713665161
C  C18  1  0.57600000  0.99700000  0.23100000  1.0 -0.1072729167
C  C19  1  0.60800000  0.24300000  0.62600000  1.0 -0.100649548
C  C20  1  0.54100000  0.25500000  0.68700000  1.0 -0.0408779106
C  C21  1  0.12500000  0.11500000  0.85600000  1.0 0.0235520851
C  C22  1  0.01100000  0.06000000  0.88100000  1.0 -0.11806685
C  C23  1  0.99800000  0.82600000  0.40300000  1.0 -0.0896819556
C  C24  1  0.94500000  0.83500000  0.47000000  1.0 -0.0896819556
C  C25  1  0.03100000  0.21800000  0.23500000  1.0 -0.0896819556
C  C26  1  0.13800000  0.27600000  0.24200000  1.0 -0.0896819556
C  C27  1  0.41400000  0.80200000  0.84400000  1.0 -0.0309750305
C  C28  1  0.54100000  0.85700000  0.86700000  1.0 -0.100649548
C  C29  1  0.56900000  0.59600000  0.41000000  1.0 -0.078616583
C  C30  1  0.96800000  0.40800000  0.63000000  1.0 -0.0896819556
C  C31  1  0.99900000  0.48600000  0.68300000  1.0 -0.0626091
C  C32  1  0.62400000  0.66000000  0.48000000  1.0 -0.0408779106
N  N1  1  0.37500000  0.95000000  0.69900000  1.0 -0.11806685
N  N2  1  0.57000000  0.80200000  0.33000000  1.0 -0.1725899421
N  N3  1  0.46200000  0.96000000  0.65400000  1.0 -0.0408779106
N  N4  1  0.57400000  0.85330000  0.40030000  1.0 -0.0309750305
N  N5  1  0.56900000  0.02460000  0.69570000  1.0 -0.1725899421
N  N6  1  0.46700000  0.82700000  0.42600000  1.0 -0.1072729167
N  N7  1  0.96900000  0.97500000  0.24900000  1.0 -0.078616583
N  N8  1  0.88400000  0.11500000  0.58400000  1.0 -0.1725899421
N  N9  1  0.05000000  0.99100000  0.19300000  1.0 -0.1725899421
N  N10  1  0.86300000  0.91000000  0.21000000  1.0 -0.1523084056
N  N11  1  0.87400000  0.07200000  0.50700000  1.0 -0.0408779106
N  N12  1  0.97500000  0.10100000  0.47800000  1.0 -0.0896819556
N  N13  1  0.83300000  0.67300000  0.68800000  1.0 -0.1566305197
N  N14  1  0.93100000  0.70350000  0.64940000  1.0 -0.0408779106
N  N15  1  0.01200000  0.77200000  0.69760000  1.0 -0.1566305197
N  N16  1  0.41200000  0.15600000  0.20200000  1.0 -0.1410040792
N  N17  1  0.56800000  0.41050000  0.51490000  1.0 -0.0492072489
N  N18  1  0.88500000  0.50300000  0.41000000  1.0 -0.0408779106
N  N19  1  0.54800000  0.44550000  0.58320000  1.0 -0.11806685
N  N20  1  0.90600000  0.45900000  0.34100000  1.0 -0.1757369426
N  N21  1  0.96300000  0.57760000  0.42720000  1.0 -0.100649548
N  N22  1  0.46400000  0.34500000  0.47600000  1.0 -0.1566305197
N  N23  1  0.60800000  0.23390000  0.22790000  1.0 -0.131367204
N  N24  1  0.50600000  0.21100000  0.25700000  1.0 -0.0212176859
N  N25  1  0.62500000  0.05000000  0.30100000  1.0 -0.1072729167
N  N26  1  0.43000000  0.19800000  0.67000000  1.0 -0.1757369426
N  N27  1  0.53800000  0.04000000  0.34600000  1.0 -0.0408779106
N  N28  1  0.42600000  0.14670000  0.59970000  1.0 -0.0309750305
N  N29  1  0.43100000  0.97540000  0.30430000  1.0 -0.1757369426
N  N30  1  0.53300000  0.17300000  0.57400000  1.0 -0.1072729167
N  N31  1  0.03100000  0.02500000  0.75100000  1.0 -0.078616583
N  N32  1  0.11600000  0.88500000  0.41600000  1.0 -0.1725899421
N  N33  1  0.95000000  0.00900000  0.80700000  1.0 -0.1725899421
N  N34  1  0.13700000  0.09000000  0.79000000  1.0 -0.1523084056
N  N35  1  0.12600000  0.92800000  0.49300000  1.0 -0.0408779106
N  N36  1  0.02500000  0.89900000  0.52200000  1.0 -0.0896819556
N  N37  1  0.16700000  0.32700000  0.31200000  1.0 -0.1566305197
N  N38  1  0.06900000  0.29650000  0.35060000  1.0 -0.0408779106
N  N39  1  0.98800000  0.22800000  0.30240000  1.0 -0.1566305197
N  N40  1  0.58800000  0.84400000  0.79800000  1.0 -0.1410040792
N  N41  1  0.43200000  0.58950000  0.48510000  1.0 -0.0492072489
N  N42  1  0.11500000  0.49700000  0.59000000  1.0 -0.0408779106
N  N43  1  0.45200000  0.55450000  0.41680000  1.0 -0.11806685
N  N44  1  0.09400000  0.54100000  0.65900000  1.0 -0.1757369426
N  N45  1  0.03700000  0.42240000  0.57280000  1.0 -0.100649548
N  N46  1  0.53600000  0.65500000  0.52400000  1.0 -0.1566305197
N  N47  1  0.39200000  0.76610000  0.77210000  1.0 -0.131367204
N  N48  1  0.49400000  0.78900000  0.74300000  1.0 -0.0212176859
