# DDEC6 charges by PACMAN v1.1 (https://github.com/mtap-research/PACMAN-charge/)
data_JEWWUG_FSR_pacman
_symmetry_space_group_name_H-M   'P 1'
_cell_length_a   6.15740000
_cell_length_b   22.59340000
_cell_length_c   13.25500000
_cell_angle_alpha   90.00000000
_cell_angle_beta   115.74600000
_cell_angle_gamma   90.00000000
_symmetry_Int_Tables_number   1
_chemical_formula_structural   Er2CoH16C24(N2O5)4
_chemical_formula_sum   'Er4 Co2 H32 C48 N16 O40'
_cell_volume   1660.93496444
_cell_formula_units_Z   2
loop_
 _symmetry_equiv_pos_site_id
 _symmetry_equiv_pos_as_xyz
  1  'x, y, z'
loop_
 _atom_site_type_symbol
 _atom_site_label
 _atom_site_symmetry_multiplicity
 _atom_site_fract_x
 _atom_site_fract_y
 _atom_site_fract_z
 _atom_site_occupancy
 _atom_site_charge
Er  Er1  1  0.93910000  0.66689000  0.88893000  1.0 1.9802263209
Er  Er2  1  0.06090000  0.16689000  0.61107000  1.0 1.9802263209
Er  Er3  1  0.06090000  0.33311000  0.11107000  1.0 1.9802263209
Er  Er4  1  0.93910000  0.83311000  0.38893000  1.0 1.9802263209
Co  Co1  1  0.00000000  0.50000000  0.50000000  1.0 0.8684333989
Co  Co2  1  0.00000000  0.00000000  0.00000000  1.0 0.8684333989
H  H1  1  0.50320000  0.60320000  0.84270000  1.0 0.3878137001
H  H2  1  0.65820000  0.57010000  0.81390000  1.0 0.3623249063
H  H3  1  0.10200000  0.61870000  0.12330000  1.0 0.3470020869
H  H4  1  0.18120000  0.59120000  0.08110000  1.0 0.3293392786
H  H5  1  0.29430000  0.83910000  0.21960000  1.0 0.121981763
H  H6  1  0.00100000  0.79080000  0.07410000  1.0 0.1304795423
H  H7  1  0.05680000  0.60840000  0.35500000  1.0 0.1304795423
H  H8  1  0.34800000  0.67320000  0.37430000  1.0 0.121981763
H  H9  1  0.49680000  0.10320000  0.65730000  1.0 0.3878137001
H  H10  1  0.34180000  0.07010000  0.68610000  1.0 0.3623249063
H  H11  1  0.89800000  0.11870000  0.37670000  1.0 0.3470020869
H  H12  1  0.81880000  0.09120000  0.41890000  1.0 0.3293392786
H  H13  1  0.70570000  0.33910000  0.28040000  1.0 0.121981763
H  H14  1  0.99900000  0.29080000  0.42590000  1.0 0.1304795423
H  H15  1  0.94320000  0.10840000  0.14500000  1.0 0.1304795423
H  H16  1  0.65200000  0.17320000  0.12570000  1.0 0.121981763
H  H17  1  0.49680000  0.39680000  0.15730000  1.0 0.3878137001
H  H18  1  0.34180000  0.42990000  0.18610000  1.0 0.3623249063
H  H19  1  0.89800000  0.38130000  0.87670000  1.0 0.3470020869
H  H20  1  0.81880000  0.40880000  0.91890000  1.0 0.3293392786
H  H21  1  0.70570000  0.16090000  0.78040000  1.0 0.121981763
H  H22  1  0.99900000  0.20920000  0.92590000  1.0 0.1304795423
H  H23  1  0.94320000  0.39160000  0.64500000  1.0 0.1304795423
H  H24  1  0.65200000  0.32680000  0.62570000  1.0 0.121981763
H  H25  1  0.50320000  0.89680000  0.34270000  1.0 0.3878137001
H  H26  1  0.65820000  0.92990000  0.31390000  1.0 0.3623249063
H  H27  1  0.10200000  0.88130000  0.62330000  1.0 0.3470020869
H  H28  1  0.18120000  0.90880000  0.58110000  1.0 0.3293392786
H  H29  1  0.29430000  0.66090000  0.71960000  1.0 0.121981763
H  H30  1  0.00100000  0.70920000  0.57410000  1.0 0.1304795423
H  H31  1  0.05680000  0.89160000  0.85500000  1.0 0.1304795423
H  H32  1  0.34800000  0.82680000  0.87430000  1.0 0.121981763
C  C1  1  0.45390000  0.72900000  0.07010000  1.0 0.0497580238
C  C2  1  0.62200000  0.74980000  0.16890000  1.0 0.0497580238
C  C3  1  0.33490000  0.80810000  0.18490000  1.0 0.0497580238
C  C4  1  0.16200000  0.78140000  0.09550000  1.0 0.0676624232
C  C5  1  0.51070000  0.69380000  0.98670000  1.0 0.6224592158
C  C6  1  0.86780000  0.72450000  0.22850000  1.0 0.5430827716
C  C7  1  0.63600000  0.59440000  0.57700000  1.0 0.0303288761
C  C8  1  0.45380000  0.55580000  0.56660000  1.0 0.0113731077
C  C9  1  0.20740000  0.60390000  0.41510000  1.0 0.0497580238
C  C10  1  0.38300000  0.64270000  0.42620000  1.0 0.0428120175
C  C11  1  0.48430000  0.50640000  0.64460000  1.0 0.5203545222
C  C12  1  0.88750000  0.58780000  0.65980000  1.0 0.601926563
C  C13  1  0.54610000  0.22900000  0.42990000  1.0 0.0497580238
C  C14  1  0.37800000  0.24980000  0.33110000  1.0 0.0497580238
C  C15  1  0.66510000  0.30810000  0.31510000  1.0 0.0497580238
C  C16  1  0.83800000  0.28140000  0.40450000  1.0 0.0676624232
C  C17  1  0.48930000  0.19380000  0.51330000  1.0 0.6224592158
C  C18  1  0.13220000  0.22450000  0.27150000  1.0 0.5430827716
C  C19  1  0.36400000  0.09440000  0.92300000  1.0 0.0303288761
C  C20  1  0.54620000  0.05580000  0.93340000  1.0 0.0113731077
C  C21  1  0.79260000  0.10390000  0.08490000  1.0 0.0497580238
C  C22  1  0.61700000  0.14270000  0.07380000  1.0 0.0428120175
C  C23  1  0.51570000  0.00640000  0.85540000  1.0 0.5203545222
C  C24  1  0.11250000  0.08780000  0.84020000  1.0 0.601926563
C  C25  1  0.54610000  0.27100000  0.92990000  1.0 0.0497580238
C  C26  1  0.37800000  0.25020000  0.83110000  1.0 0.0497580238
C  C27  1  0.66510000  0.19190000  0.81510000  1.0 0.0497580238
C  C28  1  0.83800000  0.21860000  0.90450000  1.0 0.0676624232
C  C29  1  0.48930000  0.30620000  0.01330000  1.0 0.6224592158
C  C30  1  0.13220000  0.27550000  0.77150000  1.0 0.5430827716
C  C31  1  0.36400000  0.40560000  0.42300000  1.0 0.0303288761
C  C32  1  0.54620000  0.44420000  0.43340000  1.0 0.0113731077
C  C33  1  0.79260000  0.39610000  0.58490000  1.0 0.0497580238
C  C34  1  0.61700000  0.35730000  0.57380000  1.0 0.0428120175
C  C35  1  0.51570000  0.49360000  0.35540000  1.0 0.5203545222
C  C36  1  0.11250000  0.41220000  0.34020000  1.0 0.601926563
C  C37  1  0.45390000  0.77100000  0.57010000  1.0 0.0497580238
C  C38  1  0.62200000  0.75020000  0.66890000  1.0 0.0497580238
C  C39  1  0.33490000  0.69190000  0.68490000  1.0 0.0497580238
C  C40  1  0.16200000  0.71860000  0.59550000  1.0 0.0676624232
C  C41  1  0.51070000  0.80620000  0.48670000  1.0 0.6224592158
C  C42  1  0.86780000  0.77550000  0.72850000  1.0 0.5430827716
C  C43  1  0.63600000  0.90560000  0.07700000  1.0 0.0303288761
C  C44  1  0.45380000  0.94420000  0.06660000  1.0 0.0113731077
C  C45  1  0.20740000  0.89610000  0.91510000  1.0 0.0497580238
C  C46  1  0.38300000  0.85730000  0.92620000  1.0 0.0428120175
C  C47  1  0.48430000  0.99360000  0.14460000  1.0 0.5203545222
C  C48  1  0.88750000  0.91220000  0.15980000  1.0 0.601926563
N  N1  1  0.22060000  0.74170000  0.03790000  1.0 -0.3028423062
N  N2  1  0.56260000  0.79080000  0.22430000  1.0 -0.3136602959
N  N3  1  0.23850000  0.56080000  0.48400000  1.0 -0.2026593949
N  N4  1  0.60070000  0.63890000  0.50750000  1.0 -0.2026593949
N  N5  1  0.77940000  0.24170000  0.46210000  1.0 -0.3028423062
N  N6  1  0.43740000  0.29080000  0.27570000  1.0 -0.3136602959
N  N7  1  0.76150000  0.06080000  0.01600000  1.0 -0.2026593949
N  N8  1  0.39930000  0.13890000  0.99250000  1.0 -0.2026593949
N  N9  1  0.77940000  0.25830000  0.96210000  1.0 -0.3028423062
N  N10  1  0.43740000  0.20920000  0.77570000  1.0 -0.3136602959
N  N11  1  0.76150000  0.43920000  0.51600000  1.0 -0.2026593949
N  N12  1  0.39930000  0.36110000  0.49250000  1.0 -0.2026593949
N  N13  1  0.22060000  0.75830000  0.53790000  1.0 -0.3028423062
N  N14  1  0.56260000  0.70920000  0.72430000  1.0 -0.3136602959
N  N15  1  0.23850000  0.93920000  0.98400000  1.0 -0.2026593949
N  N16  1  0.60070000  0.86110000  0.00750000  1.0 -0.2026593949
O  O1  1  0.35160000  0.65903000  0.93130000  1.0 -0.5886009505
O  O2  1  0.65000000  0.59670000  0.85760000  1.0 -0.7867550722
O  O3  1  0.70010000  0.70417000  0.97430000  1.0 -0.6442836097
O  O4  1  0.08180000  0.61970000  0.05570000  1.0 -0.7790150961
O  O5  1  0.01240000  0.75480000  0.30440000  1.0 -0.6190237275
O  O6  1  0.90710000  0.67580000  0.20330000  1.0 -0.4672535828
O  O7  1  0.95450000  0.61830000  0.74520000  1.0 -0.6496808103
O  O8  1  0.02010000  0.55470000  0.63650000  1.0 -0.490589892
O  O9  1  0.31550000  0.46955000  0.61390000  1.0 -0.490589892
O  O10  1  0.66200000  0.50460000  0.73020000  1.0 -0.4436134345
O  O11  1  0.64840000  0.15903000  0.56870000  1.0 -0.5886009505
O  O12  1  0.35000000  0.09670000  0.64240000  1.0 -0.7867550722
O  O13  1  0.29990000  0.20417000  0.52570000  1.0 -0.6442836097
O  O14  1  0.91820000  0.11970000  0.44430000  1.0 -0.7790150961
O  O15  1  0.98760000  0.25480000  0.19560000  1.0 -0.6190237275
O  O16  1  0.09290000  0.17580000  0.29670000  1.0 -0.4672535828
O  O17  1  0.04550000  0.11830000  0.75480000  1.0 -0.6496808103
O  O18  1  0.97990000  0.05470000  0.86350000  1.0 -0.4954562059
O  O19  1  0.68450000  0.96955000  0.88610000  1.0 -0.490589892
O  O20  1  0.33800000  0.00460000  0.76980000  1.0 -0.4436134345
O  O21  1  0.64840000  0.34097000  0.06870000  1.0 -0.5886009505
O  O22  1  0.35000000  0.40330000  0.14240000  1.0 -0.7867550722
O  O23  1  0.29990000  0.29583000  0.02570000  1.0 -0.6442836097
O  O24  1  0.91820000  0.38030000  0.94430000  1.0 -0.7790150961
O  O25  1  0.98760000  0.24520000  0.69560000  1.0 -0.6190237275
O  O26  1  0.09290000  0.32420000  0.79670000  1.0 -0.4672535828
O  O27  1  0.04550000  0.38170000  0.25480000  1.0 -0.6496808103
O  O28  1  0.97990000  0.44530000  0.36350000  1.0 -0.4954562059
O  O29  1  0.68450000  0.53045000  0.38610000  1.0 -0.490589892
O  O30  1  0.33800000  0.49540000  0.26980000  1.0 -0.4436134345
O  O31  1  0.35160000  0.84097000  0.43130000  1.0 -0.5886009505
O  O32  1  0.65000000  0.90330000  0.35760000  1.0 -0.7867550722
O  O33  1  0.70010000  0.79583000  0.47430000  1.0 -0.6442836097
O  O34  1  0.08180000  0.88030000  0.55570000  1.0 -0.7790150961
O  O35  1  0.01240000  0.74520000  0.80440000  1.0 -0.6190237275
O  O36  1  0.90710000  0.82420000  0.70330000  1.0 -0.4672535828
O  O37  1  0.95450000  0.88170000  0.24520000  1.0 -0.6496808103
O  O38  1  0.02010000  0.94530000  0.13650000  1.0 -0.4954562059
O  O39  1  0.31550000  0.03045000  0.11390000  1.0 -0.490589892
O  O40  1  0.66200000  0.99540000  0.23020000  1.0 -0.4436134345
