# DDEC6 charges by PACMAN v1.1 (https://github.com/mtap-research/PACMAN-charge/)
data_JEXXAM_FSR_pacman
_symmetry_space_group_name_H-M   'P 1'
_cell_length_a   7.28610000
_cell_length_b   7.28610000
_cell_length_c   8.02070000
_cell_angle_alpha   90.00000000
_cell_angle_beta   90.00000000
_cell_angle_gamma   120.00000000
_symmetry_Int_Tables_number   1
_chemical_formula_structural   Ni(CO2)3
_chemical_formula_sum   'Ni2 C6 O12'
_cell_volume   368.75095981
_cell_formula_units_Z   2
loop_
 _symmetry_equiv_pos_site_id
 _symmetry_equiv_pos_as_xyz
  1  'x, y, z'
loop_
 _atom_site_type_symbol
 _atom_site_label
 _atom_site_symmetry_multiplicity
 _atom_site_fract_x
 _atom_site_fract_y
 _atom_site_fract_z
 _atom_site_occupancy
 _atom_site_charge
Ni  Ni1  1  0.66666667  0.33333333  0.75000000  1.0 0.9478557169
Ni  Ni2  1  0.33333333  0.66666667  0.25000000  1.0 0.9478557169
C  C1  1  0.00000000  0.44260000  0.00000000  1.0 0.7272667646
C  C2  1  0.55740000  0.55740000  0.00000000  1.0 0.7272667646
C  C3  1  0.44260000  0.00000000  0.00000000  1.0 0.7272667646
C  C4  1  0.00000000  0.55740000  0.50000000  1.0 0.7272667646
C  C5  1  0.44260000  0.44260000  0.50000000  1.0 0.7272667646
C  C6  1  0.55740000  0.00000000  0.50000000  1.0 0.7272667646
O  O1  1  0.88860000  0.30960000  0.89411000  1.0 -0.5216093351
O  O2  1  0.69040000  0.57900000  0.89411000  1.0 -0.5216093351
O  O3  1  0.42100000  0.11140000  0.89411000  1.0 -0.5216093351
O  O4  1  0.11140000  0.69040000  0.39411000  1.0 -0.5216093351
O  O5  1  0.30960000  0.42100000  0.39411000  1.0 -0.5216093351
O  O6  1  0.57900000  0.88860000  0.39411000  1.0 -0.5216093351
O  O7  1  0.30960000  0.88860000  0.10589000  1.0 -0.5216093351
O  O8  1  0.57900000  0.69040000  0.10589000  1.0 -0.5216093351
O  O9  1  0.11140000  0.42100000  0.10589000  1.0 -0.5216093351
O  O10  1  0.69040000  0.11140000  0.60589000  1.0 -0.5216093351
O  O11  1  0.42100000  0.30960000  0.60589000  1.0 -0.5216093351
O  O12  1  0.88860000  0.57900000  0.60589000  1.0 -0.5216093351
