# DDEC6 charges by PACMAN v1.1 (https://github.com/mtap-research/PACMAN-charge/)
data_JIDBEG_ASR_pacman
_symmetry_space_group_name_H-M   'P 1'
_cell_length_a   21.02230000
_cell_length_b   21.91680000
_cell_length_c   29.20910000
_cell_angle_alpha   90.00000000
_cell_angle_beta   96.08800000
_cell_angle_gamma   90.00000000
_symmetry_Int_Tables_number   1
_chemical_formula_structural   Dy8H63C79O39
_chemical_formula_sum   'Dy32 H252 C316 O156'
_cell_volume   13381.94599940
_cell_formula_units_Z   4
loop_
 _symmetry_equiv_pos_site_id
 _symmetry_equiv_pos_as_xyz
  1  'x, y, z'
loop_
 _atom_site_type_symbol
 _atom_site_label
 _atom_site_symmetry_multiplicity
 _atom_site_fract_x
 _atom_site_fract_y
 _atom_site_fract_z
 _atom_site_occupancy
 _atom_site_charge
Dy  Dy1  1  0.75002000  0.21391000  0.33159000  1.0 2.0703677454
Dy  Dy2  1  0.64584000  0.07404000  0.38302000  1.0 2.0703677454
Dy  Dy3  1  0.59169000  0.02676000  0.52088000  1.0 2.0613850274
Dy  Dy4  1  0.63051000  0.11155000  0.65742000  1.0 2.0413160839
Dy  Dy5  1  0.73159000  0.26912000  0.70504000  1.0 2.0266451158
Dy  Dy6  1  0.84094000  0.41277000  0.64853000  1.0 2.0613850274
Dy  Dy7  1  0.88919000  0.45325000  0.51777000  1.0 2.0413160839
Dy  Dy8  1  0.85704000  0.37864000  0.38627000  1.0 2.0703677454
Dy  Dy9  1  0.24998000  0.71391000  0.16841000  1.0 2.0703677454
Dy  Dy10  1  0.35416000  0.57404000  0.11698000  1.0 2.0703677454
Dy  Dy11  1  0.40831000  0.52676000  0.97912000  1.0 2.0613850274
Dy  Dy12  1  0.36949000  0.61155000  0.84258000  1.0 2.0413160839
Dy  Dy13  1  0.26841000  0.76912000  0.79496000  1.0 2.0266451158
Dy  Dy14  1  0.15906000  0.91277000  0.85147000  1.0 2.0613850274
Dy  Dy15  1  0.11081000  0.95325000  0.98223000  1.0 2.0413160839
Dy  Dy16  1  0.14296000  0.87864000  0.11373000  1.0 2.0703677454
Dy  Dy17  1  0.24998000  0.78609000  0.66841000  1.0 2.0703677454
Dy  Dy18  1  0.35416000  0.92596000  0.61698000  1.0 2.0703677454
Dy  Dy19  1  0.40831000  0.97324000  0.47912000  1.0 2.0613850274
Dy  Dy20  1  0.36949000  0.88845000  0.34258000  1.0 2.0413160839
Dy  Dy21  1  0.26841000  0.73088000  0.29496000  1.0 2.0266451158
Dy  Dy22  1  0.15906000  0.58723000  0.35147000  1.0 2.0613850274
Dy  Dy23  1  0.11081000  0.54675000  0.48223000  1.0 2.0413160839
Dy  Dy24  1  0.14296000  0.62136000  0.61373000  1.0 2.0703677454
Dy  Dy25  1  0.75002000  0.28609000  0.83159000  1.0 2.0703677454
Dy  Dy26  1  0.64584000  0.42596000  0.88302000  1.0 2.0703677454
Dy  Dy27  1  0.59169000  0.47324000  0.02088000  1.0 2.0613850274
Dy  Dy28  1  0.63051000  0.38845000  0.15742000  1.0 2.0413160839
Dy  Dy29  1  0.73159000  0.23088000  0.20504000  1.0 2.0266451158
Dy  Dy30  1  0.84094000  0.08723000  0.14853000  1.0 2.0613850274
Dy  Dy31  1  0.88919000  0.04675000  0.01777000  1.0 2.0413160839
Dy  Dy32  1  0.85704000  0.12136000  0.88627000  1.0 2.0703677454
H  H1  1  0.98011000  0.13445000  0.48074000  1.0 0.1194980824
H  H2  1  0.86954000  0.05221000  0.40011000  1.0 0.1194980824
H  H3  1  0.97003000  0.03261000  0.47354000  1.0 0.0812862727
H  H4  1  0.98283000  0.03814000  0.42068000  1.0 0.0901172518
H  H5  1  0.90846000  0.94985000  0.40811000  1.0 0.1396151732
H  H6  1  0.97963000  0.93606000  0.43088000  1.0 0.1194980824
H  H7  1  0.92217000  0.94015000  0.46257000  1.0 0.1307496317
H  H8  1  0.89892000  0.03004000  0.52221000  1.0 0.1194980824
H  H9  1  0.79094000  0.98585000  0.60349000  1.0 0.1094597754
H  H10  1  0.92321000  0.99208000  0.58955000  1.0 0.0812862727
H  H11  1  0.89830000  0.96754000  0.63611000  1.0 0.0992155103
H  H12  1  0.88102000  0.90919000  0.54769000  1.0 0.1194980824
H  H13  1  0.91144000  0.87946000  0.59508000  1.0 0.1307496317
H  H14  1  0.83594000  0.89089000  0.58635000  1.0 0.1396151732
H  H15  1  0.92614000  0.08705000  0.61830000  1.0 0.1194980824
H  H16  1  0.94940000  0.22408000  0.68567000  1.0 0.1094597754
H  H17  1  0.01860000  0.13285000  0.63956000  1.0 0.0812862727
H  H18  1  0.00825000  0.12998000  0.69313000  1.0 0.0901172518
H  H19  1  0.06412000  0.22837000  0.70234000  1.0 0.1194980824
H  H20  1  0.10927000  0.17324000  0.69007000  1.0 0.1094597754
H  H21  1  0.08233000  0.22034000  0.65085000  1.0 0.1094597754
H  H22  1  0.00635000  0.19002000  0.57813000  1.0 0.1194980824
H  H23  1  0.02758000  0.29032000  0.48383000  1.0 0.1194980824
H  H24  1  0.06482000  0.17492000  0.51841000  1.0 0.0812862727
H  H25  1  0.09020000  0.20650000  0.47448000  1.0 0.0992155103
H  H26  1  0.11690000  0.24727000  0.56790000  1.0 0.1094597754
H  H27  1  0.16843000  0.22327000  0.53553000  1.0 0.1194980824
H  H28  1  0.13438000  0.28791000  0.52547000  1.0 0.1307496317
H  H29  1  0.50978000  0.33091000  0.41877000  1.0 0.1194980824
H  H30  1  0.46663000  0.17585000  0.43563000  1.0 0.1094597754
H  H31  1  0.38197000  0.23932000  0.45553000  1.0 0.0992155103
H  H32  1  0.42141000  0.29797000  0.44116000  1.0 0.0812862727
H  H33  1  0.40839000  0.20244000  0.37519000  1.0 0.1094597754
H  H34  1  0.34459000  0.24064000  0.38010000  1.0 0.1194980824
H  H35  1  0.40691000  0.27433000  0.36552000  1.0 0.1094597754
H  H36  1  0.47550000  0.29992000  0.51686000  1.0 0.1194980824
H  H37  1  0.52104000  0.30113000  0.63666000  1.0 0.1094597754
H  H38  1  0.44585000  0.35295000  0.56266000  1.0 0.0901172518
H  H39  1  0.42425000  0.32376000  0.60892000  1.0 0.0992155103
H  H40  1  0.42505000  0.41485000  0.63658000  1.0 0.1396151732
H  H41  1  0.50138000  0.41337000  0.63840000  1.0 0.1194980824
H  H42  1  0.45942000  0.44136000  0.59447000  1.0 0.1194980824
H  H43  1  0.54663000  0.41343000  0.55464000  1.0 0.1307496317
H  H44  1  0.68042000  0.51724000  0.54840000  1.0 0.1094597754
H  H45  1  0.55455000  0.49991000  0.50400000  1.0 0.0901172518
H  H46  1  0.60100000  0.55495000  0.49341000  1.0 0.0992155103
H  H47  1  0.52846000  0.58435000  0.54414000  1.0 0.1194980824
H  H48  1  0.55768000  0.53392000  0.58003000  1.0 0.1307496317
H  H49  1  0.60061000  0.59053000  0.56737000  1.0 0.1396151732
H  H50  1  0.58203000  0.44742000  0.45552000  1.0 0.1194980824
H  H51  1  0.63139000  0.38981000  0.34964000  1.0 0.1094597754
H  H52  1  0.51882000  0.42506000  0.38906000  1.0 0.0812862727
H  H53  1  0.56008000  0.47167000  0.36170000  1.0 0.0992155103
H  H54  1  0.47559000  0.42722000  0.30942000  1.0 0.1396151732
H  H55  1  0.54431000  0.40907000  0.29473000  1.0 0.1194980824
H  H56  1  0.50427000  0.36070000  0.32105000  1.0 0.1094597754
H  H57  1  0.00168000  0.53347000  0.59761000  1.0 0.0812862727
H  H58  1  0.84542000  0.56570000  0.63082000  1.0 0.0691731938
H  H59  1  0.86654000  0.37110000  0.79046000  1.0 0.1194980824
H  H60  1  0.79854000  0.14212000  0.74508000  1.0 0.1094597754
H  H61  1  0.61195000  0.92182000  0.64398000  1.0 0.1194980824
H  H62  1  0.49384000  0.05495000  0.59858000  1.0 0.1094597754
H  H63  1  0.58419000  0.21298000  0.77183000  1.0 0.1473632783
H  H64  1  0.01989000  0.63445000  0.01926000  1.0 0.1194980824
H  H65  1  0.13046000  0.55221000  0.09989000  1.0 0.1194980824
H  H66  1  0.02997000  0.53261000  0.02646000  1.0 0.0812862727
H  H67  1  0.01717000  0.53814000  0.07932000  1.0 0.0901172518
H  H68  1  0.09154000  0.44985000  0.09189000  1.0 0.1396151732
H  H69  1  0.02037000  0.43606000  0.06912000  1.0 0.1194980824
H  H70  1  0.07783000  0.44015000  0.03743000  1.0 0.1307496317
H  H71  1  0.10108000  0.53004000  0.97779000  1.0 0.1194980824
H  H72  1  0.20906000  0.48585000  0.89651000  1.0 0.1094597754
H  H73  1  0.07679000  0.49208000  0.91045000  1.0 0.0812862727
H  H74  1  0.10170000  0.46754000  0.86389000  1.0 0.0992155103
H  H75  1  0.11898000  0.40919000  0.95231000  1.0 0.1194980824
H  H76  1  0.08856000  0.37946000  0.90492000  1.0 0.1307496317
H  H77  1  0.16406000  0.39089000  0.91365000  1.0 0.1396151732
H  H78  1  0.07386000  0.58705000  0.88170000  1.0 0.1194980824
H  H79  1  0.05060000  0.72408000  0.81433000  1.0 0.1094597754
H  H80  1  0.98140000  0.63285000  0.86044000  1.0 0.0812862727
H  H81  1  0.99175000  0.62998000  0.80687000  1.0 0.0901172518
H  H82  1  0.93588000  0.72837000  0.79766000  1.0 0.1194980824
H  H83  1  0.89073000  0.67324000  0.80993000  1.0 0.1094597754
H  H84  1  0.91767000  0.72034000  0.84915000  1.0 0.1094597754
H  H85  1  0.99365000  0.69002000  0.92187000  1.0 0.1194980824
H  H86  1  0.97242000  0.79032000  0.01617000  1.0 0.1194980824
H  H87  1  0.93518000  0.67492000  0.98159000  1.0 0.0812862727
H  H88  1  0.90980000  0.70650000  0.02552000  1.0 0.0992155103
H  H89  1  0.88310000  0.74727000  0.93210000  1.0 0.1094597754
H  H90  1  0.83157000  0.72327000  0.96447000  1.0 0.1194980824
H  H91  1  0.86562000  0.78791000  0.97453000  1.0 0.1307496317
H  H92  1  0.49022000  0.83091000  0.08123000  1.0 0.1194980824
H  H93  1  0.53337000  0.67585000  0.06437000  1.0 0.1094597754
H  H94  1  0.61803000  0.73932000  0.04447000  1.0 0.0992155103
H  H95  1  0.57859000  0.79797000  0.05884000  1.0 0.0812862727
H  H96  1  0.59161000  0.70244000  0.12481000  1.0 0.1094597754
H  H97  1  0.65541000  0.74064000  0.11990000  1.0 0.1194980824
H  H98  1  0.59309000  0.77433000  0.13448000  1.0 0.1094597754
H  H99  1  0.52450000  0.79992000  0.98314000  1.0 0.1194980824
H  H100  1  0.47896000  0.80113000  0.86334000  1.0 0.1094597754
H  H101  1  0.55415000  0.85295000  0.93734000  1.0 0.0901172518
H  H102  1  0.57575000  0.82376000  0.89108000  1.0 0.0992155103
H  H103  1  0.57495000  0.91485000  0.86342000  1.0 0.1396151732
H  H104  1  0.49862000  0.91337000  0.86160000  1.0 0.1194980824
H  H105  1  0.54058000  0.94136000  0.90553000  1.0 0.1194980824
H  H106  1  0.45337000  0.91343000  0.94536000  1.0 0.1307496317
H  H107  1  0.31958000  0.01724000  0.95160000  1.0 0.1094597754
H  H108  1  0.44545000  0.99991000  0.99600000  1.0 0.0901172518
H  H109  1  0.39900000  0.05495000  0.00659000  1.0 0.0992155103
H  H110  1  0.47154000  0.08435000  0.95586000  1.0 0.1194980824
H  H111  1  0.44232000  0.03392000  0.91997000  1.0 0.1307496317
H  H112  1  0.39939000  0.09053000  0.93263000  1.0 0.1396151732
H  H113  1  0.41797000  0.94742000  0.04448000  1.0 0.1194980824
H  H114  1  0.36861000  0.88981000  0.15036000  1.0 0.1094597754
H  H115  1  0.48118000  0.92506000  0.11094000  1.0 0.0812862727
H  H116  1  0.43992000  0.97167000  0.13830000  1.0 0.0992155103
H  H117  1  0.52441000  0.92722000  0.19058000  1.0 0.1396151732
H  H118  1  0.45569000  0.90907000  0.20527000  1.0 0.1194980824
H  H119  1  0.49573000  0.86070000  0.17895000  1.0 0.1094597754
H  H120  1  0.99832000  0.03347000  0.90239000  1.0 0.0812862727
H  H121  1  0.15458000  0.06570000  0.86918000  1.0 0.0691731938
H  H122  1  0.13346000  0.87110000  0.70954000  1.0 0.1194980824
H  H123  1  0.20146000  0.64212000  0.75492000  1.0 0.1094597754
H  H124  1  0.38805000  0.42182000  0.85602000  1.0 0.1194980824
H  H125  1  0.50616000  0.55495000  0.90142000  1.0 0.1094597754
H  H126  1  0.41581000  0.71298000  0.72817000  1.0 0.1473632783
H  H127  1  0.01989000  0.86555000  0.51926000  1.0 0.1194980824
H  H128  1  0.13046000  0.94779000  0.59989000  1.0 0.1194980824
H  H129  1  0.02997000  0.96739000  0.52646000  1.0 0.0812862727
H  H130  1  0.01717000  0.96186000  0.57932000  1.0 0.0901172518
H  H131  1  0.09154000  0.05015000  0.59189000  1.0 0.1396151732
H  H132  1  0.02037000  0.06394000  0.56912000  1.0 0.1194980824
H  H133  1  0.07783000  0.05985000  0.53743000  1.0 0.1307496317
H  H134  1  0.10108000  0.96996000  0.47779000  1.0 0.1194980824
H  H135  1  0.20906000  0.01415000  0.39651000  1.0 0.1094597754
H  H136  1  0.07679000  0.00792000  0.41045000  1.0 0.0812862727
H  H137  1  0.10170000  0.03246000  0.36389000  1.0 0.0992155103
H  H138  1  0.11898000  0.09081000  0.45231000  1.0 0.1194980824
H  H139  1  0.08856000  0.12054000  0.40492000  1.0 0.1307496317
H  H140  1  0.16406000  0.10911000  0.41365000  1.0 0.1396151732
H  H141  1  0.07386000  0.91295000  0.38170000  1.0 0.1194980824
H  H142  1  0.05060000  0.77592000  0.31433000  1.0 0.1094597754
H  H143  1  0.98140000  0.86715000  0.36044000  1.0 0.0812862727
H  H144  1  0.99175000  0.87002000  0.30687000  1.0 0.0901172518
H  H145  1  0.93588000  0.77163000  0.29766000  1.0 0.1194980824
H  H146  1  0.89073000  0.82676000  0.30993000  1.0 0.1094597754
H  H147  1  0.91767000  0.77966000  0.34915000  1.0 0.1094597754
H  H148  1  0.99365000  0.80998000  0.42187000  1.0 0.1194980824
H  H149  1  0.97242000  0.70968000  0.51617000  1.0 0.1194980824
H  H150  1  0.93518000  0.82508000  0.48159000  1.0 0.0812862727
H  H151  1  0.90980000  0.79350000  0.52552000  1.0 0.0992155103
H  H152  1  0.88310000  0.75273000  0.43210000  1.0 0.1094597754
H  H153  1  0.83157000  0.77673000  0.46447000  1.0 0.1194980824
H  H154  1  0.86562000  0.71209000  0.47453000  1.0 0.1307496317
H  H155  1  0.49022000  0.66909000  0.58123000  1.0 0.1194980824
H  H156  1  0.53337000  0.82415000  0.56437000  1.0 0.1094597754
H  H157  1  0.61803000  0.76068000  0.54447000  1.0 0.0992155103
H  H158  1  0.57859000  0.70203000  0.55884000  1.0 0.0812862727
H  H159  1  0.59161000  0.79756000  0.62481000  1.0 0.1094597754
H  H160  1  0.65541000  0.75936000  0.61990000  1.0 0.1194980824
H  H161  1  0.59309000  0.72567000  0.63448000  1.0 0.1094597754
H  H162  1  0.52450000  0.70008000  0.48314000  1.0 0.1194980824
H  H163  1  0.47896000  0.69887000  0.36334000  1.0 0.1094597754
H  H164  1  0.55415000  0.64705000  0.43734000  1.0 0.0901172518
H  H165  1  0.57575000  0.67624000  0.39108000  1.0 0.0992155103
H  H166  1  0.57495000  0.58515000  0.36342000  1.0 0.1396151732
H  H167  1  0.49862000  0.58663000  0.36160000  1.0 0.1194980824
H  H168  1  0.54058000  0.55864000  0.40553000  1.0 0.1194980824
H  H169  1  0.45337000  0.58657000  0.44536000  1.0 0.1307496317
H  H170  1  0.31958000  0.48276000  0.45160000  1.0 0.1094597754
H  H171  1  0.44545000  0.50009000  0.49600000  1.0 0.0901172518
H  H172  1  0.39900000  0.44505000  0.50659000  1.0 0.0992155103
H  H173  1  0.47154000  0.41565000  0.45586000  1.0 0.1194980824
H  H174  1  0.44232000  0.46608000  0.41997000  1.0 0.1307496317
H  H175  1  0.39939000  0.40947000  0.43263000  1.0 0.1396151732
H  H176  1  0.41797000  0.55258000  0.54448000  1.0 0.1194980824
H  H177  1  0.36861000  0.61019000  0.65036000  1.0 0.1094597754
H  H178  1  0.48118000  0.57494000  0.61094000  1.0 0.0812862727
H  H179  1  0.43992000  0.52833000  0.63830000  1.0 0.0992155103
H  H180  1  0.52441000  0.57278000  0.69058000  1.0 0.1396151732
H  H181  1  0.45569000  0.59093000  0.70527000  1.0 0.1194980824
H  H182  1  0.49573000  0.63930000  0.67895000  1.0 0.1094597754
H  H183  1  0.99832000  0.46653000  0.40239000  1.0 0.0812862727
H  H184  1  0.15458000  0.43430000  0.36918000  1.0 0.0691731938
H  H185  1  0.13346000  0.62890000  0.20954000  1.0 0.1194980824
H  H186  1  0.20146000  0.85788000  0.25492000  1.0 0.1094597754
H  H187  1  0.38805000  0.07818000  0.35602000  1.0 0.1194980824
H  H188  1  0.50616000  0.94505000  0.40142000  1.0 0.1094597754
H  H189  1  0.41581000  0.78702000  0.22817000  1.0 0.1473632783
H  H190  1  0.98011000  0.36555000  0.98074000  1.0 0.1194980824
H  H191  1  0.86954000  0.44779000  0.90011000  1.0 0.1194980824
H  H192  1  0.97003000  0.46739000  0.97354000  1.0 0.0812862727
H  H193  1  0.98283000  0.46186000  0.92068000  1.0 0.0901172518
H  H194  1  0.90846000  0.55015000  0.90811000  1.0 0.1396151732
H  H195  1  0.97963000  0.56394000  0.93088000  1.0 0.1194980824
H  H196  1  0.92217000  0.55985000  0.96257000  1.0 0.1307496317
H  H197  1  0.89892000  0.46996000  0.02221000  1.0 0.1194980824
H  H198  1  0.79094000  0.51415000  0.10349000  1.0 0.1094597754
H  H199  1  0.92321000  0.50792000  0.08955000  1.0 0.0812862727
H  H200  1  0.89830000  0.53246000  0.13611000  1.0 0.0992155103
H  H201  1  0.88102000  0.59081000  0.04769000  1.0 0.1194980824
H  H202  1  0.91144000  0.62054000  0.09508000  1.0 0.1307496317
H  H203  1  0.83594000  0.60911000  0.08635000  1.0 0.1396151732
H  H204  1  0.92614000  0.41295000  0.11830000  1.0 0.1194980824
H  H205  1  0.94940000  0.27592000  0.18567000  1.0 0.1094597754
H  H206  1  0.01860000  0.36715000  0.13956000  1.0 0.0812862727
H  H207  1  0.00825000  0.37002000  0.19313000  1.0 0.0901172518
H  H208  1  0.06412000  0.27163000  0.20234000  1.0 0.1194980824
H  H209  1  0.10927000  0.32676000  0.19007000  1.0 0.1094597754
H  H210  1  0.08233000  0.27966000  0.15085000  1.0 0.1094597754
H  H211  1  0.00635000  0.30998000  0.07813000  1.0 0.1194980824
H  H212  1  0.02758000  0.20968000  0.98383000  1.0 0.1194980824
H  H213  1  0.06482000  0.32508000  0.01841000  1.0 0.0812862727
H  H214  1  0.09020000  0.29350000  0.97448000  1.0 0.0992155103
H  H215  1  0.11690000  0.25273000  0.06790000  1.0 0.1094597754
H  H216  1  0.16843000  0.27673000  0.03553000  1.0 0.1194980824
H  H217  1  0.13438000  0.21209000  0.02547000  1.0 0.1307496317
H  H218  1  0.50978000  0.16909000  0.91877000  1.0 0.1194980824
H  H219  1  0.46663000  0.32415000  0.93563000  1.0 0.1094597754
H  H220  1  0.38197000  0.26068000  0.95553000  1.0 0.0992155103
H  H221  1  0.42141000  0.20203000  0.94116000  1.0 0.0812862727
H  H222  1  0.40839000  0.29756000  0.87519000  1.0 0.1094597754
H  H223  1  0.34459000  0.25936000  0.88010000  1.0 0.1194980824
H  H224  1  0.40691000  0.22567000  0.86552000  1.0 0.1094597754
H  H225  1  0.47550000  0.20008000  0.01686000  1.0 0.1194980824
H  H226  1  0.52104000  0.19887000  0.13666000  1.0 0.1094597754
H  H227  1  0.44585000  0.14705000  0.06266000  1.0 0.0901172518
H  H228  1  0.42425000  0.17624000  0.10892000  1.0 0.0992155103
H  H229  1  0.42505000  0.08515000  0.13658000  1.0 0.1396151732
H  H230  1  0.50138000  0.08663000  0.13840000  1.0 0.1194980824
H  H231  1  0.45942000  0.05864000  0.09447000  1.0 0.1194980824
H  H232  1  0.54663000  0.08657000  0.05464000  1.0 0.1307496317
H  H233  1  0.68042000  0.98276000  0.04840000  1.0 0.1194980824
H  H234  1  0.55455000  0.00009000  0.00400000  1.0 0.0901172518
H  H235  1  0.60100000  0.94505000  0.99341000  1.0 0.0992155103
H  H236  1  0.52846000  0.91565000  0.04414000  1.0 0.1194980824
H  H237  1  0.55768000  0.96608000  0.08003000  1.0 0.1307496317
H  H238  1  0.60061000  0.90947000  0.06737000  1.0 0.1396151732
H  H239  1  0.58203000  0.05258000  0.95552000  1.0 0.1194980824
H  H240  1  0.63139000  0.11019000  0.84964000  1.0 0.1094597754
H  H241  1  0.51882000  0.07494000  0.88906000  1.0 0.0812862727
H  H242  1  0.56008000  0.02833000  0.86170000  1.0 0.0992155103
H  H243  1  0.47559000  0.07278000  0.80942000  1.0 0.1396151732
H  H244  1  0.54431000  0.09093000  0.79473000  1.0 0.1194980824
H  H245  1  0.50427000  0.13930000  0.82105000  1.0 0.1094597754
H  H246  1  0.00168000  0.96653000  0.09761000  1.0 0.0812862727
H  H247  1  0.84542000  0.93430000  0.13082000  1.0 0.0691731938
H  H248  1  0.86654000  0.12890000  0.29046000  1.0 0.1194980824
H  H249  1  0.79854000  0.35788000  0.24508000  1.0 0.1094597754
H  H250  1  0.61195000  0.57818000  0.14398000  1.0 0.1194980824
H  H251  1  0.49384000  0.44505000  0.09858000  1.0 0.1094597754
H  H252  1  0.58419000  0.28702000  0.27183000  1.0 0.1473632783
C  C1  1  0.92280000  0.25700000  0.43300000  1.0 0.1703002133
C  C2  1  0.87340000  0.23310000  0.40410000  1.0 0.1194980824
C  C3  1  0.86330000  0.16970000  0.40230000  1.0 0.197079168
C  C4  1  0.90250000  0.13240000  0.43140000  1.0 -0.0098492821
C  C5  1  0.95290000  0.15980000  0.46090000  1.0 -0.2094310516
C  C6  1  0.96330000  0.22130000  0.46160000  1.0 0.002079165
C  C7  1  0.88960000  0.06350000  0.43150000  1.0 -0.0408713661
C  C8  1  0.95130000  0.02490000  0.44150000  1.0 -0.149764654
C  C9  1  0.93930000  0.95660000  0.43520000  1.0 -0.3800275854
C  C10  1  0.83980000  0.04990000  0.46610000  1.0 0.0080350207
C  C11  1  0.77500000  0.05380000  0.44990000  1.0 0.1801020968
C  C12  1  0.72760000  0.04480000  0.47950000  1.0 0.1396151732
C  C13  1  0.74630000  0.02980000  0.52550000  1.0 0.1703002133
C  C14  1  0.80990000  0.02330000  0.54210000  1.0 0.002079165
C  C15  1  0.85500000  0.03400000  0.51120000  1.0 -0.1999740533
C  C16  1  0.82700000  0.01010000  0.59300000  1.0 -0.0408713661
C  C17  1  0.88720000  0.97140000  0.60240000  1.0 -0.149764654
C  C18  1  0.87810000  0.90680000  0.58090000  1.0 -0.3599425635
C  C19  1  0.83070000  0.06880000  0.62010000  1.0 -0.031441594
C  C20  1  0.77530000  0.09350000  0.63400000  1.0 0.197079168
C  C21  1  0.77650000  0.15060000  0.65550000  1.0 0.0992155103
C  C22  1  0.83330000  0.18410000  0.66420000  1.0 0.1907012158
C  C23  1  0.89090000  0.15980000  0.65050000  1.0 -0.0098492821
C  C24  1  0.88800000  0.10320000  0.62830000  1.0 -0.2094310516
C  C25  1  0.95230000  0.19830000  0.65770000  1.0 -0.0408713661
C  C26  1  0.01310000  0.15790000  0.66710000  1.0 -0.149764654
C  C27  1  0.07270000  0.19870000  0.67860000  1.0 -0.3334084234
C  C28  1  0.95470000  0.24070000  0.61750000  1.0 0.0080350207
C  C29  1  0.92150000  0.29580000  0.61760000  1.0 0.1591221926
C  C30  1  0.91730000  0.33600000  0.58070000  1.0 0.1591221926
C  C31  1  0.95070000  0.32200000  0.54190000  1.0 0.197079168
C  C32  1  0.98450000  0.26630000  0.54080000  1.0 0.0080350207
C  C33  1  0.98440000  0.22780000  0.57890000  1.0 -0.2094310516
C  C34  1  0.01560000  0.25060000  0.49740000  1.0 -0.0408713661
C  C35  1  0.07460000  0.21470000  0.50470000  1.0 -0.1585622784
C  C36  1  0.12850000  0.24620000  0.53630000  1.0 -0.3381352506
C  C37  1  0.59130000  0.32290000  0.38730000  1.0 -0.0026286763
C  C38  1  0.63540000  0.28020000  0.37530000  1.0 0.1473632783
C  C39  1  0.62740000  0.21840000  0.38470000  1.0 0.1591221926
C  C40  1  0.57350000  0.19880000  0.40640000  1.0 0.1703002133
C  C41  1  0.53110000  0.24010000  0.41970000  1.0 -0.0163716769
C  C42  1  0.53990000  0.30210000  0.40980000  1.0 -0.2094310516
C  C43  1  0.47620000  0.21880000  0.44580000  1.0 -0.0408713661
C  C44  1  0.41420000  0.25380000  0.43570000  1.0 -0.1585622784
C  C45  1  0.39140000  0.24170000  0.38440000  1.0 -0.3381352506
C  C46  1  0.50170000  0.21520000  0.49700000  1.0 -0.0098492821
C  C47  1  0.53180000  0.16230000  0.51450000  1.0 0.1801020968
C  C48  1  0.55810000  0.15870000  0.56020000  1.0 0.1396151732
C  C49  1  0.55170000  0.20960000  0.58850000  1.0 0.1801020968
C  C50  1  0.52120000  0.26120000  0.57310000  1.0 -0.0163716769
C  C51  1  0.49680000  0.26370000  0.52790000  1.0 -0.2094310516
C  C52  1  0.51950000  0.31770000  0.60470000  1.0 -0.031441594
C  C53  1  0.45760000  0.34850000  0.59620000  1.0 -0.1438721499
C  C54  1  0.46120000  0.40970000  0.61830000  1.0 -0.371896275
C  C55  1  0.58110000  0.35490000  0.60380000  1.0 0.0080350207
C  C56  1  0.63700000  0.33880000  0.63180000  1.0 0.1703002133
C  C57  1  0.69300000  0.36900000  0.62970000  1.0 0.1194980824
C  C58  1  0.69540000  0.41890000  0.59940000  1.0 0.197079168
C  C59  1  0.64120000  0.43750000  0.57050000  1.0 0.002079165
C  C60  1  0.58420000  0.40270000  0.57400000  1.0 -0.2094310516
C  C61  1  0.64690000  0.48840000  0.53460000  1.0 -0.0408713661
C  C62  1  0.58940000  0.52670000  0.51770000  1.0 -0.149764654
C  C63  1  0.56720000  0.56180000  0.55540000  1.0 -0.3800275854
C  C64  1  0.67060000  0.46320000  0.49240000  1.0 0.0080350207
C  C65  1  0.73600000  0.45370000  0.49180000  1.0 0.1591221926
C  C66  1  0.76170000  0.42550000  0.45390000  1.0 0.2326462746
C  C67  1  0.71610000  0.40840000  0.41540000  1.0 0.1703002133
C  C68  1  0.65140000  0.41500000  0.41620000  1.0 -0.0098492821
C  C69  1  0.62680000  0.44270000  0.45480000  1.0 -0.242793896
C  C70  1  0.60710000  0.39010000  0.37730000  1.0 -0.0408713661
C  C71  1  0.54810000  0.42830000  0.36480000  1.0 -0.1585622784
C  C72  1  0.51480000  0.40400000  0.31830000  1.0 -0.3498164794
C  C73  1  0.01870000  0.52180000  0.57000000  1.0 0.5716875859
C  C74  1  0.86400000  0.55590000  0.60350000  1.0 0.5116129585
C  C75  1  0.84060000  0.36080000  0.76290000  1.0 0.5827380635
C  C76  1  0.79670000  0.16000000  0.77450000  1.0 0.5901748457
C  C77  1  0.60510000  0.95980000  0.62860000  1.0 0.5532422581
C  C78  1  0.47080000  0.02240000  0.58310000  1.0 0.5827380635
C  C79  1  0.61890000  0.22320000  0.75490000  1.0 0.5016214766
C  C80  1  0.07720000  0.75700000  0.06700000  1.0 0.1703002133
C  C81  1  0.12660000  0.73310000  0.09590000  1.0 0.1194980824
C  C82  1  0.13670000  0.66970000  0.09770000  1.0 0.197079168
C  C83  1  0.09750000  0.63240000  0.06860000  1.0 -0.0098492821
C  C84  1  0.04710000  0.65980000  0.03910000  1.0 -0.2094310516
C  C85  1  0.03670000  0.72130000  0.03840000  1.0 0.002079165
C  C86  1  0.11040000  0.56350000  0.06850000  1.0 -0.0408713661
C  C87  1  0.04870000  0.52490000  0.05850000  1.0 -0.149764654
C  C88  1  0.06070000  0.45660000  0.06480000  1.0 -0.3800275854
C  C89  1  0.16020000  0.54990000  0.03390000  1.0 0.0080350207
C  C90  1  0.22500000  0.55380000  0.05010000  1.0 0.1801020968
C  C91  1  0.27240000  0.54480000  0.02050000  1.0 0.1396151732
C  C92  1  0.25370000  0.52980000  0.97450000  1.0 0.1703002133
C  C93  1  0.19010000  0.52330000  0.95790000  1.0 0.002079165
C  C94  1  0.14500000  0.53400000  0.98880000  1.0 -0.1999740533
C  C95  1  0.17300000  0.51010000  0.90700000  1.0 -0.0408713661
C  C96  1  0.11280000  0.47140000  0.89760000  1.0 -0.149764654
C  C97  1  0.12190000  0.40680000  0.91910000  1.0 -0.3599425635
C  C98  1  0.16930000  0.56880000  0.87990000  1.0 -0.031441594
C  C99  1  0.22470000  0.59350000  0.86600000  1.0 0.197079168
C  C100  1  0.22350000  0.65060000  0.84450000  1.0 0.0992155103
C  C101  1  0.16670000  0.68410000  0.83580000  1.0 0.1907012158
C  C102  1  0.10910000  0.65980000  0.84950000  1.0 -0.0098492821
C  C103  1  0.11200000  0.60320000  0.87170000  1.0 -0.2094310516
C  C104  1  0.04770000  0.69830000  0.84230000  1.0 -0.0408713661
C  C105  1  0.98690000  0.65790000  0.83290000  1.0 -0.149764654
C  C106  1  0.92730000  0.69870000  0.82140000  1.0 -0.3334084234
C  C107  1  0.04530000  0.74070000  0.88250000  1.0 0.0080350207
C  C108  1  0.07850000  0.79580000  0.88240000  1.0 0.1591221926
C  C109  1  0.08270000  0.83600000  0.91930000  1.0 0.1591221926
C  C110  1  0.04930000  0.82200000  0.95810000  1.0 0.197079168
C  C111  1  0.01550000  0.76630000  0.95920000  1.0 0.0080350207
C  C112  1  0.01560000  0.72780000  0.92110000  1.0 -0.2094310516
C  C113  1  0.98440000  0.75060000  0.00260000  1.0 -0.0408713661
C  C114  1  0.92540000  0.71470000  0.99530000  1.0 -0.1585622784
C  C115  1  0.87150000  0.74620000  0.96370000  1.0 -0.3381352506
C  C116  1  0.40870000  0.82290000  0.11270000  1.0 -0.0026286763
C  C117  1  0.36460000  0.78020000  0.12470000  1.0 0.1473632783
C  C118  1  0.37260000  0.71840000  0.11530000  1.0 0.1591221926
C  C119  1  0.42650000  0.69880000  0.09360000  1.0 0.1703002133
C  C120  1  0.46890000  0.74010000  0.08030000  1.0 -0.0163716769
C  C121  1  0.46010000  0.80210000  0.09020000  1.0 -0.2094310516
C  C122  1  0.52380000  0.71880000  0.05420000  1.0 -0.0408713661
C  C123  1  0.58580000  0.75380000  0.06430000  1.0 -0.1585622784
C  C124  1  0.60860000  0.74170000  0.11560000  1.0 -0.3381352506
C  C125  1  0.49830000  0.71520000  0.00300000  1.0 -0.0098492821
C  C126  1  0.46820000  0.66230000  0.98550000  1.0 0.1801020968
C  C127  1  0.44190000  0.65870000  0.93980000  1.0 0.1396151732
C  C128  1  0.44830000  0.70960000  0.91150000  1.0 0.1801020968
C  C129  1  0.47880000  0.76120000  0.92690000  1.0 -0.0163716769
C  C130  1  0.50320000  0.76370000  0.97210000  1.0 -0.2094310516
C  C131  1  0.48050000  0.81770000  0.89530000  1.0 -0.031441594
C  C132  1  0.54240000  0.84850000  0.90380000  1.0 -0.1438721499
C  C133  1  0.53880000  0.90970000  0.88170000  1.0 -0.371896275
C  C134  1  0.41890000  0.85490000  0.89620000  1.0 0.0080350207
C  C135  1  0.36300000  0.83880000  0.86820000  1.0 0.1703002133
C  C136  1  0.30700000  0.86900000  0.87030000  1.0 0.1194980824
C  C137  1  0.30460000  0.91890000  0.90060000  1.0 0.197079168
C  C138  1  0.35880000  0.93750000  0.92950000  1.0 0.002079165
C  C139  1  0.41580000  0.90270000  0.92600000  1.0 -0.2094310516
C  C140  1  0.35310000  0.98840000  0.96540000  1.0 -0.0408713661
C  C141  1  0.41060000  0.02670000  0.98230000  1.0 -0.149764654
C  C142  1  0.43280000  0.06180000  0.94460000  1.0 -0.3800275854
C  C143  1  0.32940000  0.96320000  0.00760000  1.0 0.0080350207
C  C144  1  0.26400000  0.95370000  0.00820000  1.0 0.1591221926
C  C145  1  0.23830000  0.92550000  0.04610000  1.0 0.2326462746
C  C146  1  0.28390000  0.90840000  0.08460000  1.0 0.1703002133
C  C147  1  0.34860000  0.91500000  0.08380000  1.0 -0.0098492821
C  C148  1  0.37320000  0.94270000  0.04520000  1.0 -0.242793896
C  C149  1  0.39290000  0.89010000  0.12270000  1.0 -0.0408713661
C  C150  1  0.45190000  0.92830000  0.13520000  1.0 -0.1585622784
C  C151  1  0.48520000  0.90400000  0.18170000  1.0 -0.3498164794
C  C152  1  0.98130000  0.02180000  0.93000000  1.0 0.5716875859
C  C153  1  0.13600000  0.05590000  0.89650000  1.0 0.5116129585
C  C154  1  0.15940000  0.86080000  0.73710000  1.0 0.5827380635
C  C155  1  0.20330000  0.66000000  0.72550000  1.0 0.5901748457
C  C156  1  0.39490000  0.45980000  0.87140000  1.0 0.5532422581
C  C157  1  0.52920000  0.52240000  0.91690000  1.0 0.5827380635
C  C158  1  0.38110000  0.72320000  0.74510000  1.0 0.5016214766
C  C159  1  0.07720000  0.74300000  0.56700000  1.0 0.1703002133
C  C160  1  0.12660000  0.76690000  0.59590000  1.0 0.1194980824
C  C161  1  0.13670000  0.83030000  0.59770000  1.0 0.197079168
C  C162  1  0.09750000  0.86760000  0.56860000  1.0 -0.0098492821
C  C163  1  0.04710000  0.84020000  0.53910000  1.0 -0.2094310516
C  C164  1  0.03670000  0.77870000  0.53840000  1.0 0.002079165
C  C165  1  0.11040000  0.93650000  0.56850000  1.0 -0.0408713661
C  C166  1  0.04870000  0.97510000  0.55850000  1.0 -0.149764654
C  C167  1  0.06070000  0.04340000  0.56480000  1.0 -0.3800275854
C  C168  1  0.16020000  0.95010000  0.53390000  1.0 0.0080350207
C  C169  1  0.22500000  0.94620000  0.55010000  1.0 0.1801020968
C  C170  1  0.27240000  0.95520000  0.52050000  1.0 0.1396151732
C  C171  1  0.25370000  0.97020000  0.47450000  1.0 0.1703002133
C  C172  1  0.19010000  0.97670000  0.45790000  1.0 0.002079165
C  C173  1  0.14500000  0.96600000  0.48880000  1.0 -0.1999740533
C  C174  1  0.17300000  0.98990000  0.40700000  1.0 -0.0408713661
C  C175  1  0.11280000  0.02860000  0.39760000  1.0 -0.149764654
C  C176  1  0.12190000  0.09320000  0.41910000  1.0 -0.3599425635
C  C177  1  0.16930000  0.93120000  0.37990000  1.0 -0.031441594
C  C178  1  0.22470000  0.90650000  0.36600000  1.0 0.197079168
C  C179  1  0.22350000  0.84940000  0.34450000  1.0 0.0992155103
C  C180  1  0.16670000  0.81590000  0.33580000  1.0 0.1907012158
C  C181  1  0.10910000  0.84020000  0.34950000  1.0 -0.0098492821
C  C182  1  0.11200000  0.89680000  0.37170000  1.0 -0.2094310516
C  C183  1  0.04770000  0.80170000  0.34230000  1.0 -0.0408713661
C  C184  1  0.98690000  0.84210000  0.33290000  1.0 -0.149764654
C  C185  1  0.92730000  0.80130000  0.32140000  1.0 -0.3334084234
C  C186  1  0.04530000  0.75930000  0.38250000  1.0 0.0080350207
C  C187  1  0.07850000  0.70420000  0.38240000  1.0 0.1591221926
C  C188  1  0.08270000  0.66400000  0.41930000  1.0 0.1591221926
C  C189  1  0.04930000  0.67800000  0.45810000  1.0 0.197079168
C  C190  1  0.01550000  0.73370000  0.45920000  1.0 0.0080350207
C  C191  1  0.01560000  0.77220000  0.42110000  1.0 -0.2094310516
C  C192  1  0.98440000  0.74940000  0.50260000  1.0 -0.0408713661
C  C193  1  0.92540000  0.78530000  0.49530000  1.0 -0.1585622784
C  C194  1  0.87150000  0.75380000  0.46370000  1.0 -0.3381352506
C  C195  1  0.40870000  0.67710000  0.61270000  1.0 -0.0026286763
C  C196  1  0.36460000  0.71980000  0.62470000  1.0 0.1473632783
C  C197  1  0.37260000  0.78160000  0.61530000  1.0 0.1591221926
C  C198  1  0.42650000  0.80120000  0.59360000  1.0 0.1703002133
C  C199  1  0.46890000  0.75990000  0.58030000  1.0 -0.0163716769
C  C200  1  0.46010000  0.69790000  0.59020000  1.0 -0.2094310516
C  C201  1  0.52380000  0.78120000  0.55420000  1.0 -0.0408713661
C  C202  1  0.58580000  0.74620000  0.56430000  1.0 -0.1585622784
C  C203  1  0.60860000  0.75830000  0.61560000  1.0 -0.3381352506
C  C204  1  0.49830000  0.78480000  0.50300000  1.0 -0.0098492821
C  C205  1  0.46820000  0.83770000  0.48550000  1.0 0.1801020968
C  C206  1  0.44190000  0.84130000  0.43980000  1.0 0.1396151732
C  C207  1  0.44830000  0.79040000  0.41150000  1.0 0.1801020968
C  C208  1  0.47880000  0.73880000  0.42690000  1.0 -0.0163716769
C  C209  1  0.50320000  0.73630000  0.47210000  1.0 -0.2094310516
C  C210  1  0.48050000  0.68230000  0.39530000  1.0 -0.031441594
C  C211  1  0.54240000  0.65150000  0.40380000  1.0 -0.1438721499
C  C212  1  0.53880000  0.59030000  0.38170000  1.0 -0.371896275
C  C213  1  0.41890000  0.64510000  0.39620000  1.0 0.0080350207
C  C214  1  0.36300000  0.66120000  0.36820000  1.0 0.1703002133
C  C215  1  0.30700000  0.63100000  0.37030000  1.0 0.1194980824
C  C216  1  0.30460000  0.58110000  0.40060000  1.0 0.197079168
C  C217  1  0.35880000  0.56250000  0.42950000  1.0 0.002079165
C  C218  1  0.41580000  0.59730000  0.42600000  1.0 -0.2094310516
C  C219  1  0.35310000  0.51160000  0.46540000  1.0 -0.0408713661
C  C220  1  0.41060000  0.47330000  0.48230000  1.0 -0.149764654
C  C221  1  0.43280000  0.43820000  0.44460000  1.0 -0.3800275854
C  C222  1  0.32940000  0.53680000  0.50760000  1.0 0.0080350207
C  C223  1  0.26400000  0.54630000  0.50820000  1.0 0.1591221926
C  C224  1  0.23830000  0.57450000  0.54610000  1.0 0.2326462746
C  C225  1  0.28390000  0.59160000  0.58460000  1.0 0.1703002133
C  C226  1  0.34860000  0.58500000  0.58380000  1.0 -0.0098492821
C  C227  1  0.37320000  0.55730000  0.54520000  1.0 -0.242793896
C  C228  1  0.39290000  0.60990000  0.62270000  1.0 -0.0408713661
C  C229  1  0.45190000  0.57170000  0.63520000  1.0 -0.1585622784
C  C230  1  0.48520000  0.59600000  0.68170000  1.0 -0.3498164794
C  C231  1  0.98130000  0.47820000  0.43000000  1.0 0.5716875859
C  C232  1  0.13600000  0.44410000  0.39650000  1.0 0.5116129585
C  C233  1  0.15940000  0.63920000  0.23710000  1.0 0.5827380635
C  C234  1  0.20330000  0.84000000  0.22550000  1.0 0.5901748457
C  C235  1  0.39490000  0.04020000  0.37140000  1.0 0.5532422581
C  C236  1  0.52920000  0.97760000  0.41690000  1.0 0.5827380635
C  C237  1  0.38110000  0.77680000  0.24510000  1.0 0.5016214766
C  C238  1  0.92280000  0.24300000  0.93300000  1.0 0.1703002133
C  C239  1  0.87340000  0.26690000  0.90410000  1.0 0.1194980824
C  C240  1  0.86330000  0.33030000  0.90230000  1.0 0.197079168
C  C241  1  0.90250000  0.36760000  0.93140000  1.0 -0.0098492821
C  C242  1  0.95290000  0.34020000  0.96090000  1.0 -0.2094310516
C  C243  1  0.96330000  0.27870000  0.96160000  1.0 0.002079165
C  C244  1  0.88960000  0.43650000  0.93150000  1.0 -0.0408713661
C  C245  1  0.95130000  0.47510000  0.94150000  1.0 -0.149764654
C  C246  1  0.93930000  0.54340000  0.93520000  1.0 -0.3800275854
C  C247  1  0.83980000  0.45010000  0.96610000  1.0 0.0080350207
C  C248  1  0.77500000  0.44620000  0.94990000  1.0 0.1801020968
C  C249  1  0.72760000  0.45520000  0.97950000  1.0 0.1396151732
C  C250  1  0.74630000  0.47020000  0.02550000  1.0 0.1703002133
C  C251  1  0.80990000  0.47670000  0.04210000  1.0 0.002079165
C  C252  1  0.85500000  0.46600000  0.01120000  1.0 -0.1999740533
C  C253  1  0.82700000  0.48990000  0.09300000  1.0 -0.0408713661
C  C254  1  0.88720000  0.52860000  0.10240000  1.0 -0.149764654
C  C255  1  0.87810000  0.59320000  0.08090000  1.0 -0.3599425635
C  C256  1  0.83070000  0.43120000  0.12010000  1.0 -0.031441594
C  C257  1  0.77530000  0.40650000  0.13400000  1.0 0.197079168
C  C258  1  0.77650000  0.34940000  0.15550000  1.0 0.0992155103
C  C259  1  0.83330000  0.31590000  0.16420000  1.0 0.1907012158
C  C260  1  0.89090000  0.34020000  0.15050000  1.0 -0.0098492821
C  C261  1  0.88800000  0.39680000  0.12830000  1.0 -0.2094310516
C  C262  1  0.95230000  0.30170000  0.15770000  1.0 -0.0408713661
C  C263  1  0.01310000  0.34210000  0.16710000  1.0 -0.149764654
C  C264  1  0.07270000  0.30130000  0.17860000  1.0 -0.3334084234
C  C265  1  0.95470000  0.25930000  0.11750000  1.0 0.0080350207
C  C266  1  0.92150000  0.20420000  0.11760000  1.0 0.1591221926
C  C267  1  0.91730000  0.16400000  0.08070000  1.0 0.1591221926
C  C268  1  0.95070000  0.17800000  0.04190000  1.0 0.197079168
C  C269  1  0.98450000  0.23370000  0.04080000  1.0 0.0080350207
C  C270  1  0.98440000  0.27220000  0.07890000  1.0 -0.2094310516
C  C271  1  0.01560000  0.24940000  0.99740000  1.0 -0.0408713661
C  C272  1  0.07460000  0.28530000  0.00470000  1.0 -0.1585622784
C  C273  1  0.12850000  0.25380000  0.03630000  1.0 -0.3381352506
C  C274  1  0.59130000  0.17710000  0.88730000  1.0 -0.0026286763
C  C275  1  0.63540000  0.21980000  0.87530000  1.0 0.1473632783
C  C276  1  0.62740000  0.28160000  0.88470000  1.0 0.1591221926
C  C277  1  0.57350000  0.30120000  0.90640000  1.0 0.1703002133
C  C278  1  0.53110000  0.25990000  0.91970000  1.0 -0.0163716769
C  C279  1  0.53990000  0.19790000  0.90980000  1.0 -0.2094310516
C  C280  1  0.47620000  0.28120000  0.94580000  1.0 -0.0408713661
C  C281  1  0.41420000  0.24620000  0.93570000  1.0 -0.1585622784
C  C282  1  0.39140000  0.25830000  0.88440000  1.0 -0.3381352506
C  C283  1  0.50170000  0.28480000  0.99700000  1.0 -0.0098492821
C  C284  1  0.53180000  0.33770000  0.01450000  1.0 0.1801020968
C  C285  1  0.55810000  0.34130000  0.06020000  1.0 0.1396151732
C  C286  1  0.55170000  0.29040000  0.08850000  1.0 0.1801020968
C  C287  1  0.52120000  0.23880000  0.07310000  1.0 -0.0163716769
C  C288  1  0.49680000  0.23630000  0.02790000  1.0 -0.2094310516
C  C289  1  0.51950000  0.18230000  0.10470000  1.0 -0.031441594
C  C290  1  0.45760000  0.15150000  0.09620000  1.0 -0.1438721499
C  C291  1  0.46120000  0.09030000  0.11830000  1.0 -0.371896275
C  C292  1  0.58110000  0.14510000  0.10380000  1.0 0.0080350207
C  C293  1  0.63700000  0.16120000  0.13180000  1.0 0.1703002133
C  C294  1  0.69300000  0.13100000  0.12970000  1.0 0.1194980824
C  C295  1  0.69540000  0.08110000  0.09940000  1.0 0.197079168
C  C296  1  0.64120000  0.06250000  0.07050000  1.0 0.002079165
C  C297  1  0.58420000  0.09730000  0.07400000  1.0 -0.2094310516
C  C298  1  0.64690000  0.01160000  0.03460000  1.0 -0.0408713661
C  C299  1  0.58940000  0.97330000  0.01770000  1.0 -0.149764654
C  C300  1  0.56720000  0.93820000  0.05540000  1.0 -0.3800275854
C  C301  1  0.67060000  0.03680000  0.99240000  1.0 0.0080350207
C  C302  1  0.73600000  0.04630000  0.99180000  1.0 0.1591221926
C  C303  1  0.76170000  0.07450000  0.95390000  1.0 0.2326462746
C  C304  1  0.71610000  0.09160000  0.91540000  1.0 0.1703002133
C  C305  1  0.65140000  0.08500000  0.91620000  1.0 -0.0098492821
C  C306  1  0.62680000  0.05730000  0.95480000  1.0 -0.242793896
C  C307  1  0.60710000  0.10990000  0.87730000  1.0 -0.0408713661
C  C308  1  0.54810000  0.07170000  0.86480000  1.0 -0.1585622784
C  C309  1  0.51480000  0.09600000  0.81830000  1.0 -0.3498164794
C  C310  1  0.01870000  0.97820000  0.07000000  1.0 0.5716875859
C  C311  1  0.86400000  0.94410000  0.10350000  1.0 0.5116129585
C  C312  1  0.84060000  0.13920000  0.26290000  1.0 0.5827380635
C  C313  1  0.79670000  0.34000000  0.27450000  1.0 0.5901748457
C  C314  1  0.60510000  0.54020000  0.12860000  1.0 0.5532422581
C  C315  1  0.47080000  0.47760000  0.08310000  1.0 0.5827380635
C  C316  1  0.61890000  0.27680000  0.25490000  1.0 0.5016214766
O  O1  1  0.92810000  0.32050000  0.43220000  1.0 -0.6880656115
O  O2  1  0.83310000  0.26960000  0.37570000  1.0 -0.7281916521
O  O3  1  0.81510000  0.14770000  0.37310000  1.0 -0.6185093007
O  O4  1  0.75410000  0.06760000  0.40530000  1.0 -0.5974007181
O  O5  1  0.66460000  0.05080000  0.46350000  1.0 -0.7191347263
O  O6  1  0.69680000  0.02200000  0.55240000  1.0 -0.6600437841
O  O7  1  0.71820000  0.06470000  0.62940000  1.0 -0.6147292933
O  O8  1  0.72100000  0.17460000  0.66860000  1.0 -0.763052412
O  O9  1  0.82970000  0.23810000  0.68610000  1.0 -0.6317789884
O  O10  1  0.88980000  0.31660000  0.65370000  1.0 -0.6317789884
O  O11  1  0.88260000  0.38780000  0.58040000  1.0 -0.7191347263
O  O12  1  0.94610000  0.36470000  0.50810000  1.0 -0.580208481
O  O13  1  0.68830000  0.29310000  0.35200000  1.0 -0.6769887489
O  O14  1  0.67190000  0.17630000  0.37480000  1.0 -0.6880656115
O  O15  1  0.57000000  0.13650000  0.41260000  1.0 -0.6397924728
O  O16  1  0.54050000  0.11120000  0.48850000  1.0 -0.6501444957
O  O17  1  0.59120000  0.10700000  0.57690000  1.0 -0.8000735722
O  O18  1  0.58010000  0.20160000  0.63370000  1.0 -0.6769887489
O  O19  1  0.63790000  0.29130000  0.66230000  1.0 -0.6185093007
O  O20  1  0.74820000  0.35150000  0.65580000  1.0 -0.7281916521
O  O21  1  0.75300000  0.44790000  0.59920000  1.0 -0.6397924728
O  O22  1  0.78180000  0.47300000  0.52580000  1.0 -0.6317789884
O  O23  1  0.82240000  0.41540000  0.45450000  1.0 -0.6880656115
O  O24  1  0.74620000  0.38220000  0.37990000  1.0 -0.6600437841
O  O25  1  0.70710000  0.10740000  0.31060000  1.0 -0.8374078355
O  O26  1  0.48210000  0.01230000  0.54180000  1.0 -0.6769887489
O  O27  1  0.43390000  0.99500000  0.60500000  1.0 -0.558459743
O  O28  1  0.59630000  0.95910000  0.58420000  1.0 -0.593818017
O  O29  1  0.60510000  0.00450000  0.65160000  1.0 -0.5296632133
O  O30  1  0.63190000  0.19520000  0.72390000  1.0 -0.4448763213
O  O31  1  0.66310000  0.27930000  0.76660000  1.0 -0.7356538258
O  O32  1  0.77170000  0.21150000  0.77480000  1.0 -0.6501444957
O  O33  1  0.81950000  0.12900000  0.80790000  1.0 -0.5691627941
O  O34  1  0.79750000  0.32080000  0.76610000  1.0 -0.6880656115
O  O35  1  0.85200000  0.38750000  0.72740000  1.0 -0.580208481
O  O36  1  0.87190000  0.50220000  0.59460000  1.0 -0.6397924728
O  O37  1  0.87920000  0.59890000  0.57830000  1.0 -0.4620249054
O  O38  1  0.99200000  0.47980000  0.54820000  1.0 -0.5544740043
O  O39  1  0.06600000  0.55070000  0.55960000  1.0 -0.6397924728
O  O40  1  0.07190000  0.82050000  0.06780000  1.0 -0.6880656115
O  O41  1  0.16690000  0.76960000  0.12430000  1.0 -0.7281916521
O  O42  1  0.18490000  0.64770000  0.12690000  1.0 -0.6185093007
O  O43  1  0.24590000  0.56760000  0.09470000  1.0 -0.5974007181
O  O44  1  0.33540000  0.55080000  0.03650000  1.0 -0.7191347263
O  O45  1  0.30320000  0.52200000  0.94760000  1.0 -0.6600437841
O  O46  1  0.28180000  0.56470000  0.87060000  1.0 -0.6185093007
O  O47  1  0.27900000  0.67460000  0.83140000  1.0 -0.763052412
O  O48  1  0.17030000  0.73810000  0.81390000  1.0 -0.6317789884
O  O49  1  0.11020000  0.81660000  0.84630000  1.0 -0.6317789884
O  O50  1  0.11740000  0.88780000  0.91960000  1.0 -0.7191347263
O  O51  1  0.05390000  0.86470000  0.99190000  1.0 -0.580208481
O  O52  1  0.31170000  0.79310000  0.14800000  1.0 -0.6769887489
O  O53  1  0.32810000  0.67630000  0.12520000  1.0 -0.6880656115
O  O54  1  0.43000000  0.63650000  0.08740000  1.0 -0.6397924728
O  O55  1  0.45950000  0.61120000  0.01150000  1.0 -0.6501444957
O  O56  1  0.40880000  0.60700000  0.92310000  1.0 -0.8000735722
O  O57  1  0.41990000  0.70160000  0.86630000  1.0 -0.6769887489
O  O58  1  0.36210000  0.79130000  0.83770000  1.0 -0.6185093007
O  O59  1  0.25180000  0.85150000  0.84420000  1.0 -0.7281916521
O  O60  1  0.24700000  0.94790000  0.90080000  1.0 -0.6397924728
O  O61  1  0.21820000  0.97300000  0.97420000  1.0 -0.6317789884
O  O62  1  0.17760000  0.91540000  0.04550000  1.0 -0.6880656115
O  O63  1  0.25380000  0.88220000  0.12010000  1.0 -0.6600437841
O  O64  1  0.29290000  0.60740000  0.18940000  1.0 -0.8374078355
O  O65  1  0.51790000  0.51230000  0.95820000  1.0 -0.6769887489
O  O66  1  0.56610000  0.49500000  0.89500000  1.0 -0.558459743
O  O67  1  0.40370000  0.45910000  0.91580000  1.0 -0.593818017
O  O68  1  0.39490000  0.50450000  0.84840000  1.0 -0.5296632133
O  O69  1  0.36810000  0.69520000  0.77610000  1.0 -0.4453837953
O  O70  1  0.33690000  0.77930000  0.73340000  1.0 -0.7356538258
O  O71  1  0.22830000  0.71150000  0.72520000  1.0 -0.6501444957
O  O72  1  0.18050000  0.62900000  0.69210000  1.0 -0.5691627941
O  O73  1  0.20250000  0.82080000  0.73390000  1.0 -0.6880656115
O  O74  1  0.14800000  0.88750000  0.77260000  1.0 -0.580208481
O  O75  1  0.12810000  0.00220000  0.90540000  1.0 -0.6397924728
O  O76  1  0.12080000  0.09890000  0.92170000  1.0 -0.4620249054
O  O77  1  0.00800000  0.97980000  0.95180000  1.0 -0.558459743
O  O78  1  0.93400000  0.05070000  0.94040000  1.0 -0.6397924728
O  O79  1  0.07190000  0.67950000  0.56780000  1.0 -0.6880656115
O  O80  1  0.16690000  0.73040000  0.62430000  1.0 -0.7281916521
O  O81  1  0.18490000  0.85230000  0.62690000  1.0 -0.6185093007
O  O82  1  0.24590000  0.93240000  0.59470000  1.0 -0.5974007181
O  O83  1  0.33540000  0.94920000  0.53650000  1.0 -0.7191347263
O  O84  1  0.30320000  0.97800000  0.44760000  1.0 -0.6600437841
O  O85  1  0.28180000  0.93530000  0.37060000  1.0 -0.6147292933
O  O86  1  0.27900000  0.82540000  0.33140000  1.0 -0.763052412
O  O87  1  0.17030000  0.76190000  0.31390000  1.0 -0.6317789884
O  O88  1  0.11020000  0.68340000  0.34630000  1.0 -0.6317789884
O  O89  1  0.11740000  0.61220000  0.41960000  1.0 -0.7191347263
O  O90  1  0.05390000  0.63530000  0.49190000  1.0 -0.580208481
O  O91  1  0.31170000  0.70690000  0.64800000  1.0 -0.6769887489
O  O92  1  0.32810000  0.82370000  0.62520000  1.0 -0.6880656115
O  O93  1  0.43000000  0.86350000  0.58740000  1.0 -0.6397924728
O  O94  1  0.45950000  0.88880000  0.51150000  1.0 -0.6501444957
O  O95  1  0.40880000  0.89300000  0.42310000  1.0 -0.8000735722
O  O96  1  0.41990000  0.79840000  0.36630000  1.0 -0.6769887489
O  O97  1  0.36210000  0.70870000  0.33770000  1.0 -0.6185093007
O  O98  1  0.25180000  0.64850000  0.34420000  1.0 -0.7281916521
O  O99  1  0.24700000  0.55210000  0.40080000  1.0 -0.6397924728
O  O100  1  0.21820000  0.52700000  0.47420000  1.0 -0.6317789884
O  O101  1  0.17760000  0.58460000  0.54550000  1.0 -0.6880656115
O  O102  1  0.25380000  0.61780000  0.62010000  1.0 -0.6600437841
O  O103  1  0.29290000  0.89260000  0.68940000  1.0 -0.8374078355
O  O104  1  0.51790000  0.98770000  0.45820000  1.0 -0.6769887489
O  O105  1  0.56610000  0.00500000  0.39500000  1.0 -0.558459743
O  O106  1  0.40370000  0.04090000  0.41580000  1.0 -0.593818017
O  O107  1  0.39490000  0.99550000  0.34840000  1.0 -0.5296632133
O  O108  1  0.36810000  0.80480000  0.27610000  1.0 -0.4448763213
O  O109  1  0.33690000  0.72070000  0.23340000  1.0 -0.7356538258
O  O110  1  0.22830000  0.78850000  0.22520000  1.0 -0.6501444957
O  O111  1  0.18050000  0.87100000  0.19210000  1.0 -0.5691627941
O  O112  1  0.20250000  0.67920000  0.23390000  1.0 -0.6880656115
O  O113  1  0.14800000  0.61250000  0.27260000  1.0 -0.580208481
O  O114  1  0.12810000  0.49780000  0.40540000  1.0 -0.6397924728
O  O115  1  0.12080000  0.40110000  0.42170000  1.0 -0.4620249054
O  O116  1  0.00800000  0.52020000  0.45180000  1.0 -0.5544740043
O  O117  1  0.93400000  0.44930000  0.44040000  1.0 -0.6397924728
O  O118  1  0.92810000  0.17950000  0.93220000  1.0 -0.6880656115
O  O119  1  0.83310000  0.23040000  0.87570000  1.0 -0.7281916521
O  O120  1  0.81510000  0.35230000  0.87310000  1.0 -0.6185093007
O  O121  1  0.75410000  0.43240000  0.90530000  1.0 -0.5974007181
O  O122  1  0.66460000  0.44920000  0.96350000  1.0 -0.7191347263
O  O123  1  0.69680000  0.47800000  0.05240000  1.0 -0.6600437841
O  O124  1  0.71820000  0.43530000  0.12940000  1.0 -0.6147292933
O  O125  1  0.72100000  0.32540000  0.16860000  1.0 -0.763052412
O  O126  1  0.82970000  0.26190000  0.18610000  1.0 -0.6317789884
O  O127  1  0.88980000  0.18340000  0.15370000  1.0 -0.6317789884
O  O128  1  0.88260000  0.11220000  0.08040000  1.0 -0.7191347263
O  O129  1  0.94610000  0.13530000  0.00810000  1.0 -0.580208481
O  O130  1  0.68830000  0.20690000  0.85200000  1.0 -0.6769887489
O  O131  1  0.67190000  0.32370000  0.87480000  1.0 -0.6880656115
O  O132  1  0.57000000  0.36350000  0.91260000  1.0 -0.6397924728
O  O133  1  0.54050000  0.38880000  0.98850000  1.0 -0.6501444957
O  O134  1  0.59120000  0.39300000  0.07690000  1.0 -0.8000735722
O  O135  1  0.58010000  0.29840000  0.13370000  1.0 -0.6769887489
O  O136  1  0.63790000  0.20870000  0.16230000  1.0 -0.6185093007
O  O137  1  0.74820000  0.14850000  0.15580000  1.0 -0.7281916521
O  O138  1  0.75300000  0.05210000  0.09920000  1.0 -0.6397924728
O  O139  1  0.78180000  0.02700000  0.02580000  1.0 -0.6317789884
O  O140  1  0.82240000  0.08460000  0.95450000  1.0 -0.6880656115
O  O141  1  0.74620000  0.11780000  0.87990000  1.0 -0.6600437841
O  O142  1  0.70710000  0.39260000  0.81060000  1.0 -0.8374078355
O  O143  1  0.48210000  0.48770000  0.04180000  1.0 -0.6769887489
O  O144  1  0.43390000  0.50500000  0.10500000  1.0 -0.558459743
O  O145  1  0.59630000  0.54090000  0.08420000  1.0 -0.593818017
O  O146  1  0.60510000  0.49550000  0.15160000  1.0 -0.5296632133
O  O147  1  0.63190000  0.30480000  0.22390000  1.0 -0.4448763213
O  O148  1  0.66310000  0.22070000  0.26660000  1.0 -0.7356538258
O  O149  1  0.77170000  0.28850000  0.27480000  1.0 -0.6501444957
O  O150  1  0.81950000  0.37100000  0.30790000  1.0 -0.5691627941
O  O151  1  0.79750000  0.17920000  0.26610000  1.0 -0.6880656115
O  O152  1  0.85200000  0.11250000  0.22740000  1.0 -0.580208481
O  O153  1  0.87190000  0.99780000  0.09460000  1.0 -0.6397924728
O  O154  1  0.87920000  0.90110000  0.07830000  1.0 -0.4620249054
O  O155  1  0.99200000  0.02020000  0.04820000  1.0 -0.5544740043
O  O156  1  0.06600000  0.94930000  0.05960000  1.0 -0.6397924728
