# DDEC6 charges by PACMAN v1.1 (https://github.com/mtap-research/PACMAN-charge/)
data_JIJTOO_ASR_pacman
_symmetry_space_group_name_H-M   'P 1'
_cell_length_a   10.30560000
_cell_length_b   16.77980000
_cell_length_c   35.27100000
_cell_angle_alpha   90.00000000
_cell_angle_beta   90.00000000
_cell_angle_gamma   90.00000000
_symmetry_Int_Tables_number   1
_chemical_formula_structural   CdH8C15BrO5
_chemical_formula_sum   'Cd8 H64 C120 Br8 O40'
_cell_volume   6099.26966156
_cell_formula_units_Z   8
loop_
 _symmetry_equiv_pos_site_id
 _symmetry_equiv_pos_as_xyz
  1  'x, y, z'
loop_
 _atom_site_type_symbol
 _atom_site_label
 _atom_site_symmetry_multiplicity
 _atom_site_fract_x
 _atom_site_fract_y
 _atom_site_fract_z
 _atom_site_occupancy
 _atom_site_charge
Cd  Cd1  1  0.54829000  0.60768000  0.66839000  1.0 1.0220327539
Cd  Cd2  1  0.77934000  0.65649000  0.74169000  1.0 1.1371524197
Cd  Cd3  1  0.95171000  0.39232000  0.16839000  1.0 1.0220327539
Cd  Cd4  1  0.72066000  0.34351000  0.24169000  1.0 1.1371524197
Cd  Cd5  1  0.45171000  0.10768000  0.83161000  1.0 1.0220327539
Cd  Cd6  1  0.22066000  0.15649000  0.75831000  1.0 1.1371524197
Cd  Cd7  1  0.04829000  0.89232000  0.33161000  1.0 1.0220327539
Cd  Cd8  1  0.27934000  0.84351000  0.25831000  1.0 1.1371524197
H  H1  1  0.05960000  0.61320000  0.24770000  1.0 0.1292256915
H  H2  1  0.87720000  0.43810000  0.30420000  1.0 0.1090761138
H  H3  1  0.01450000  0.62840000  0.36060000  1.0 0.1292256915
H  H4  1  0.24700000  0.52170000  0.57530000  1.0 0.1292256915
H  H5  1  0.85800000  0.53040000  0.58220000  1.0 0.1292256915
H  H6  1  0.07620000  0.62170000  0.66600000  1.0 0.1292256915
H  H7  1  0.12570000  0.37680000  0.56260000  1.0 0.1292256915
H  H8  1  0.11910000  0.53840000  0.42100000  1.0 0.1292256915
H  H9  1  0.13190000  0.48750000  0.38390000  1.0 0.1292256915
H  H10  1  0.13090000  0.44540000  0.42350000  1.0 0.1292256915
H  H11  1  0.69970000  0.49920000  0.35150000  1.0 0.1199877126
H  H12  1  0.60510000  0.45070000  0.46790000  1.0 0.3133648498
H  H13  1  0.00280000  0.26400000  0.45340000  1.0 0.3261763019
H  H14  1  0.94310000  0.60010000  0.47750000  1.0 0.1292256915
H  H15  1  0.95880000  0.61000000  0.52140000  1.0 0.1292256915
H  H16  1  0.82930000  0.57590000  0.50460000  1.0 0.1352701647
H  H17  1  0.44040000  0.38680000  0.74770000  1.0 0.1292256915
H  H18  1  0.62280000  0.56190000  0.80420000  1.0 0.1090761138
H  H19  1  0.48550000  0.37160000  0.86060000  1.0 0.1292256915
H  H20  1  0.25300000  0.47830000  0.07530000  1.0 0.1292256915
H  H21  1  0.64200000  0.46960000  0.08220000  1.0 0.1292256915
H  H22  1  0.42380000  0.37830000  0.16600000  1.0 0.1292256915
H  H23  1  0.37430000  0.62320000  0.06260000  1.0 0.1292256915
H  H24  1  0.38090000  0.46160000  0.92100000  1.0 0.1292256915
H  H25  1  0.36810000  0.51250000  0.88390000  1.0 0.1292256915
H  H26  1  0.36910000  0.55460000  0.92350000  1.0 0.1292256915
H  H27  1  0.80030000  0.50080000  0.85150000  1.0 0.1199877126
H  H28  1  0.89490000  0.54930000  0.96790000  1.0 0.3133648498
H  H29  1  0.49720000  0.73600000  0.95340000  1.0 0.3261763019
H  H30  1  0.55690000  0.39990000  0.97750000  1.0 0.1292256915
H  H31  1  0.54120000  0.39000000  0.02140000  1.0 0.1292256915
H  H32  1  0.67070000  0.42410000  0.00460000  1.0 0.1352701647
H  H33  1  0.94040000  0.11320000  0.25230000  1.0 0.1292256915
H  H34  1  0.12280000  0.93810000  0.19580000  1.0 0.1090761138
H  H35  1  0.98550000  0.12840000  0.13940000  1.0 0.1292256915
H  H36  1  0.75300000  0.02170000  0.92470000  1.0 0.1292256915
H  H37  1  0.14200000  0.03040000  0.91780000  1.0 0.1292256915
H  H38  1  0.92380000  0.12170000  0.83400000  1.0 0.1292256915
H  H39  1  0.87430000  0.87680000  0.93740000  1.0 0.1292256915
H  H40  1  0.88090000  0.03840000  0.07900000  1.0 0.1292256915
H  H41  1  0.86810000  0.98750000  0.11610000  1.0 0.1292256915
H  H42  1  0.86910000  0.94540000  0.07650000  1.0 0.1292256915
H  H43  1  0.30030000  0.99920000  0.14850000  1.0 0.1199877126
H  H44  1  0.39490000  0.95070000  0.03210000  1.0 0.3133648498
H  H45  1  0.99720000  0.76400000  0.04660000  1.0 0.3261763019
H  H46  1  0.05690000  0.10010000  0.02250000  1.0 0.1292256915
H  H47  1  0.04120000  0.11000000  0.97860000  1.0 0.1292256915
H  H48  1  0.17070000  0.07590000  0.99540000  1.0 0.1352701647
H  H49  1  0.55960000  0.88680000  0.75230000  1.0 0.1292256915
H  H50  1  0.37720000  0.06190000  0.69580000  1.0 0.1090761138
H  H51  1  0.51450000  0.87160000  0.63940000  1.0 0.1292256915
H  H52  1  0.74700000  0.97830000  0.42470000  1.0 0.1292256915
H  H53  1  0.35800000  0.96960000  0.41780000  1.0 0.1292256915
H  H54  1  0.57620000  0.87830000  0.33400000  1.0 0.1292256915
H  H55  1  0.62570000  0.12320000  0.43740000  1.0 0.1292256915
H  H56  1  0.61910000  0.96160000  0.57900000  1.0 0.1292256915
H  H57  1  0.63190000  0.01250000  0.61610000  1.0 0.1292256915
H  H58  1  0.63090000  0.05460000  0.57650000  1.0 0.1292256915
H  H59  1  0.19970000  0.00080000  0.64850000  1.0 0.1199877126
H  H60  1  0.10510000  0.04930000  0.53210000  1.0 0.3133648498
H  H61  1  0.50280000  0.23600000  0.54660000  1.0 0.3261763019
H  H62  1  0.44310000  0.89990000  0.52250000  1.0 0.1292256915
H  H63  1  0.45880000  0.89000000  0.47860000  1.0 0.1292256915
H  H64  1  0.32930000  0.92410000  0.49540000  1.0 0.1352701647
C  C1  1  0.04760000  0.63290000  0.30410000  1.0 -0.0405511489
C  C2  1  0.02920000  0.59190000  0.27030000  1.0 -0.0750084805
C  C3  1  0.96540000  0.51890000  0.27040000  1.0 -0.0405511489
C  C4  1  0.91990000  0.48690000  0.30420000  1.0 -0.1474054443
C  C5  1  0.93830000  0.52800000  0.33800000  1.0 0.080715177
C  C6  1  0.00220000  0.60090000  0.33800000  1.0 -0.1205032008
C  C7  1  0.82600000  0.59320000  0.65060000  1.0 0.6015492541
C  C8  1  0.10300000  0.71400000  0.30160000  1.0 0.6015492541
C  C9  1  0.30700000  0.59420000  0.64020000  1.0 0.5343672199
C  C10  1  0.95000000  0.47300000  0.23530000  1.0 0.575554834
C  C11  1  0.17220000  0.53620000  0.58840000  1.0 -0.1342334586
C  C12  1  0.05090000  0.51970000  0.57300000  1.0 0.080715177
C  C13  1  0.93910000  0.54140000  0.59250000  1.0 -0.1378389286
C  C14  1  0.94860000  0.57960000  0.62730000  1.0 -0.0176204738
C  C15  1  0.06980000  0.59610000  0.64270000  1.0 -0.0884507174
C  C16  1  0.18160000  0.57440000  0.62320000  1.0 -0.0278913413
C  C17  1  0.99820000  0.36260000  0.47870000  1.0 0.1535636869
C  C18  1  0.06210000  0.33860000  0.51150000  1.0 -0.0278913413
C  C19  1  0.08300000  0.39280000  0.54060000  1.0 -0.1898537861
C  C20  1  0.03980000  0.47090000  0.53710000  1.0 0.0195595262
C  C21  1  0.97580000  0.49490000  0.50430000  1.0 0.080715177
C  C22  1  0.95500000  0.44070000  0.47510000  1.0 -0.0405511489
C  C23  1  0.09600000  0.48900000  0.40900000  1.0 -0.4210878524
C  C24  1  0.68050000  0.46960000  0.40680000  1.0 -0.0405511489
C  C25  1  0.74590000  0.48970000  0.37370000  1.0 -0.1898537861
C  C26  1  0.88040000  0.49570000  0.37380000  1.0 0.012156674
C  C27  1  0.94950000  0.48160000  0.40690000  1.0 0.090563427
C  C28  1  0.88410000  0.46150000  0.44010000  1.0 -0.0527886773
C  C29  1  0.74950000  0.45550000  0.44000000  1.0 0.196102233
C  C30  1  0.92200000  0.57760000  0.50170000  1.0 -0.4210878524
C  C31  1  0.45240000  0.36710000  0.80410000  1.0 -0.0405511489
C  C32  1  0.47080000  0.40810000  0.77030000  1.0 -0.0750084805
C  C33  1  0.53460000  0.48110000  0.77040000  1.0 -0.0405511489
C  C34  1  0.58010000  0.51310000  0.80420000  1.0 -0.1474054443
C  C35  1  0.56170000  0.47200000  0.83800000  1.0 0.080715177
C  C36  1  0.49780000  0.39910000  0.83800000  1.0 -0.1205032008
C  C37  1  0.67400000  0.40680000  0.15060000  1.0 0.6015492541
C  C38  1  0.39700000  0.28600000  0.80160000  1.0 0.6015492541
C  C39  1  0.19300000  0.40580000  0.14020000  1.0 0.5343672199
C  C40  1  0.55000000  0.52700000  0.73530000  1.0 0.575554834
C  C41  1  0.32780000  0.46380000  0.08840000  1.0 -0.1342334586
C  C42  1  0.44910000  0.48030000  0.07300000  1.0 0.080715177
C  C43  1  0.56090000  0.45860000  0.09250000  1.0 -0.1378389286
C  C44  1  0.55140000  0.42040000  0.12730000  1.0 -0.0176204738
C  C45  1  0.43020000  0.40390000  0.14270000  1.0 -0.0884507174
C  C46  1  0.31840000  0.42560000  0.12320000  1.0 -0.0278913413
C  C47  1  0.50180000  0.63740000  0.97870000  1.0 0.1535636869
C  C48  1  0.43790000  0.66140000  0.01150000  1.0 -0.0278913413
C  C49  1  0.41700000  0.60720000  0.04060000  1.0 -0.1898537861
C  C50  1  0.46020000  0.52910000  0.03710000  1.0 0.0195595262
C  C51  1  0.52420000  0.50510000  0.00430000  1.0 0.080715177
C  C52  1  0.54500000  0.55930000  0.97510000  1.0 -0.0405511489
C  C53  1  0.40400000  0.51100000  0.90900000  1.0 -0.4210878524
C  C54  1  0.81950000  0.53040000  0.90680000  1.0 -0.0405511489
C  C55  1  0.75410000  0.51030000  0.87370000  1.0 -0.1898537861
C  C56  1  0.61960000  0.50430000  0.87380000  1.0 0.012156674
C  C57  1  0.55050000  0.51840000  0.90690000  1.0 0.090563427
C  C58  1  0.61590000  0.53850000  0.94010000  1.0 -0.0527886773
C  C59  1  0.75050000  0.54450000  0.94000000  1.0 0.196102233
C  C60  1  0.57800000  0.42240000  0.00170000  1.0 -0.4210878524
C  C61  1  0.95240000  0.13290000  0.19590000  1.0 -0.0405511489
C  C62  1  0.97080000  0.09190000  0.22970000  1.0 -0.0750084805
C  C63  1  0.03460000  0.01890000  0.22960000  1.0 -0.0405511489
C  C64  1  0.08010000  0.98690000  0.19580000  1.0 -0.1474054443
C  C65  1  0.06170000  0.02800000  0.16200000  1.0 0.080715177
C  C66  1  0.99780000  0.10090000  0.16200000  1.0 -0.1205032008
C  C67  1  0.17400000  0.09320000  0.84940000  1.0 0.6015492541
C  C68  1  0.89700000  0.21400000  0.19840000  1.0 0.6015492541
C  C69  1  0.69300000  0.09420000  0.85980000  1.0 0.5343672199
C  C70  1  0.05000000  0.97300000  0.26470000  1.0 0.575554834
C  C71  1  0.82780000  0.03620000  0.91160000  1.0 -0.1342334586
C  C72  1  0.94910000  0.01970000  0.92700000  1.0 0.080715177
C  C73  1  0.06090000  0.04140000  0.90750000  1.0 -0.1378389286
C  C74  1  0.05140000  0.07960000  0.87270000  1.0 -0.0176204738
C  C75  1  0.93020000  0.09610000  0.85730000  1.0 -0.0884507174
C  C76  1  0.81840000  0.07440000  0.87680000  1.0 -0.0278913413
C  C77  1  0.00180000  0.86260000  0.02130000  1.0 0.1535636869
C  C78  1  0.93790000  0.83860000  0.98850000  1.0 -0.0278913413
C  C79  1  0.91700000  0.89280000  0.95940000  1.0 -0.1898537861
C  C80  1  0.96020000  0.97090000  0.96290000  1.0 0.0195595262
C  C81  1  0.02420000  0.99490000  0.99570000  1.0 0.080715177
C  C82  1  0.04500000  0.94070000  0.02490000  1.0 -0.0405511489
C  C83  1  0.90400000  0.98900000  0.09100000  1.0 -0.4210878524
C  C84  1  0.31950000  0.96960000  0.09320000  1.0 -0.0405511489
C  C85  1  0.25410000  0.98970000  0.12630000  1.0 -0.1898537861
C  C86  1  0.11960000  0.99570000  0.12620000  1.0 0.012156674
C  C87  1  0.05050000  0.98160000  0.09310000  1.0 0.090563427
C  C88  1  0.11590000  0.96150000  0.05990000  1.0 -0.0527886773
C  C89  1  0.25050000  0.95550000  0.06000000  1.0 0.196102233
C  C90  1  0.07800000  0.07760000  0.99830000  1.0 -0.4210878524
C  C91  1  0.54760000  0.86710000  0.69590000  1.0 -0.0405511489
C  C92  1  0.52920000  0.90810000  0.72970000  1.0 -0.0750084805
C  C93  1  0.46540000  0.98110000  0.72960000  1.0 -0.0405511489
C  C94  1  0.41990000  0.01310000  0.69580000  1.0 -0.1474054443
C  C95  1  0.43830000  0.97200000  0.66200000  1.0 0.080715177
C  C96  1  0.50220000  0.89910000  0.66200000  1.0 -0.1205032008
C  C97  1  0.32600000  0.90680000  0.34940000  1.0 0.6015492541
C  C98  1  0.60300000  0.78600000  0.69840000  1.0 0.6015492541
C  C99  1  0.80700000  0.90580000  0.35980000  1.0 0.5343672199
C  C100  1  0.45000000  0.02700000  0.76470000  1.0 0.575554834
C  C101  1  0.67220000  0.96380000  0.41160000  1.0 -0.1342334586
C  C102  1  0.55090000  0.98030000  0.42700000  1.0 0.080715177
C  C103  1  0.43910000  0.95860000  0.40750000  1.0 -0.1378389286
C  C104  1  0.44860000  0.92040000  0.37270000  1.0 -0.0176204738
C  C105  1  0.56980000  0.90390000  0.35730000  1.0 -0.0884507174
C  C106  1  0.68160000  0.92560000  0.37680000  1.0 -0.0278913413
C  C107  1  0.49820000  0.13740000  0.52130000  1.0 0.1535636869
C  C108  1  0.56210000  0.16140000  0.48850000  1.0 -0.0278913413
C  C109  1  0.58300000  0.10720000  0.45940000  1.0 -0.1898537861
C  C110  1  0.53980000  0.02910000  0.46290000  1.0 0.0195595262
C  C111  1  0.47580000  0.00510000  0.49570000  1.0 0.080715177
C  C112  1  0.45500000  0.05930000  0.52490000  1.0 -0.0405511489
C  C113  1  0.59600000  0.01100000  0.59100000  1.0 -0.4210878524
C  C114  1  0.18050000  0.03040000  0.59320000  1.0 -0.0405511489
C  C115  1  0.24590000  0.01030000  0.62630000  1.0 -0.1898537861
C  C116  1  0.38040000  0.00430000  0.62620000  1.0 0.012156674
C  C117  1  0.44950000  0.01840000  0.59310000  1.0 0.090563427
C  C118  1  0.38410000  0.03850000  0.55990000  1.0 -0.0527886773
C  C119  1  0.24950000  0.04450000  0.56000000  1.0 0.196102233
C  C120  1  0.42200000  0.92240000  0.49830000  1.0 -0.4210878524
Br  Br1  1  0.49790000  0.45860000  0.40529000  1.0 -0.0884507174
Br  Br2  1  0.11760000  0.23220000  0.51844000  1.0 -0.0733343574
Br  Br3  1  0.00210000  0.54140000  0.90529000  1.0 -0.0884507174
Br  Br4  1  0.38240000  0.76780000  0.01844000  1.0 -0.0733343574
Br  Br5  1  0.50210000  0.95860000  0.09471000  1.0 -0.0884507174
Br  Br6  1  0.88240000  0.73220000  0.98156000  1.0 -0.0733343574
Br  Br7  1  0.99790000  0.04140000  0.59471000  1.0 -0.0884507174
Br  Br8  1  0.61760000  0.26780000  0.48156000  1.0 -0.0733343574
O  O1  1  0.31740000  0.62240000  0.67130000  1.0 -0.4826408165
O  O2  1  0.98410000  0.51140000  0.20410000  1.0 -0.5391875344
O  O3  1  0.18070000  0.73340000  0.27400000  1.0 -0.603554173
O  O4  1  0.40860000  0.57420000  0.62120000  1.0 -0.5179528432
O  O5  1  0.91740000  0.40340000  0.23440000  1.0 -0.5626224118
O  O6  1  0.08260000  0.76080000  0.33150000  1.0 -0.5768618422
O  O7  1  0.83650000  0.61650000  0.68230000  1.0 -0.5507014829
O  O8  1  0.71500000  0.57940000  0.63390000  1.0 -0.5391875344
O  O9  1  0.68200000  0.43960000  0.47140000  1.0 -0.40334688
O  O10  1  0.97400000  0.30820000  0.44790000  1.0 -0.4632840293
O  O11  1  0.18260000  0.37760000  0.17130000  1.0 -0.4826408165
O  O12  1  0.51590000  0.48860000  0.70410000  1.0 -0.5349342065
O  O13  1  0.31930000  0.26660000  0.77400000  1.0 -0.603554173
O  O14  1  0.09140000  0.42580000  0.12120000  1.0 -0.5179528432
O  O15  1  0.58260000  0.59660000  0.73440000  1.0 -0.5626224118
O  O16  1  0.41740000  0.23920000  0.83150000  1.0 -0.5768618422
O  O17  1  0.66350000  0.38350000  0.18230000  1.0 -0.5507014829
O  O18  1  0.78500000  0.42060000  0.13390000  1.0 -0.5391875344
O  O19  1  0.81800000  0.56040000  0.97140000  1.0 -0.40334688
O  O20  1  0.52600000  0.69180000  0.94790000  1.0 -0.4632840293
O  O21  1  0.68260000  0.12240000  0.82870000  1.0 -0.4826408165
O  O22  1  0.01590000  0.01140000  0.29590000  1.0 -0.5349342065
O  O23  1  0.81930000  0.23340000  0.22600000  1.0 -0.603554173
O  O24  1  0.59140000  0.07420000  0.87880000  1.0 -0.5179528432
O  O25  1  0.08260000  0.90340000  0.26560000  1.0 -0.5626224118
O  O26  1  0.91740000  0.26080000  0.16850000  1.0 -0.5768618422
O  O27  1  0.16350000  0.11650000  0.81770000  1.0 -0.5507014829
O  O28  1  0.28500000  0.07940000  0.86610000  1.0 -0.5391875344
O  O29  1  0.31800000  0.93960000  0.02860000  1.0 -0.40334688
O  O30  1  0.02600000  0.80820000  0.05210000  1.0 -0.4632840293
O  O31  1  0.81740000  0.87760000  0.32870000  1.0 -0.4826408165
O  O32  1  0.48410000  0.98860000  0.79590000  1.0 -0.5349342065
O  O33  1  0.68070000  0.76660000  0.72600000  1.0 -0.603554173
O  O34  1  0.90860000  0.92580000  0.37880000  1.0 -0.5179528432
O  O35  1  0.41740000  0.09660000  0.76560000  1.0 -0.5626224118
O  O36  1  0.58260000  0.73920000  0.66850000  1.0 -0.5768618422
O  O37  1  0.33650000  0.88350000  0.31770000  1.0 -0.5507014829
O  O38  1  0.21500000  0.92060000  0.36610000  1.0 -0.5391875344
O  O39  1  0.18200000  0.06040000  0.52860000  1.0 -0.40334688
O  O40  1  0.47400000  0.19180000  0.55210000  1.0 -0.4632840293
