# DDEC6 charges by PACMAN v1.1 (https://github.com/mtap-research/PACMAN-charge/)
data_JILWIL_ASR_pacman
_symmetry_space_group_name_H-M   'P 1'
_cell_length_a   18.65600000
_cell_length_b   18.65600000
_cell_length_c   9.37800000
_cell_angle_alpha   90.00000000
_cell_angle_beta   90.00000000
_cell_angle_gamma   90.00000000
_symmetry_Int_Tables_number   1
_chemical_formula_structural   AlPO4
_chemical_formula_sum   'Al24 P24 O96'
_cell_volume   3263.97853901
_cell_formula_units_Z   24
loop_
 _symmetry_equiv_pos_site_id
 _symmetry_equiv_pos_as_xyz
  1  'x, y, z'
loop_
 _atom_site_type_symbol
 _atom_site_label
 _atom_site_symmetry_multiplicity
 _atom_site_fract_x
 _atom_site_fract_y
 _atom_site_fract_z
 _atom_site_occupancy
 _atom_site_charge
Al  Al1  1  0.58422000  0.20449000  0.84140000  1.0 1.7217679433
Al  Al2  1  0.70449000  0.91578000  0.84140000  1.0 1.7217679433
Al  Al3  1  0.29551000  0.08422000  0.84140000  1.0 1.7217679433
Al  Al4  1  0.41578000  0.79551000  0.84140000  1.0 1.7217679433
Al  Al5  1  0.91578000  0.29551000  0.15860000  1.0 1.7217679433
Al  Al6  1  0.79551000  0.58422000  0.15860000  1.0 1.7217679433
Al  Al7  1  0.20449000  0.41578000  0.15860000  1.0 1.7217679433
Al  Al8  1  0.08422000  0.70449000  0.15860000  1.0 1.7217679433
Al  Al9  1  0.68612000  0.41654000  0.91440000  1.0 1.7040343545
Al  Al10  1  0.91654000  0.81388000  0.91440000  1.0 1.7040343545
Al  Al11  1  0.08346000  0.18612000  0.91440000  1.0 1.7081823709
Al  Al12  1  0.31388000  0.58346000  0.91440000  1.0 1.7081823709
Al  Al13  1  0.81388000  0.08346000  0.08560000  1.0 1.7040343545
Al  Al14  1  0.58346000  0.68612000  0.08560000  1.0 1.7040343545
Al  Al15  1  0.41654000  0.31388000  0.08560000  1.0 1.7081823709
Al  Al16  1  0.18612000  0.91654000  0.08560000  1.0 1.7081823709
Al  Al17  1  0.69801000  0.31386000  0.33450000  1.0 1.7081823709
Al  Al18  1  0.81386000  0.80199000  0.33450000  1.0 1.7081823709
Al  Al19  1  0.18614000  0.19801000  0.33450000  1.0 1.7081823709
Al  Al20  1  0.30199000  0.68614000  0.33450000  1.0 1.7081823709
Al  Al21  1  0.80199000  0.18614000  0.66550000  1.0 1.7081823709
Al  Al22  1  0.68614000  0.69801000  0.66550000  1.0 1.7081823709
Al  Al23  1  0.31386000  0.30199000  0.66550000  1.0 1.7081823709
Al  Al24  1  0.19801000  0.81386000  0.66550000  1.0 1.7081823709
P  P1  1  0.58381000  0.31709000  0.09038000  1.0 1.4702255242
P  P2  1  0.81709000  0.91619000  0.09038000  1.0 1.4702255242
P  P3  1  0.18291000  0.08381000  0.09038000  1.0 1.4702255242
P  P4  1  0.41619000  0.68291000  0.09038000  1.0 1.4702255242
P  P5  1  0.91619000  0.18291000  0.90962000  1.0 1.4702255242
P  P6  1  0.68291000  0.58381000  0.90962000  1.0 1.4702255242
P  P7  1  0.31709000  0.41619000  0.90962000  1.0 1.4702255242
P  P8  1  0.08381000  0.81709000  0.90962000  1.0 1.4702255242
P  P9  1  0.70085000  0.08429000  0.83970000  1.0 1.4876892359
P  P10  1  0.58429000  0.79915000  0.83970000  1.0 1.4876892359
P  P11  1  0.41571000  0.20085000  0.83970000  1.0 1.4876892359
P  P12  1  0.29915000  0.91571000  0.83970000  1.0 1.4876892359
P  P13  1  0.79915000  0.41571000  0.16030000  1.0 1.4876892359
P  P14  1  0.91571000  0.70085000  0.16030000  1.0 1.4842103682
P  P15  1  0.08429000  0.29915000  0.16030000  1.0 1.4876892359
P  P16  1  0.20085000  0.58429000  0.16030000  1.0 1.4876892359
P  P17  1  0.68438000  0.30613000  0.66366000  1.0 1.4702255242
P  P18  1  0.80613000  0.81562000  0.66366000  1.0 1.4702255242
P  P19  1  0.19387000  0.18438000  0.66366000  1.0 1.4702255242
P  P20  1  0.31562000  0.69387000  0.66366000  1.0 1.4702255242
P  P21  1  0.81562000  0.19387000  0.33634000  1.0 1.4702255242
P  P22  1  0.69387000  0.68438000  0.33634000  1.0 1.4702255242
P  P23  1  0.30613000  0.31562000  0.33634000  1.0 1.4702255242
P  P24  1  0.18438000  0.80613000  0.33634000  1.0 1.4702255242
O  O1  1  0.59250000  0.24760000  0.00380000  1.0 -0.8317487724
O  O2  1  0.74760000  0.90750000  0.00380000  1.0 -0.8317487724
O  O3  1  0.25240000  0.09250000  0.00380000  1.0 -0.8317487724
O  O4  1  0.40750000  0.75240000  0.00380000  1.0 -0.8317487724
O  O5  1  0.90750000  0.25240000  0.99620000  1.0 -0.8317487724
O  O6  1  0.75240000  0.59250000  0.99620000  1.0 -0.8317487724
O  O7  1  0.24760000  0.40750000  0.99620000  1.0 -0.8317487724
O  O8  1  0.09250000  0.74760000  0.99620000  1.0 -0.8317487724
O  O9  1  0.62060000  0.30700000  0.23440000  1.0 -0.770075649
O  O10  1  0.80700000  0.87940000  0.23440000  1.0 -0.770075649
O  O11  1  0.19300000  0.12060000  0.23440000  1.0 -0.770075649
O  O12  1  0.37940000  0.69300000  0.23440000  1.0 -0.770075649
O  O13  1  0.87940000  0.19300000  0.76560000  1.0 -0.770075649
O  O14  1  0.69300000  0.62060000  0.76560000  1.0 -0.770075649
O  O15  1  0.30700000  0.37940000  0.76560000  1.0 -0.770075649
O  O16  1  0.12060000  0.80700000  0.76560000  1.0 -0.770075649
O  O17  1  0.61620000  0.38070000  0.01000000  1.0 -0.8077889793
O  O18  1  0.88070000  0.88380000  0.01000000  1.0 -0.8077889793
O  O19  1  0.11930000  0.11620000  0.01000000  1.0 -0.8077889793
O  O20  1  0.38380000  0.61930000  0.01000000  1.0 -0.8077889793
O  O21  1  0.88380000  0.11930000  0.99000000  1.0 -0.8077889793
O  O22  1  0.61930000  0.61620000  0.99000000  1.0 -0.8077889793
O  O23  1  0.38070000  0.38380000  0.99000000  1.0 -0.8077889793
O  O24  1  0.11620000  0.88070000  0.99000000  1.0 -0.8077889793
O  O25  1  0.50540000  0.33280000  0.11860000  1.0 -0.7847199328
O  O26  1  0.83280000  0.99460000  0.11860000  1.0 -0.7847199328
O  O27  1  0.16720000  0.00540000  0.11860000  1.0 -0.7847199328
O  O28  1  0.49460000  0.66720000  0.11860000  1.0 -0.7847199328
O  O29  1  0.99460000  0.16720000  0.88140000  1.0 -0.7847199328
O  O30  1  0.66720000  0.50540000  0.88140000  1.0 -0.7847199328
O  O31  1  0.33280000  0.49460000  0.88140000  1.0 -0.7847199328
O  O32  1  0.00540000  0.83280000  0.88140000  1.0 -0.7847199328
O  O33  1  0.62710000  0.12250000  0.84380000  1.0 -0.7618467969
O  O34  1  0.62250000  0.87290000  0.84380000  1.0 -0.7618467969
O  O35  1  0.37750000  0.12710000  0.84380000  1.0 -0.7618467969
O  O36  1  0.37290000  0.87750000  0.84380000  1.0 -0.7618467969
O  O37  1  0.87290000  0.37750000  0.15620000  1.0 -0.7618467969
O  O38  1  0.87750000  0.62710000  0.15620000  1.0 -0.7618467969
O  O39  1  0.12250000  0.37290000  0.15620000  1.0 -0.7618467969
O  O40  1  0.12710000  0.62250000  0.15620000  1.0 -0.7618467969
O  O41  1  0.73570000  0.09220000  0.98850000  1.0 -0.8317487724
O  O42  1  0.59220000  0.76430000  0.98850000  1.0 -0.8317487724
O  O43  1  0.40780000  0.23570000  0.98850000  1.0 -0.8317487724
O  O44  1  0.26430000  0.90780000  0.98850000  1.0 -0.8317487724
O  O45  1  0.76430000  0.40780000  0.01150000  1.0 -0.8317487724
O  O46  1  0.90780000  0.73570000  0.01150000  1.0 -0.8317487724
O  O47  1  0.09220000  0.26430000  0.01150000  1.0 -0.8317487724
O  O48  1  0.23570000  0.59220000  0.01150000  1.0 -0.8317487724
O  O49  1  0.68850000  0.00480000  0.80300000  1.0 -0.770075649
O  O50  1  0.50480000  0.81150000  0.80300000  1.0 -0.770075649
O  O51  1  0.49520000  0.18850000  0.80300000  1.0 -0.770075649
O  O52  1  0.31150000  0.99520000  0.80300000  1.0 -0.770075649
O  O53  1  0.81150000  0.49520000  0.19700000  1.0 -0.770075649
O  O54  1  0.99520000  0.68850000  0.19700000  1.0 -0.770075649
O  O55  1  0.00480000  0.31150000  0.19700000  1.0 -0.770075649
O  O56  1  0.18850000  0.50480000  0.19700000  1.0 -0.770075649
O  O57  1  0.74930000  0.11640000  0.72090000  1.0 -0.8185684122
O  O58  1  0.61640000  0.75070000  0.72090000  1.0 -0.8185684122
O  O59  1  0.38360000  0.24930000  0.72090000  1.0 -0.8185684122
O  O60  1  0.25070000  0.88360000  0.72090000  1.0 -0.8185684122
O  O61  1  0.75070000  0.38360000  0.27910000  1.0 -0.8185684122
O  O62  1  0.88360000  0.74930000  0.27910000  1.0 -0.8185684122
O  O63  1  0.11640000  0.25070000  0.27910000  1.0 -0.8185684122
O  O64  1  0.24930000  0.61640000  0.27910000  1.0 -0.8185684122
O  O65  1  0.69000000  0.37510000  0.75170000  1.0 -0.7618467969
O  O66  1  0.87510000  0.81000000  0.75170000  1.0 -0.7618467969
O  O67  1  0.12490000  0.19000000  0.75170000  1.0 -0.7618467969
O  O68  1  0.31000000  0.62490000  0.75170000  1.0 -0.7618467969
O  O69  1  0.81000000  0.12490000  0.24830000  1.0 -0.7618467969
O  O70  1  0.62490000  0.69000000  0.24830000  1.0 -0.7618467969
O  O71  1  0.37510000  0.31000000  0.24830000  1.0 -0.7618467969
O  O72  1  0.19000000  0.87510000  0.24830000  1.0 -0.7618467969
O  O73  1  0.75570000  0.26620000  0.67690000  1.0 -0.8317487724
O  O74  1  0.76620000  0.74430000  0.67690000  1.0 -0.8317487724
O  O75  1  0.23380000  0.25570000  0.67690000  1.0 -0.8317487724
O  O76  1  0.24430000  0.73380000  0.67690000  1.0 -0.8317487724
O  O77  1  0.74430000  0.23380000  0.32310000  1.0 -0.8317487724
O  O78  1  0.73380000  0.75570000  0.32310000  1.0 -0.8317487724
O  O79  1  0.26620000  0.24430000  0.32310000  1.0 -0.8317487724
O  O80  1  0.25570000  0.76620000  0.32310000  1.0 -0.8317487724
O  O81  1  0.62140000  0.25980000  0.71150000  1.0 -0.8317487724
O  O82  1  0.75980000  0.87860000  0.71150000  1.0 -0.8317487724
O  O83  1  0.24020000  0.12140000  0.71150000  1.0 -0.8317487724
O  O84  1  0.37860000  0.74020000  0.71150000  1.0 -0.8317487724
O  O85  1  0.87860000  0.24020000  0.28850000  1.0 -0.8317487724
O  O86  1  0.74020000  0.62140000  0.28850000  1.0 -0.8317487724
O  O87  1  0.25980000  0.37860000  0.28850000  1.0 -0.8317487724
O  O88  1  0.12140000  0.75980000  0.28850000  1.0 -0.8317487724
O  O89  1  0.67180000  0.32780000  0.50770000  1.0 -0.7618467969
O  O90  1  0.82780000  0.82820000  0.50770000  1.0 -0.7618467969
O  O91  1  0.17220000  0.17180000  0.50770000  1.0 -0.7618467969
O  O92  1  0.32820000  0.67220000  0.50770000  1.0 -0.7618467969
O  O93  1  0.82820000  0.17220000  0.49230000  1.0 -0.7618467969
O  O94  1  0.67220000  0.67180000  0.49230000  1.0 -0.7618467969
O  O95  1  0.32780000  0.32820000  0.49230000  1.0 -0.7618467969
O  O96  1  0.17180000  0.82780000  0.49230000  1.0 -0.7618467969
