# DDEC6 charges by PACMAN v1.1 (https://github.com/mtap-research/PACMAN-charge/)
data_JILWOR_FSR_pacman
_symmetry_space_group_name_H-M   'P 1'
_cell_length_a   18.90560000
_cell_length_b   18.90560000
_cell_length_c   18.90560000
_cell_angle_alpha   90.00000000
_cell_angle_beta   90.00000000
_cell_angle_gamma   90.00000000
_symmetry_Int_Tables_number   1
_chemical_formula_structural   AlPO4
_chemical_formula_sum   'Al48 P48 O192'
_cell_volume   6757.27190629
_cell_formula_units_Z   48
loop_
 _symmetry_equiv_pos_site_id
 _symmetry_equiv_pos_as_xyz
  1  'x, y, z'
loop_
 _atom_site_type_symbol
 _atom_site_label
 _atom_site_symmetry_multiplicity
 _atom_site_fract_x
 _atom_site_fract_y
 _atom_site_fract_z
 _atom_site_occupancy
 _atom_site_charge
Al  Al1  1  0.70436000  0.18172000  0.41597000  1.0 1.7634482165
Al  Al2  1  0.41597000  0.70436000  0.18172000  1.0 1.7634482165
Al  Al3  1  0.18172000  0.41597000  0.70436000  1.0 1.7634482165
Al  Al4  1  0.18172000  0.70436000  0.58403000  1.0 1.7634482165
Al  Al5  1  0.18172000  0.29564000  0.41597000  1.0 1.7634482165
Al  Al6  1  0.81828000  0.70436000  0.41597000  1.0 1.7634482165
Al  Al7  1  0.70436000  0.41597000  0.81828000  1.0 1.7634482165
Al  Al8  1  0.29564000  0.41597000  0.18172000  1.0 1.7634482165
Al  Al9  1  0.70436000  0.58403000  0.18172000  1.0 1.7634482165
Al  Al10  1  0.41597000  0.18172000  0.29564000  1.0 1.7634482165
Al  Al11  1  0.41597000  0.81828000  0.70436000  1.0 1.7634482165
Al  Al12  1  0.58403000  0.18172000  0.70436000  1.0 1.7634482165
Al  Al13  1  0.29564000  0.81828000  0.41597000  1.0 1.7634482165
Al  Al14  1  0.29564000  0.18172000  0.58403000  1.0 1.7634482165
Al  Al15  1  0.70436000  0.81828000  0.58403000  1.0 1.7634482165
Al  Al16  1  0.41597000  0.29564000  0.81828000  1.0 1.7634482165
Al  Al17  1  0.58403000  0.29564000  0.18172000  1.0 1.7634482165
Al  Al18  1  0.58403000  0.70436000  0.81828000  1.0 1.7634482165
Al  Al19  1  0.81828000  0.41597000  0.29564000  1.0 1.7634482165
Al  Al20  1  0.18172000  0.58403000  0.29564000  1.0 1.7634482165
Al  Al21  1  0.81828000  0.58403000  0.70436000  1.0 1.7634482165
Al  Al22  1  0.81828000  0.29564000  0.58403000  1.0 1.7634482165
Al  Al23  1  0.29564000  0.58403000  0.81828000  1.0 1.7634482165
Al  Al24  1  0.58403000  0.81828000  0.29564000  1.0 1.7634482165
Al  Al25  1  0.79564000  0.31828000  0.08403000  1.0 1.7634482165
Al  Al26  1  0.08403000  0.79564000  0.31828000  1.0 1.7634482165
Al  Al27  1  0.31828000  0.08403000  0.79564000  1.0 1.7634482165
Al  Al28  1  0.31828000  0.79564000  0.91597000  1.0 1.7634482165
Al  Al29  1  0.31828000  0.20436000  0.08403000  1.0 1.7634482165
Al  Al30  1  0.68172000  0.79564000  0.08403000  1.0 1.7634482165
Al  Al31  1  0.79564000  0.08403000  0.68172000  1.0 1.7634482165
Al  Al32  1  0.20436000  0.08403000  0.31828000  1.0 1.7634482165
Al  Al33  1  0.79564000  0.91597000  0.31828000  1.0 1.7634482165
Al  Al34  1  0.08403000  0.31828000  0.20436000  1.0 1.7634482165
Al  Al35  1  0.08403000  0.68172000  0.79564000  1.0 1.7634482165
Al  Al36  1  0.91597000  0.31828000  0.79564000  1.0 1.7634482165
Al  Al37  1  0.20436000  0.68172000  0.08403000  1.0 1.7634482165
Al  Al38  1  0.20436000  0.31828000  0.91597000  1.0 1.7650058508
Al  Al39  1  0.79564000  0.68172000  0.91597000  1.0 1.7634482165
Al  Al40  1  0.08403000  0.20436000  0.68172000  1.0 1.7634482165
Al  Al41  1  0.91597000  0.20436000  0.31828000  1.0 1.7634482165
Al  Al42  1  0.91597000  0.79564000  0.68172000  1.0 1.7634482165
Al  Al43  1  0.68172000  0.08403000  0.20436000  1.0 1.7634482165
Al  Al44  1  0.31828000  0.91597000  0.20436000  1.0 1.7634482165
Al  Al45  1  0.68172000  0.91597000  0.79564000  1.0 1.7634482165
Al  Al46  1  0.68172000  0.20436000  0.91597000  1.0 1.7634482165
Al  Al47  1  0.20436000  0.91597000  0.68172000  1.0 1.7634482165
Al  Al48  1  0.91597000  0.68172000  0.20436000  1.0 1.7634482165
P  P1  1  0.82081000  0.30166000  0.41723000  1.0 1.4299816752
P  P2  1  0.41723000  0.82081000  0.30166000  1.0 1.4299816752
P  P3  1  0.30166000  0.41723000  0.82081000  1.0 1.4299816752
P  P4  1  0.30166000  0.82081000  0.58277000  1.0 1.4299816752
P  P5  1  0.30166000  0.17919000  0.41723000  1.0 1.4299816752
P  P6  1  0.69834000  0.82081000  0.41723000  1.0 1.4299816752
P  P7  1  0.82081000  0.41723000  0.69834000  1.0 1.4299816752
P  P8  1  0.17919000  0.41723000  0.30166000  1.0 1.4299816752
P  P9  1  0.82081000  0.58277000  0.30166000  1.0 1.4299816752
P  P10  1  0.41723000  0.30166000  0.17919000  1.0 1.4299816752
P  P11  1  0.41723000  0.69834000  0.82081000  1.0 1.4299816752
P  P12  1  0.58277000  0.30166000  0.82081000  1.0 1.4299816752
P  P13  1  0.17919000  0.69834000  0.41723000  1.0 1.4299816752
P  P14  1  0.17919000  0.30166000  0.58277000  1.0 1.4299816752
P  P15  1  0.82081000  0.69834000  0.58277000  1.0 1.4299816752
P  P16  1  0.41723000  0.17919000  0.69834000  1.0 1.4299816752
P  P17  1  0.58277000  0.17919000  0.30166000  1.0 1.4299816752
P  P18  1  0.58277000  0.82081000  0.69834000  1.0 1.4299816752
P  P19  1  0.69834000  0.41723000  0.17919000  1.0 1.4299816752
P  P20  1  0.30166000  0.58277000  0.17919000  1.0 1.4299816752
P  P21  1  0.69834000  0.58277000  0.82081000  1.0 1.4299816752
P  P22  1  0.69834000  0.17919000  0.58277000  1.0 1.4299816752
P  P23  1  0.17919000  0.58277000  0.69834000  1.0 1.4299816752
P  P24  1  0.58277000  0.69834000  0.17919000  1.0 1.4299816752
P  P25  1  0.67919000  0.19834000  0.08277000  1.0 1.4299816752
P  P26  1  0.08277000  0.67919000  0.19834000  1.0 1.4299816752
P  P27  1  0.19834000  0.08277000  0.67919000  1.0 1.4299816752
P  P28  1  0.19834000  0.67919000  0.91723000  1.0 1.4299816752
P  P29  1  0.19834000  0.32081000  0.08277000  1.0 1.4299816752
P  P30  1  0.80166000  0.67919000  0.08277000  1.0 1.4299816752
P  P31  1  0.67919000  0.08277000  0.80166000  1.0 1.4299816752
P  P32  1  0.32081000  0.08277000  0.19834000  1.0 1.4299816752
P  P33  1  0.67919000  0.91723000  0.19834000  1.0 1.4299816752
P  P34  1  0.08277000  0.19834000  0.32081000  1.0 1.4299816752
P  P35  1  0.08277000  0.80166000  0.67919000  1.0 1.4299816752
P  P36  1  0.91723000  0.19834000  0.67919000  1.0 1.4299816752
P  P37  1  0.32081000  0.80166000  0.08277000  1.0 1.4299816752
P  P38  1  0.32081000  0.19834000  0.91723000  1.0 1.4299816752
P  P39  1  0.67919000  0.80166000  0.91723000  1.0 1.4299816752
P  P40  1  0.08277000  0.32081000  0.80166000  1.0 1.4299816752
P  P41  1  0.91723000  0.32081000  0.19834000  1.0 1.4299816752
P  P42  1  0.91723000  0.67919000  0.80166000  1.0 1.4299816752
P  P43  1  0.80166000  0.08277000  0.32081000  1.0 1.4299816752
P  P44  1  0.19834000  0.91723000  0.32081000  1.0 1.4299816752
P  P45  1  0.80166000  0.91723000  0.67919000  1.0 1.4299816752
P  P46  1  0.80166000  0.32081000  0.91723000  1.0 1.4299816752
P  P47  1  0.32081000  0.91723000  0.80166000  1.0 1.4299816752
P  P48  1  0.91723000  0.80166000  0.32081000  1.0 1.4299816752
O  O1  1  0.74970000  0.26430000  0.41020000  1.0 -0.8312586556
O  O2  1  0.41020000  0.74970000  0.26430000  1.0 -0.8312586556
O  O3  1  0.26430000  0.41020000  0.74970000  1.0 -0.8312586556
O  O4  1  0.26430000  0.74970000  0.58980000  1.0 -0.8312586556
O  O5  1  0.26430000  0.25030000  0.41020000  1.0 -0.8312586556
O  O6  1  0.73570000  0.74970000  0.41020000  1.0 -0.8312586556
O  O7  1  0.74970000  0.41020000  0.73570000  1.0 -0.8312586556
O  O8  1  0.25030000  0.41020000  0.26430000  1.0 -0.8312586556
O  O9  1  0.74970000  0.58980000  0.26430000  1.0 -0.8312586556
O  O10  1  0.41020000  0.26430000  0.25030000  1.0 -0.8312586556
O  O11  1  0.41020000  0.73570000  0.74970000  1.0 -0.8312586556
O  O12  1  0.58980000  0.26430000  0.74970000  1.0 -0.8312586556
O  O13  1  0.25030000  0.73570000  0.41020000  1.0 -0.8312586556
O  O14  1  0.25030000  0.26430000  0.58980000  1.0 -0.8312586556
O  O15  1  0.74970000  0.73570000  0.58980000  1.0 -0.8312586556
O  O16  1  0.41020000  0.25030000  0.73570000  1.0 -0.8312586556
O  O17  1  0.58980000  0.25030000  0.26430000  1.0 -0.8312586556
O  O18  1  0.58980000  0.74970000  0.73570000  1.0 -0.8312586556
O  O19  1  0.73570000  0.41020000  0.25030000  1.0 -0.8312586556
O  O20  1  0.26430000  0.58980000  0.25030000  1.0 -0.8312586556
O  O21  1  0.73570000  0.58980000  0.74970000  1.0 -0.8312586556
O  O22  1  0.73570000  0.25030000  0.58980000  1.0 -0.8312586556
O  O23  1  0.25030000  0.58980000  0.73570000  1.0 -0.8312586556
O  O24  1  0.58980000  0.73570000  0.25030000  1.0 -0.8312586556
O  O25  1  0.75030000  0.23570000  0.08980000  1.0 -0.8312586556
O  O26  1  0.08980000  0.75030000  0.23570000  1.0 -0.8312586556
O  O27  1  0.23570000  0.08980000  0.75030000  1.0 -0.8312586556
O  O28  1  0.23570000  0.75030000  0.91020000  1.0 -0.8312586556
O  O29  1  0.23570000  0.24970000  0.08980000  1.0 -0.8312586556
O  O30  1  0.76430000  0.75030000  0.08980000  1.0 -0.8312586556
O  O31  1  0.75030000  0.08980000  0.76430000  1.0 -0.8312586556
O  O32  1  0.24970000  0.08980000  0.23570000  1.0 -0.8312586556
O  O33  1  0.75030000  0.91020000  0.23570000  1.0 -0.8312586556
O  O34  1  0.08980000  0.23570000  0.24970000  1.0 -0.8312586556
O  O35  1  0.08980000  0.76430000  0.75030000  1.0 -0.8312586556
O  O36  1  0.91020000  0.23570000  0.75030000  1.0 -0.8312586556
O  O37  1  0.24970000  0.76430000  0.08980000  1.0 -0.8312586556
O  O38  1  0.24970000  0.23570000  0.91020000  1.0 -0.8312586556
O  O39  1  0.75030000  0.76430000  0.91020000  1.0 -0.8312586556
O  O40  1  0.08980000  0.24970000  0.76430000  1.0 -0.8312586556
O  O41  1  0.91020000  0.24970000  0.23570000  1.0 -0.8312586556
O  O42  1  0.91020000  0.75030000  0.76430000  1.0 -0.8312586556
O  O43  1  0.76430000  0.08980000  0.24970000  1.0 -0.8312586556
O  O44  1  0.23570000  0.91020000  0.24970000  1.0 -0.8312586556
O  O45  1  0.76430000  0.91020000  0.75030000  1.0 -0.8312586556
O  O46  1  0.76430000  0.24970000  0.91020000  1.0 -0.8312586556
O  O47  1  0.24970000  0.91020000  0.76430000  1.0 -0.8312586556
O  O48  1  0.91020000  0.76430000  0.24970000  1.0 -0.8312586556
O  O49  1  0.81440000  0.37110000  0.37950000  1.0 -0.7660394756
O  O50  1  0.37950000  0.81440000  0.37110000  1.0 -0.7660394756
O  O51  1  0.37110000  0.37950000  0.81440000  1.0 -0.7660394756
O  O52  1  0.37110000  0.81440000  0.62050000  1.0 -0.7660394756
O  O53  1  0.37110000  0.18560000  0.37950000  1.0 -0.7660394756
O  O54  1  0.62890000  0.81440000  0.37950000  1.0 -0.7660394756
O  O55  1  0.81440000  0.37950000  0.62890000  1.0 -0.7660394756
O  O56  1  0.18560000  0.37950000  0.37110000  1.0 -0.7660394756
O  O57  1  0.81440000  0.62050000  0.37110000  1.0 -0.7660394756
O  O58  1  0.37950000  0.37110000  0.18560000  1.0 -0.7660394756
O  O59  1  0.37950000  0.62890000  0.81440000  1.0 -0.7660394756
O  O60  1  0.62050000  0.37110000  0.81440000  1.0 -0.7660394756
O  O61  1  0.18560000  0.62890000  0.37950000  1.0 -0.7660394756
O  O62  1  0.18560000  0.37110000  0.62050000  1.0 -0.7660394756
O  O63  1  0.81440000  0.62890000  0.62050000  1.0 -0.7660394756
O  O64  1  0.37950000  0.18560000  0.62890000  1.0 -0.7660394756
O  O65  1  0.62050000  0.18560000  0.37110000  1.0 -0.7660394756
O  O66  1  0.62050000  0.81440000  0.62890000  1.0 -0.7660394756
O  O67  1  0.62890000  0.37950000  0.18560000  1.0 -0.7660394756
O  O68  1  0.37110000  0.62050000  0.18560000  1.0 -0.7660394756
O  O69  1  0.62890000  0.62050000  0.81440000  1.0 -0.7660394756
O  O70  1  0.62890000  0.18560000  0.62050000  1.0 -0.7660394756
O  O71  1  0.18560000  0.62050000  0.62890000  1.0 -0.7660394756
O  O72  1  0.62050000  0.62890000  0.18560000  1.0 -0.7660394756
O  O73  1  0.68560000  0.12890000  0.12050000  1.0 -0.7660394756
O  O74  1  0.12050000  0.68560000  0.12890000  1.0 -0.7660394756
O  O75  1  0.12890000  0.12050000  0.68560000  1.0 -0.7660394756
O  O76  1  0.12890000  0.68560000  0.87950000  1.0 -0.7660394756
O  O77  1  0.12890000  0.31440000  0.12050000  1.0 -0.7660394756
O  O78  1  0.87110000  0.68560000  0.12050000  1.0 -0.7660394756
O  O79  1  0.68560000  0.12050000  0.87110000  1.0 -0.7660394756
O  O80  1  0.31440000  0.12050000  0.12890000  1.0 -0.7660394756
O  O81  1  0.68560000  0.87950000  0.12890000  1.0 -0.7660394756
O  O82  1  0.12050000  0.12890000  0.31440000  1.0 -0.7660394756
O  O83  1  0.12050000  0.87110000  0.68560000  1.0 -0.7660394756
O  O84  1  0.87950000  0.12890000  0.68560000  1.0 -0.7660394756
O  O85  1  0.31440000  0.87110000  0.12050000  1.0 -0.7660394756
O  O86  1  0.31440000  0.12890000  0.87950000  1.0 -0.7660394756
O  O87  1  0.68560000  0.87110000  0.87950000  1.0 -0.7660394756
O  O88  1  0.12050000  0.31440000  0.87110000  1.0 -0.7660394756
O  O89  1  0.87950000  0.31440000  0.12890000  1.0 -0.7660394756
O  O90  1  0.87950000  0.68560000  0.87110000  1.0 -0.7660394756
O  O91  1  0.87110000  0.12050000  0.31440000  1.0 -0.7660394756
O  O92  1  0.12890000  0.87950000  0.31440000  1.0 -0.7660394756
O  O93  1  0.87110000  0.87950000  0.68560000  1.0 -0.7660394756
O  O94  1  0.87110000  0.31440000  0.87950000  1.0 -0.7660394756
O  O95  1  0.31440000  0.87950000  0.87110000  1.0 -0.7660394756
O  O96  1  0.87950000  0.87110000  0.31440000  1.0 -0.7660394756
O  O97  1  0.83660000  0.31650000  0.49450000  1.0 -0.776613768
O  O98  1  0.49450000  0.83660000  0.31650000  1.0 -0.776613768
O  O99  1  0.31650000  0.49450000  0.83660000  1.0 -0.776613768
O  O100  1  0.31650000  0.83660000  0.50550000  1.0 -0.776613768
O  O101  1  0.31650000  0.16340000  0.49450000  1.0 -0.776613768
O  O102  1  0.68350000  0.83660000  0.49450000  1.0 -0.776613768
O  O103  1  0.83660000  0.49450000  0.68350000  1.0 -0.776613768
O  O104  1  0.16340000  0.49450000  0.31650000  1.0 -0.776613768
O  O105  1  0.83660000  0.50550000  0.31650000  1.0 -0.776613768
O  O106  1  0.49450000  0.31650000  0.16340000  1.0 -0.776613768
O  O107  1  0.49450000  0.68350000  0.83660000  1.0 -0.776613768
O  O108  1  0.50550000  0.31650000  0.83660000  1.0 -0.776613768
O  O109  1  0.16340000  0.68350000  0.49450000  1.0 -0.776613768
O  O110  1  0.16340000  0.31650000  0.50550000  1.0 -0.776613768
O  O111  1  0.83660000  0.68350000  0.50550000  1.0 -0.776613768
O  O112  1  0.49450000  0.16340000  0.68350000  1.0 -0.776613768
O  O113  1  0.50550000  0.16340000  0.31650000  1.0 -0.776613768
O  O114  1  0.50550000  0.83660000  0.68350000  1.0 -0.776613768
O  O115  1  0.68350000  0.49450000  0.16340000  1.0 -0.776613768
O  O116  1  0.31650000  0.50550000  0.16340000  1.0 -0.776613768
O  O117  1  0.68350000  0.50550000  0.83660000  1.0 -0.776613768
O  O118  1  0.68350000  0.16340000  0.50550000  1.0 -0.776613768
O  O119  1  0.16340000  0.50550000  0.68350000  1.0 -0.776613768
O  O120  1  0.50550000  0.68350000  0.16340000  1.0 -0.776613768
O  O121  1  0.66340000  0.18350000  0.00550000  1.0 -0.776613768
O  O122  1  0.00550000  0.66340000  0.18350000  1.0 -0.776613768
O  O123  1  0.18350000  0.00550000  0.66340000  1.0 -0.776613768
O  O124  1  0.18350000  0.66340000  0.99450000  1.0 -0.776613768
O  O125  1  0.18350000  0.33660000  0.00550000  1.0 -0.776613768
O  O126  1  0.81650000  0.66340000  0.00550000  1.0 -0.776613768
O  O127  1  0.66340000  0.00550000  0.81650000  1.0 -0.776613768
O  O128  1  0.33660000  0.00550000  0.18350000  1.0 -0.776613768
O  O129  1  0.66340000  0.99450000  0.18350000  1.0 -0.776613768
O  O130  1  0.00550000  0.18350000  0.33660000  1.0 -0.776613768
O  O131  1  0.00550000  0.81650000  0.66340000  1.0 -0.776613768
O  O132  1  0.99450000  0.18350000  0.66340000  1.0 -0.776613768
O  O133  1  0.33660000  0.81650000  0.00550000  1.0 -0.776613768
O  O134  1  0.33660000  0.18350000  0.99450000  1.0 -0.776613768
O  O135  1  0.66340000  0.81650000  0.99450000  1.0 -0.776613768
O  O136  1  0.00550000  0.33660000  0.81650000  1.0 -0.776613768
O  O137  1  0.99450000  0.33660000  0.18350000  1.0 -0.776613768
O  O138  1  0.99450000  0.66340000  0.81650000  1.0 -0.776613768
O  O139  1  0.81650000  0.00550000  0.33660000  1.0 -0.776613768
O  O140  1  0.18350000  0.99450000  0.33660000  1.0 -0.776613768
O  O141  1  0.81650000  0.99450000  0.66340000  1.0 -0.776613768
O  O142  1  0.81650000  0.33660000  0.99450000  1.0 -0.776613768
O  O143  1  0.33660000  0.99450000  0.81650000  1.0 -0.776613768
O  O144  1  0.99450000  0.81650000  0.33660000  1.0 -0.776613768
O  O145  1  0.87940000  0.25790000  0.38670000  1.0 -0.8195504432
O  O146  1  0.38670000  0.87940000  0.25790000  1.0 -0.8195504432
O  O147  1  0.25790000  0.38670000  0.87940000  1.0 -0.8195504432
O  O148  1  0.25790000  0.87940000  0.61330000  1.0 -0.8195504432
O  O149  1  0.25790000  0.12060000  0.38670000  1.0 -0.8195504432
O  O150  1  0.74210000  0.87940000  0.38670000  1.0 -0.8195504432
O  O151  1  0.87940000  0.38670000  0.74210000  1.0 -0.8195504432
O  O152  1  0.12060000  0.38670000  0.25790000  1.0 -0.8195504432
O  O153  1  0.87940000  0.61330000  0.25790000  1.0 -0.8195504432
O  O154  1  0.38670000  0.25790000  0.12060000  1.0 -0.8195504432
O  O155  1  0.38670000  0.74210000  0.87940000  1.0 -0.8195504432
O  O156  1  0.61330000  0.25790000  0.87940000  1.0 -0.8195504432
O  O157  1  0.12060000  0.74210000  0.38670000  1.0 -0.8195504432
O  O158  1  0.12060000  0.25790000  0.61330000  1.0 -0.8195504432
O  O159  1  0.87940000  0.74210000  0.61330000  1.0 -0.8195504432
O  O160  1  0.38670000  0.12060000  0.74210000  1.0 -0.8195504432
O  O161  1  0.61330000  0.12060000  0.25790000  1.0 -0.8195504432
O  O162  1  0.61330000  0.87940000  0.74210000  1.0 -0.8195504432
O  O163  1  0.74210000  0.38670000  0.12060000  1.0 -0.8195504432
O  O164  1  0.25790000  0.61330000  0.12060000  1.0 -0.8195504432
O  O165  1  0.74210000  0.61330000  0.87940000  1.0 -0.8195504432
O  O166  1  0.74210000  0.12060000  0.61330000  1.0 -0.8195504432
O  O167  1  0.12060000  0.61330000  0.74210000  1.0 -0.8195504432
O  O168  1  0.61330000  0.74210000  0.12060000  1.0 -0.8195504432
O  O169  1  0.62060000  0.24210000  0.11330000  1.0 -0.8195504432
O  O170  1  0.11330000  0.62060000  0.24210000  1.0 -0.8195504432
O  O171  1  0.24210000  0.11330000  0.62060000  1.0 -0.8195504432
O  O172  1  0.24210000  0.62060000  0.88670000  1.0 -0.8195504432
O  O173  1  0.24210000  0.37940000  0.11330000  1.0 -0.8195504432
O  O174  1  0.75790000  0.62060000  0.11330000  1.0 -0.8195504432
O  O175  1  0.62060000  0.11330000  0.75790000  1.0 -0.8195504432
O  O176  1  0.37940000  0.11330000  0.24210000  1.0 -0.8195504432
O  O177  1  0.62060000  0.88670000  0.24210000  1.0 -0.8195504432
O  O178  1  0.11330000  0.24210000  0.37940000  1.0 -0.8195504432
O  O179  1  0.11330000  0.75790000  0.62060000  1.0 -0.8195504432
O  O180  1  0.88670000  0.24210000  0.62060000  1.0 -0.8195504432
O  O181  1  0.37940000  0.75790000  0.11330000  1.0 -0.8195504432
O  O182  1  0.37940000  0.24210000  0.88670000  1.0 -0.8195504432
O  O183  1  0.62060000  0.75790000  0.88670000  1.0 -0.8195504432
O  O184  1  0.11330000  0.37940000  0.75790000  1.0 -0.8195504432
O  O185  1  0.88670000  0.37940000  0.24210000  1.0 -0.8195504432
O  O186  1  0.88670000  0.62060000  0.75790000  1.0 -0.8195504432
O  O187  1  0.75790000  0.11330000  0.37940000  1.0 -0.8195504432
O  O188  1  0.24210000  0.88670000  0.37940000  1.0 -0.8195504432
O  O189  1  0.75790000  0.88670000  0.62060000  1.0 -0.8195504432
O  O190  1  0.75790000  0.37940000  0.88670000  1.0 -0.8195504432
O  O191  1  0.37940000  0.88670000  0.75790000  1.0 -0.8195504432
O  O192  1  0.88670000  0.75790000  0.37940000  1.0 -0.8195504432
