# DDEC6 charges by PACMAN v1.1 (https://github.com/mtap-research/PACMAN-charge/)
data_JINNUS_FSR_pacman
_symmetry_space_group_name_H-M   'P 1'
_cell_length_a   16.43700000
_cell_length_b   20.76600000
_cell_length_c   26.41000000
_cell_angle_alpha   78.16000000
_cell_angle_beta   77.79000000
_cell_angle_gamma   76.75000000
_symmetry_Int_Tables_number   1
_chemical_formula_structural   Zn3H26C40(N4O)4
_chemical_formula_sum   'Zn18 H156 C240 N96 O24'
_cell_volume   8458.94063056
_cell_formula_units_Z   6
loop_
 _symmetry_equiv_pos_site_id
 _symmetry_equiv_pos_as_xyz
  1  'x, y, z'
loop_
 _atom_site_type_symbol
 _atom_site_label
 _atom_site_symmetry_multiplicity
 _atom_site_fract_x
 _atom_site_fract_y
 _atom_site_fract_z
 _atom_site_occupancy
 _atom_site_charge
Zn  Zn1  1  0.48508000  0.71925000  0.75836000  1.0 0.5608654651
Zn  Zn2  1  0.41912000  0.64356000  0.65702000  1.0 0.4385770295
Zn  Zn3  1  0.45226000  0.46165000  0.69264000  1.0 0.6751543913
Zn  Zn4  1  0.53740000  0.68994000  0.52964000  1.0 0.6604387297
Zn  Zn5  1  0.19660000  0.70571000  0.65081000  1.0 0.6604387297
Zn  Zn6  1  0.54830000  0.79827000  0.85821000  1.0 0.44800863
Zn  Zn7  1  0.42150000  0.76202000  0.98477000  1.0 0.6716991249
Zn  Zn8  1  0.76813000  0.73043000  0.87361000  1.0 0.6716991249
Zn  Zn9  1  0.52398000  0.97954000  0.81549000  1.0 0.6604387297
Zn  Zn10  1  0.51492000  0.28075000  0.24164000  1.0 0.5608654651
Zn  Zn11  1  0.58088000  0.35644000  0.34298000  1.0 0.4385770295
Zn  Zn12  1  0.54774000  0.53835000  0.30736000  1.0 0.6751543913
Zn  Zn13  1  0.46260000  0.31006000  0.47036000  1.0 0.6604387297
Zn  Zn14  1  0.80340000  0.29429000  0.34919000  1.0 0.6604387297
Zn  Zn15  1  0.45170000  0.20173000  0.14179000  1.0 0.44800863
Zn  Zn16  1  0.57850000  0.23798000  0.01523000  1.0 0.6716991249
Zn  Zn17  1  0.23187000  0.26957000  0.12639000  1.0 0.6716991249
Zn  Zn18  1  0.47602000  0.02046000  0.18451000  1.0 0.6604387297
H  H1  1  0.77190000  0.11150000  0.65430000  1.0 0.2502102885
H  H2  1  0.83690000  0.04980000  0.64620000  1.0 0.2650741074
H  H3  1  0.12250000  0.38310000  0.86040000  1.0 0.2596977983
H  H4  1  0.18820000  0.32210000  0.85110000  1.0 0.2596977983
H  H5  1  0.99920000  0.68970000  0.22470000  1.0 0.2400843087
H  H6  1  0.91940000  0.69250000  0.26400000  1.0 0.2226829711
H  H7  1  0.55050000  0.39830000  0.79540000  1.0 0.1379052572
H  H8  1  0.61440000  0.39530000  0.86530000  1.0 0.1205232749
H  H9  1  0.61980000  0.49250000  0.89410000  1.0 0.1205232749
H  H10  1  0.57380000  0.59770000  0.84820000  1.0 0.128903755
H  H11  1  0.65140000  0.80350000  0.51860000  1.0 0.128903755
H  H12  1  0.70110000  0.89260000  0.53970000  1.0 0.1105891603
H  H13  1  0.69600000  0.89180000  0.63040000  1.0 0.1008926845
H  H14  1  0.62650000  0.82200000  0.69680000  1.0 0.128903755
H  H15  1  0.08620000  0.79350000  0.75060000  1.0 0.1379052572
H  H16  1  0.06190000  0.84600000  0.82120000  1.0 0.1205232749
H  H17  1  0.17290000  0.85670000  0.85810000  1.0 0.1205232749
H  H18  1  0.31350000  0.81060000  0.82630000  1.0 0.1205232749
H  H19  1  0.26850000  0.67770000  0.99000000  1.0 0.1379052572
H  H20  1  0.19770000  0.60680000  0.96560000  1.0 0.1205232749
H  H21  1  0.23700000  0.57760000  0.88350000  1.0 0.1105891603
H  H22  1  0.34530000  0.61370000  0.82240000  1.0 0.128903755
H  H23  1  0.87730000  0.64680000  0.77260000  1.0 0.1379052572
H  H24  1  0.90420000  0.58660000  0.70490000  1.0 0.1105891603
H  H25  1  0.79420000  0.57690000  0.66410000  1.0 0.1205232749
H  H26  1  0.65630000  0.63240000  0.69010000  1.0 0.128903755
H  H27  1  0.41850000  0.03690000  0.71820000  1.0 0.1379052572
H  H28  1  0.35260000  0.04110000  0.64910000  1.0 0.1105891603
H  H29  1  0.34390000  0.94170000  0.62350000  1.0 0.1205232749
H  H30  1  0.38820000  0.83920000  0.67050000  1.0 0.128903755
H  H31  1  0.63390000  0.56400000  0.46070000  1.0 0.1379052572
H  H32  1  0.68010000  0.45770000  0.44390000  1.0 0.1105891603
H  H33  1  0.65710000  0.36690000  0.50700000  1.0 0.1008926845
H  H34  1  0.58380000  0.37870000  0.59060000  1.0 0.128903755
H  H35  1  0.07180000  0.58820000  0.67780000  1.0 0.1379052572
H  H36  1  0.03810000  0.48420000  0.69520000  1.0 0.1105891603
H  H37  1  0.14090000  0.38850000  0.70470000  1.0 0.0875747808
H  H38  1  0.28090000  0.39050000  0.69370000  1.0 0.1379052572
H  H39  1  0.14750000  0.78570000  0.53170000  1.0 0.1379052572
H  H40  1  0.17050000  0.82580000  0.44370000  1.0 0.1105891603
H  H41  1  0.30380000  0.81100000  0.39360000  1.0 0.1008926845
H  H42  1  0.42280000  0.77290000  0.43140000  1.0 0.1379052572
H  H43  1  0.79640000  0.60630000  0.98000000  1.0 0.1379052572
H  H44  1  0.76220000  0.54400000  0.06140000  1.0 0.1008926845
H  H45  1  0.62730000  0.56210000  0.10950000  1.0 0.1105891603
H  H46  1  0.51860000  0.64080000  0.07800000  1.0 0.128903755
H  H47  1  0.43060000  0.06770000  0.92130000  1.0 0.128903755
H  H48  1  0.37590000  0.08430000  0.00730000  1.0 0.1105891603
H  H49  1  0.34990000  0.99850000  0.07370000  1.0 0.1105891603
H  H50  1  0.36850000  0.89090000  0.05700000  1.0 0.1379052572
H  H51  1  0.69380000  0.04420000  0.81680000  1.0 0.1379052572
H  H52  1  0.83390000  0.04680000  0.81430000  1.0 0.1105891603
H  H53  1  0.93240000  0.94900000  0.83390000  1.0 0.1105891603
H  H54  1  0.89450000  0.84480000  0.85160000  1.0 0.1379052572
H  H55  1  0.51120000  0.12610000  0.67640000  1.0 0.128903755
H  H56  1  0.45440000  0.23900000  0.66900000  1.0 0.1205232749
H  H57  1  0.64310000  0.26750000  0.72960000  1.0 0.1205232749
H  H58  1  0.70290000  0.15250000  0.73650000  1.0 0.1105891603
H  H59  1  0.86760000  0.96050000  0.61500000  1.0 0.1105891603
H  H60  1  0.99050000  0.88180000  0.60350000  1.0 0.1379052572
H  H61  1  0.90770000  0.76560000  0.73180000  1.0 0.128903755
H  H62  1  0.79060000  0.84400000  0.74930000  1.0 0.128903755
H  H63  1  0.27000000  0.28370000  0.77530000  1.0 0.1105891603
H  H64  1  0.32850000  0.17140000  0.78180000  1.0 0.1205232749
H  H65  1  0.51550000  0.20080000  0.84420000  1.0 0.128903755
H  H66  1  0.45490000  0.31240000  0.84000000  1.0 0.128903755
H  H67  1  0.09450000  0.46660000  0.89780000  1.0 0.1105891603
H  H68  1  0.96980000  0.54350000  0.91340000  1.0 0.1205232749
H  H69  1  0.05730000  0.67270000  0.78960000  1.0 0.1205232749
H  H70  1  0.18030000  0.59490000  0.77410000  1.0 0.1205232749
H  H71  1  0.05660000  0.75670000  0.14470000  1.0 0.1105891603
H  H72  1  0.18190000  0.73520000  0.08410000  1.0 0.1379052572
H  H73  1  0.30590000  0.78720000  0.17370000  1.0 0.128903755
H  H74  1  0.17990000  0.80930000  0.23620000  1.0 0.1105891603
H  H75  1  0.75730000  0.87170000  0.31220000  1.0 0.1205232749
H  H76  1  0.64350000  0.84580000  0.37590000  1.0 0.128903755
H  H77  1  0.77440000  0.65870000  0.41180000  1.0 0.1379052572
H  H78  1  0.88830000  0.68460000  0.34800000  1.0 0.1008926845
H  H79  1  0.22810000  0.88850000  0.34570000  1.0 0.2502102885
H  H80  1  0.16310000  0.95020000  0.35380000  1.0 0.2650741074
H  H81  1  0.87750000  0.61690000  0.13960000  1.0 0.2596977983
H  H82  1  0.81180000  0.67790000  0.14890000  1.0 0.2596977983
H  H83  1  0.00080000  0.31030000  0.77530000  1.0 0.2400843087
H  H84  1  0.08060000  0.30750000  0.73600000  1.0 0.2226829711
H  H85  1  0.44950000  0.60170000  0.20460000  1.0 0.1379052572
H  H86  1  0.38560000  0.60470000  0.13470000  1.0 0.1205232749
H  H87  1  0.38020000  0.50750000  0.10590000  1.0 0.1205232749
H  H88  1  0.42620000  0.40230000  0.15180000  1.0 0.128903755
H  H89  1  0.34860000  0.19650000  0.48140000  1.0 0.128903755
H  H90  1  0.29890000  0.10740000  0.46030000  1.0 0.1105891603
H  H91  1  0.30400000  0.10820000  0.36960000  1.0 0.1008926845
H  H92  1  0.37350000  0.17800000  0.30320000  1.0 0.128903755
H  H93  1  0.91380000  0.20650000  0.24940000  1.0 0.1379052572
H  H94  1  0.93810000  0.15400000  0.17880000  1.0 0.1205232749
H  H95  1  0.82710000  0.14330000  0.14190000  1.0 0.1205232749
H  H96  1  0.68650000  0.18940000  0.17370000  1.0 0.1205232749
H  H97  1  0.73150000  0.32230000  0.01000000  1.0 0.1379052572
H  H98  1  0.80230000  0.39320000  0.03440000  1.0 0.1205232749
H  H99  1  0.76300000  0.42240000  0.11650000  1.0 0.1105891603
H  H100  1  0.65470000  0.38630000  0.17760000  1.0 0.128903755
H  H101  1  0.12270000  0.35320000  0.22740000  1.0 0.1379052572
H  H102  1  0.09580000  0.41340000  0.29510000  1.0 0.1105891603
H  H103  1  0.20580000  0.42310000  0.33590000  1.0 0.1205232749
H  H104  1  0.34370000  0.36760000  0.30990000  1.0 0.128903755
H  H105  1  0.58150000  0.96310000  0.28180000  1.0 0.1379052572
H  H106  1  0.64740000  0.95890000  0.35090000  1.0 0.1105891603
H  H107  1  0.65610000  0.05830000  0.37650000  1.0 0.1205232749
H  H108  1  0.61180000  0.16080000  0.32950000  1.0 0.128903755
H  H109  1  0.36610000  0.43600000  0.53930000  1.0 0.1379052572
H  H110  1  0.31990000  0.54230000  0.55610000  1.0 0.1105891603
H  H111  1  0.34290000  0.63310000  0.49300000  1.0 0.1008926845
H  H112  1  0.41620000  0.62130000  0.40940000  1.0 0.128903755
H  H113  1  0.92820000  0.41180000  0.32220000  1.0 0.1379052572
H  H114  1  0.96190000  0.51580000  0.30480000  1.0 0.1105891603
H  H115  1  0.85910000  0.61150000  0.29530000  1.0 0.0875747808
H  H116  1  0.71910000  0.60950000  0.30630000  1.0 0.1379052572
H  H117  1  0.85250000  0.21430000  0.46830000  1.0 0.1379052572
H  H118  1  0.82950000  0.17420000  0.55630000  1.0 0.1105891603
H  H119  1  0.69620000  0.18900000  0.60640000  1.0 0.1008926845
H  H120  1  0.57720000  0.22710000  0.56860000  1.0 0.1379052572
H  H121  1  0.20360000  0.39370000  0.02000000  1.0 0.1379052572
H  H122  1  0.23780000  0.45600000  0.93860000  1.0 0.1008926845
H  H123  1  0.37270000  0.43790000  0.89050000  1.0 0.1105891603
H  H124  1  0.48140000  0.35920000  0.92200000  1.0 0.128903755
H  H125  1  0.56940000  0.93230000  0.07870000  1.0 0.128903755
H  H126  1  0.62410000  0.91570000  0.99270000  1.0 0.1105891603
H  H127  1  0.65010000  0.00150000  0.92630000  1.0 0.1105891603
H  H128  1  0.63150000  0.10910000  0.94300000  1.0 0.1379052572
H  H129  1  0.30620000  0.95580000  0.18320000  1.0 0.1379052572
H  H130  1  0.16610000  0.95320000  0.18570000  1.0 0.1105891603
H  H131  1  0.06760000  0.05100000  0.16610000  1.0 0.1105891603
H  H132  1  0.10550000  0.15520000  0.14840000  1.0 0.1379052572
H  H133  1  0.48880000  0.87390000  0.32360000  1.0 0.128903755
H  H134  1  0.54560000  0.76100000  0.33100000  1.0 0.1205232749
H  H135  1  0.35690000  0.73250000  0.27040000  1.0 0.1205232749
H  H136  1  0.29710000  0.84750000  0.26350000  1.0 0.1105891603
H  H137  1  0.13240000  0.03950000  0.38500000  1.0 0.1105891603
H  H138  1  0.00950000  0.11820000  0.39650000  1.0 0.1379052572
H  H139  1  0.09230000  0.23440000  0.26820000  1.0 0.128903755
H  H140  1  0.20940000  0.15600000  0.25070000  1.0 0.128903755
H  H141  1  0.73000000  0.71630000  0.22470000  1.0 0.1105891603
H  H142  1  0.67150000  0.82860000  0.21820000  1.0 0.1205232749
H  H143  1  0.48450000  0.79920000  0.15580000  1.0 0.128903755
H  H144  1  0.54510000  0.68760000  0.16000000  1.0 0.128903755
H  H145  1  0.90550000  0.53340000  0.10220000  1.0 0.1105891603
H  H146  1  0.03020000  0.45650000  0.08660000  1.0 0.1205232749
H  H147  1  0.94270000  0.32730000  0.21040000  1.0 0.1205232749
H  H148  1  0.81970000  0.40510000  0.22590000  1.0 0.1205232749
H  H149  1  0.94340000  0.24330000  0.85530000  1.0 0.1105891603
H  H150  1  0.81810000  0.26480000  0.91590000  1.0 0.1379052572
H  H151  1  0.69410000  0.21280000  0.82630000  1.0 0.128903755
H  H152  1  0.82010000  0.19070000  0.76380000  1.0 0.1105891603
H  H153  1  0.24270000  0.12830000  0.68780000  1.0 0.1205232749
H  H154  1  0.35650000  0.15420000  0.62410000  1.0 0.128903755
H  H155  1  0.22560000  0.34130000  0.58820000  1.0 0.1379052572
H  H156  1  0.11170000  0.31540000  0.65200000  1.0 0.1008926845
C  C1  1  0.53220000  0.56050000  0.79290000  1.0 0.1008926845
C  C2  1  0.52520000  0.50230000  0.77730000  1.0 0.128903755
C  C3  1  0.55550000  0.43750000  0.80530000  1.0 -0.1524383824
C  C4  1  0.59180000  0.43660000  0.84700000  1.0 -0.0988212113
C  C5  1  0.59680000  0.49620000  0.86400000  1.0 -0.0988212113
C  C6  1  0.56900000  0.55880000  0.83760000  1.0 -0.1524383824
C  C7  1  0.58750000  0.77820000  0.64610000  1.0 0.1008926845
C  C8  1  0.59840000  0.77090000  0.59500000  1.0 0.1105891603
C  C9  1  0.64370000  0.81070000  0.55300000  1.0 -0.1524383824
C  C10  1  0.67670000  0.86140000  0.56540000  1.0 -0.1106566712
C  C11  1  0.66990000  0.86170000  0.62110000  1.0 -0.07989068
C  C12  1  0.62770000  0.82080000  0.66160000  1.0 -0.1794237331
C  C13  1  0.28070000  0.77040000  0.76940000  1.0 0.0875747808
C  C14  1  0.21560000  0.76610000  0.74620000  1.0 0.1205232749
C  C15  1  0.13110000  0.79590000  0.76600000  1.0 -0.1524383824
C  C16  1  0.11720000  0.82760000  0.80730000  1.0 -0.0988212113
C  C17  1  0.18490000  0.83350000  0.83000000  1.0 -0.0988212113
C  C18  1  0.26860000  0.80610000  0.81180000  1.0 -0.1524383824
C  C19  1  0.37230000  0.67070000  0.86960000  1.0 0.1205232749
C  C20  1  0.34770000  0.68990000  0.91910000  1.0 0.128903755
C  C21  1  0.28300000  0.66570000  0.95670000  1.0 -0.1588317123
C  C22  1  0.24170000  0.62350000  0.94220000  1.0 -0.1106566712
C  C23  1  0.26640000  0.60590000  0.89220000  1.0 -0.0891933197
C  C24  1  0.33030000  0.62720000  0.85520000  1.0 -0.1588317123
C  C25  1  0.68560000  0.66810000  0.75010000  1.0 0.1105891603
C  C26  1  0.75270000  0.67180000  0.77290000  1.0 0.1105891603
C  C27  1  0.83350000  0.64290000  0.75680000  1.0 -0.1588317123
C  C28  1  0.84890000  0.60770000  0.71640000  1.0 -0.0891933197
C  C29  1  0.78200000  0.60200000  0.69110000  1.0 -0.0988212113
C  C30  1  0.70020000  0.63350000  0.70690000  1.0 -0.1524383824
C  C31  1  0.43200000  0.87720000  0.72390000  1.0 0.1105891603
C  C32  1  0.44130000  0.93600000  0.73600000  1.0 0.1105891603
C  C33  1  0.41220000  0.99780000  0.70870000  1.0 -0.1524383824
C  C34  1  0.37440000  0.00000000  0.66780000  1.0 -0.1106566712
C  C35  1  0.36770000  0.93910000  0.65300000  1.0 -0.0988212113
C  C36  1  0.39420000  0.87830000  0.68000000  1.0 -0.1524383824
C  C37  1  0.56070000  0.48140000  0.57330000  1.0 0.1105891603
C  C38  1  0.57640000  0.53550000  0.53610000  1.0 0.1105891603
C  C39  1  0.62280000  0.52740000  0.48620000  1.0 -0.1524383824
C  C40  1  0.65030000  0.46490000  0.47700000  1.0 -0.0988212113
C  C41  1  0.63590000  0.40970000  0.51540000  1.0 -0.0988212113
C  C42  1  0.59210000  0.41560000  0.56480000  1.0 -0.1588317123
C  C43  1  0.26230000  0.49530000  0.68070000  1.0 0.1205232749
C  C44  1  0.19950000  0.55210000  0.67500000  1.0 0.1105891603
C  C45  1  0.11340000  0.54950000  0.68090000  1.0 -0.1524383824
C  C46  1  0.09440000  0.48820000  0.69140000  1.0 -0.1214148822
C  C47  1  0.15770000  0.42970000  0.69680000  1.0 -0.129930935
C  C48  1  0.24030000  0.42980000  0.69110000  1.0 -0.1432386156
C  C49  1  0.35550000  0.75250000  0.50590000  1.0 0.1205232749
C  C50  1  0.27440000  0.75590000  0.53590000  1.0 0.128903755
C  C51  1  0.20210000  0.78310000  0.51240000  1.0 -0.1524383824
C  C52  1  0.21670000  0.80520000  0.46030000  1.0 -0.1214148822
C  C53  1  0.29830000  0.79850000  0.42990000  1.0 -0.1214148822
C  C54  1  0.36870000  0.77460000  0.45140000  1.0 -0.1432386156
C  C55  1  0.59290000  0.67110000  0.00690000  1.0 0.1379052572
C  C56  1  0.67440000  0.65960000  0.97820000  1.0 0.128903755
C  C57  1  0.74120000  0.61250000  0.99860000  1.0 -0.1524383824
C  C58  1  0.72050000  0.57670000  0.04710000  1.0 -0.1214148822
C  C59  1  0.63790000  0.58760000  0.07630000  1.0 -0.1106566712
C  C60  1  0.57280000  0.63390000  0.05820000  1.0 -0.1588317123
C  C61  1  0.41270000  0.91460000  0.97820000  1.0 0.1379052572
C  C62  1  0.43040000  0.96610000  0.93880000  1.0 0.1008926845
C  C63  1  0.41820000  0.03250000  0.94790000  1.0 -0.1524383824
C  C64  1  0.38640000  0.04120000  0.99940000  1.0 -0.0988212113
C  C65  1  0.36950000  0.98960000  0.03970000  1.0 -0.0988212113
C  C66  1  0.38100000  0.92570000  0.03020000  1.0 -0.1588317123
C  C67  1  0.76930000  0.88300000  0.84630000  1.0 0.1105891603
C  C68  1  0.71160000  0.94130000  0.83540000  1.0 0.1105891603
C  C69  1  0.73350000  0.00500000  0.82360000  1.0 -0.1681896601
C  C70  1  0.81620000  0.00590000  0.82260000  1.0 -0.0988212113
C  C71  1  0.87670000  0.94600000  0.83400000  1.0 -0.1106566712
C  C72  1  0.85480000  0.88400000  0.84520000  1.0 -0.1588317123
C  C73  1  0.64970000  0.05540000  0.70960000  1.0 0.1974391226
C  C74  1  0.73690000  0.96230000  0.69780000  1.0 0.1877399418
C  C75  1  0.61240000  0.12830000  0.70680000  1.0 0.0282946318
C  C76  1  0.53850000  0.15440000  0.68690000  1.0 -0.129930935
C  C77  1  0.50430000  0.22220000  0.68250000  1.0 -0.0891933197
C  C78  1  0.54310000  0.26470000  0.69780000  1.0 -0.0276452512
C  C79  1  0.61690000  0.23900000  0.71850000  1.0 -0.0988212113
C  C80  1  0.65300000  0.16970000  0.72300000  1.0 -0.1681896601
C  C81  1  0.50570000  0.33760000  0.69410000  1.0 0.5305474036
C  C82  1  0.81480000  0.91190000  0.68480000  1.0 0.0282946318
C  C83  1  0.87610000  0.92190000  0.63990000  1.0 -0.1681896601
C  C84  1  0.94920000  0.87430000  0.63290000  1.0 -0.0988212113
C  C85  1  0.96230000  0.81770000  0.66710000  1.0 -0.0018753281
C  C86  1  0.90070000  0.80640000  0.70920000  1.0 -0.0988212113
C  C87  1  0.83000000  0.85240000  0.71900000  1.0 -0.1106566712
C  C88  1  0.04650000  0.76550000  0.66280000  1.0 0.5226191613
C  C89  1  0.31840000  0.38220000  0.80460000  1.0 0.1831865493
C  C90  1  0.22780000  0.47330000  0.81870000  1.0 0.1831865493
C  C91  1  0.35620000  0.30980000  0.80700000  1.0 0.0282946318
C  C92  1  0.31930000  0.26700000  0.78950000  1.0 -0.1588317123
C  C93  1  0.35470000  0.19990000  0.79290000  1.0 -0.0988212113
C  C94  1  0.42810000  0.17480000  0.81250000  1.0 -0.0103735722
C  C95  1  0.46580000  0.21750000  0.83050000  1.0 -0.0891933197
C  C96  1  0.42970000  0.28420000  0.82780000  1.0 -0.1106566712
C  C97  1  0.46750000  0.10020000  0.81650000  1.0 0.5226191613
C  C98  1  0.14780000  0.52130000  0.83230000  1.0 0.0239651795
C  C99  1  0.08590000  0.50730000  0.87520000  1.0 -0.1681896601
C  C100  1  0.01140000  0.55370000  0.88480000  1.0 -0.0988212113
C  C101  1  0.99820000  0.61610000  0.85150000  1.0 -0.0276452512
C  C102  1  0.06340000  0.63080000  0.81080000  1.0 -0.0891933197
C  C103  1  0.13720000  0.58410000  0.80150000  1.0 -0.1214148822
C  C104  1  0.91500000  0.66310000  0.85990000  1.0 0.5305474036
C  C105  1  0.02950000  0.79920000  0.23410000  1.0 0.164929438
C  C106  1  0.90860000  0.80040000  0.29000000  1.0 0.128903755
C  C107  1  0.10660000  0.78410000  0.19680000  1.0 0.0282946318
C  C108  1  0.10700000  0.76310000  0.15170000  1.0 -0.1524383824
C  C109  1  0.18350000  0.75050000  0.11450000  1.0 -0.0988212113
C  C110  1  0.25420000  0.75980000  0.12220000  1.0 0.0022511953
C  C111  1  0.25510000  0.78090000  0.16720000  1.0 -0.1106566712
C  C112  1  0.17840000  0.79410000  0.20570000  1.0 -0.1214148822
C  C113  1  0.33430000  0.75310000  0.07910000  1.0 0.5305474036
C  C114  1  0.83410000  0.78070000  0.32380000  1.0 0.0282946318
C  C115  1  0.76080000  0.82900000  0.33210000  1.0 -0.129930935
C  C116  1  0.69260000  0.81350000  0.37030000  1.0 -0.1106566712
C  C117  1  0.69770000  0.74970000  0.40020000  1.0 -0.0018753281
C  C118  1  0.77100000  0.70140000  0.39180000  1.0 -0.0891933197
C  C119  1  0.83920000  0.71690000  0.35360000  1.0 -0.1588317123
C  C120  1  0.61810000  0.73890000  0.44340000  1.0 0.5058976445
C  C121  1  0.46780000  0.43950000  0.20710000  1.0 0.1008926845
C  C122  1  0.47480000  0.49770000  0.22270000  1.0 0.128903755
C  C123  1  0.44450000  0.56250000  0.19470000  1.0 -0.1524383824
C  C124  1  0.40820000  0.56340000  0.15300000  1.0 -0.0988212113
C  C125  1  0.40320000  0.50380000  0.13600000  1.0 -0.0988212113
C  C126  1  0.43100000  0.44120000  0.16240000  1.0 -0.1524383824
C  C127  1  0.41250000  0.22180000  0.35390000  1.0 0.1008926845
C  C128  1  0.40160000  0.22910000  0.40500000  1.0 0.1105891603
C  C129  1  0.35630000  0.18930000  0.44700000  1.0 -0.1524383824
C  C130  1  0.32330000  0.13860000  0.43460000  1.0 -0.1106566712
C  C131  1  0.33010000  0.13830000  0.37890000  1.0 -0.07989068
C  C132  1  0.37230000  0.17920000  0.33840000  1.0 -0.1794237331
C  C133  1  0.71930000  0.22960000  0.23060000  1.0 0.0875747808
C  C134  1  0.78440000  0.23390000  0.25380000  1.0 0.1205232749
C  C135  1  0.86890000  0.20410000  0.23400000  1.0 -0.1524383824
C  C136  1  0.88280000  0.17240000  0.19270000  1.0 -0.0988212113
C  C137  1  0.81510000  0.16650000  0.17000000  1.0 -0.0988212113
C  C138  1  0.73140000  0.19390000  0.18820000  1.0 -0.1524383824
C  C139  1  0.62770000  0.32930000  0.13040000  1.0 0.1205232749
C  C140  1  0.65230000  0.31010000  0.08090000  1.0 0.128903755
C  C141  1  0.71700000  0.33430000  0.04330000  1.0 -0.1588317123
C  C142  1  0.75830000  0.37650000  0.05780000  1.0 -0.1106566712
C  C143  1  0.73360000  0.39410000  0.10780000  1.0 -0.0891933197
C  C144  1  0.66970000  0.37280000  0.14480000  1.0 -0.1588317123
C  C145  1  0.31440000  0.33190000  0.24990000  1.0 0.1105891603
C  C146  1  0.24730000  0.32820000  0.22710000  1.0 0.1105891603
C  C147  1  0.16650000  0.35710000  0.24320000  1.0 -0.1588317123
C  C148  1  0.15110000  0.39230000  0.28360000  1.0 -0.0891933197
C  C149  1  0.21800000  0.39800000  0.30890000  1.0 -0.0988212113
C  C150  1  0.29980000  0.36650000  0.29310000  1.0 -0.1524383824
C  C151  1  0.56800000  0.12280000  0.27610000  1.0 0.1105891603
C  C152  1  0.55870000  0.06400000  0.26400000  1.0 0.1105891603
C  C153  1  0.58780000  0.00220000  0.29130000  1.0 -0.1524383824
C  C154  1  0.62560000  0.00000000  0.33220000  1.0 -0.1106566712
C  C155  1  0.63230000  0.06090000  0.34700000  1.0 -0.0988212113
C  C156  1  0.60580000  0.12170000  0.32000000  1.0 -0.1524383824
C  C157  1  0.43930000  0.51860000  0.42670000  1.0 0.1105891603
C  C158  1  0.42360000  0.46450000  0.46390000  1.0 0.1105891603
C  C159  1  0.37720000  0.47260000  0.51380000  1.0 -0.1524383824
C  C160  1  0.34970000  0.53510000  0.52300000  1.0 -0.0988212113
C  C161  1  0.36410000  0.59030000  0.48460000  1.0 -0.0988212113
C  C162  1  0.40790000  0.58440000  0.43520000  1.0 -0.1588317123
C  C163  1  0.73770000  0.50470000  0.31930000  1.0 0.1205232749
C  C164  1  0.80050000  0.44790000  0.32500000  1.0 0.1105891603
C  C165  1  0.88660000  0.45050000  0.31910000  1.0 -0.1524383824
C  C166  1  0.90560000  0.51180000  0.30860000  1.0 -0.1214148822
C  C167  1  0.84230000  0.57030000  0.30320000  1.0 -0.129930935
C  C168  1  0.75970000  0.57020000  0.30890000  1.0 -0.1432386156
C  C169  1  0.64450000  0.24750000  0.49410000  1.0 0.1205232749
C  C170  1  0.72560000  0.24410000  0.46410000  1.0 0.128903755
C  C171  1  0.79790000  0.21690000  0.48760000  1.0 -0.1524383824
C  C172  1  0.78330000  0.19480000  0.53970000  1.0 -0.1214148822
C  C173  1  0.70170000  0.20150000  0.57010000  1.0 -0.1214148822
C  C174  1  0.63130000  0.22540000  0.54860000  1.0 -0.1432386156
C  C175  1  0.40710000  0.32890000  0.99310000  1.0 0.1379052572
C  C176  1  0.32560000  0.34040000  0.02180000  1.0 0.128903755
C  C177  1  0.25880000  0.38750000  0.00140000  1.0 -0.1524383824
C  C178  1  0.27950000  0.42330000  0.95290000  1.0 -0.1214148822
C  C179  1  0.36210000  0.41240000  0.92370000  1.0 -0.1106566712
C  C180  1  0.42720000  0.36610000  0.94180000  1.0 -0.1588317123
C  C181  1  0.58730000  0.08540000  0.02180000  1.0 0.1379052572
C  C182  1  0.56960000  0.03390000  0.06120000  1.0 0.1008926845
C  C183  1  0.58180000  0.96750000  0.05210000  1.0 -0.1524383824
C  C184  1  0.61360000  0.95880000  0.00060000  1.0 -0.0988212113
C  C185  1  0.63050000  0.01040000  0.96030000  1.0 -0.0988212113
C  C186  1  0.61900000  0.07430000  0.96980000  1.0 -0.1588317123
C  C187  1  0.23070000  0.11700000  0.15370000  1.0 0.1105891603
C  C188  1  0.28840000  0.05870000  0.16460000  1.0 0.1105891603
C  C189  1  0.26650000  0.99500000  0.17640000  1.0 -0.1681896601
C  C190  1  0.18380000  0.99410000  0.17740000  1.0 -0.0988212113
C  C191  1  0.12330000  0.05400000  0.16600000  1.0 -0.1106566712
C  C192  1  0.14520000  0.11600000  0.15480000  1.0 -0.1588317123
C  C193  1  0.35030000  0.94460000  0.29040000  1.0 0.1974391226
C  C194  1  0.26310000  0.03770000  0.30220000  1.0 0.1877399418
C  C195  1  0.38760000  0.87170000  0.29320000  1.0 0.0282946318
C  C196  1  0.46150000  0.84560000  0.31310000  1.0 -0.129930935
C  C197  1  0.49570000  0.77780000  0.31750000  1.0 -0.0891933197
C  C198  1  0.45690000  0.73530000  0.30220000  1.0 -0.0276452512
C  C199  1  0.38310000  0.76100000  0.28150000  1.0 -0.0988212113
C  C200  1  0.34700000  0.83030000  0.27700000  1.0 -0.1681896601
C  C201  1  0.49430000  0.66240000  0.30590000  1.0 0.5305474036
C  C202  1  0.18520000  0.08810000  0.31520000  1.0 0.0282946318
C  C203  1  0.12390000  0.07810000  0.36010000  1.0 -0.1681896601
C  C204  1  0.05080000  0.12570000  0.36710000  1.0 -0.0988212113
C  C205  1  0.03770000  0.18230000  0.33290000  1.0 -0.0018753281
C  C206  1  0.09930000  0.19360000  0.29080000  1.0 -0.0988212113
C  C207  1  0.17000000  0.14760000  0.28100000  1.0 -0.1106566712
C  C208  1  0.95350000  0.23450000  0.33720000  1.0 0.5226191613
C  C209  1  0.68160000  0.61780000  0.19540000  1.0 0.1831865493
C  C210  1  0.77220000  0.52670000  0.18130000  1.0 0.1831865493
C  C211  1  0.64380000  0.69020000  0.19300000  1.0 0.0282946318
C  C212  1  0.68070000  0.73300000  0.21050000  1.0 -0.1588317123
C  C213  1  0.64530000  0.80010000  0.20710000  1.0 -0.0988212113
C  C214  1  0.57190000  0.82520000  0.18750000  1.0 -0.0103735722
C  C215  1  0.53420000  0.78250000  0.16950000  1.0 -0.0891933197
C  C216  1  0.57030000  0.71580000  0.17220000  1.0 -0.1106566712
C  C217  1  0.53250000  0.89980000  0.18350000  1.0 0.5226191613
C  C218  1  0.85220000  0.47870000  0.16770000  1.0 0.0239651795
C  C219  1  0.91410000  0.49270000  0.12480000  1.0 -0.1681896601
C  C220  1  0.98860000  0.44630000  0.11520000  1.0 -0.0988212113
C  C221  1  0.00180000  0.38390000  0.14850000  1.0 -0.0276452512
C  C222  1  0.93660000  0.36920000  0.18920000  1.0 -0.0891933197
C  C223  1  0.86280000  0.41590000  0.19850000  1.0 -0.1214148822
C  C224  1  0.08500000  0.33690000  0.14010000  1.0 0.5305474036
C  C225  1  0.97050000  0.20080000  0.76590000  1.0 0.166188005
C  C226  1  0.09140000  0.19960000  0.71000000  1.0 0.1379052572
C  C227  1  0.89340000  0.21590000  0.80320000  1.0 0.0282946318
C  C228  1  0.89300000  0.23690000  0.84830000  1.0 -0.1524383824
C  C229  1  0.81650000  0.24950000  0.88550000  1.0 -0.0988212113
C  C230  1  0.74580000  0.24020000  0.87780000  1.0 0.0022511953
C  C231  1  0.74490000  0.21910000  0.83280000  1.0 -0.1106566712
C  C232  1  0.82160000  0.20590000  0.79430000  1.0 -0.1214148822
C  C233  1  0.66570000  0.24690000  0.92090000  1.0 0.5305474036
C  C234  1  0.16590000  0.21930000  0.67620000  1.0 0.0282946318
C  C235  1  0.23920000  0.17100000  0.66790000  1.0 -0.129930935
C  C236  1  0.30740000  0.18650000  0.62970000  1.0 -0.1106566712
C  C237  1  0.30230000  0.25030000  0.59980000  1.0 -0.0018753281
C  C238  1  0.22900000  0.29860000  0.60820000  1.0 -0.0891933197
C  C239  1  0.16080000  0.28310000  0.64640000  1.0 -0.1588317123
C  C240  1  0.38190000  0.26110000  0.55660000  1.0 0.5058976445
N  N1  1  0.49940000  0.61350000  0.75790000  1.0 -0.2096304736
N  N2  1  0.47300000  0.58730000  0.72367000  1.0 -0.0018753281
N  N3  1  0.48820000  0.52060000  0.73420000  1.0 -0.191514295
N  N4  1  0.53400000  0.73680000  0.67340000  1.0 -0.1794237331
N  N5  1  0.51350000  0.70770000  0.63960000  1.0 0.0022511953
N  N6  1  0.55340000  0.72520000  0.59130000  1.0 -0.2199990833
N  N7  1  0.35470000  0.73550000  0.74430000  1.0 -0.2033528041
N  N8  1  0.33290000  0.71170000  0.70730000  1.0 -0.0103735722
N  N9  1  0.24980000  0.72960000  0.70690000  1.0 -0.2199990833
N  N10  1  0.43460000  0.70250000  0.84270000  1.0 -0.191514295
N  N11  1  0.44990000  0.73840000  0.87490000  1.0 -0.0103735722
N  N12  1  0.39860000  0.73080000  0.92230000  1.0 -0.2330868993
N  N13  1  0.61260000  0.70360000  0.77450000  1.0 -0.2033528041
N  N14  1  0.63510000  0.72730000  0.81122000  1.0 -0.0103735722
N  N15  1  0.71830000  0.70890000  0.81200000  1.0 -0.2199990833
N  N16  1  0.46730000  0.82470000  0.75820000  1.0 -0.2033528041
N  N17  1  0.49550000  0.85230000  0.79088000  1.0 0.0051393524
N  N18  1  0.48130000  0.91850000  0.77920000  1.0 -0.1794237331
N  N19  1  0.51280000  0.50540000  0.61890000  1.0 -0.2330868993
N  N20  1  0.50250000  0.57300000  0.60650000  1.0 -0.0103735722
N  N21  1  0.53980000  0.59230000  0.55820000  1.0 -0.2096304736
N  N22  1  0.33790000  0.51460000  0.67610000  1.0 -0.2033528041
N  N23  1  0.31960000  0.58130000  0.66750000  1.0 -0.0103735722
N  N24  1  0.23890000  0.60590000  0.66520000  1.0 -0.2096304736
N  N25  1  0.41180000  0.72010000  0.53840000  1.0 -0.2096304736
N  N26  1  0.36630000  0.70510000  0.58580000  1.0 -0.0228179523
N  N27  1  0.28300000  0.72640000  0.58590000  1.0 -0.2199990833
N  N28  1  0.54410000  0.71920000  0.97770000  1.0 -0.2199990833
N  N29  1  0.59390000  0.73700000  0.93200000  1.0 -0.0228179523
N  N30  1  0.67230000  0.70150000  0.93150000  1.0 -0.2096304736
N  N31  1  0.43240000  0.85760000  0.95780000  1.0 -0.2488238257
N  N32  1  0.46500000  0.87500000  0.90600000  1.0 -0.0228179523
N  N33  1  0.46360000  0.93940000  0.89330000  1.0 -0.1794237331
N  N34  1  0.72710000  0.83050000  0.85510000  1.0 -0.2199990833
N  N35  1  0.64700000  0.85740000  0.84943000  1.0 -0.0103735722
N  N36  1  0.63630000  0.92420000  0.83700000  1.0 -0.2033528041
N  N37  1  0.73040000  0.03020000  0.68760000  1.0 0.0642379854
N  N38  1  0.60980000  0.00690000  0.73230000  1.0 -0.2199990833
N  N39  1  0.66740000  0.94600000  0.72400000  1.0 -0.2488238257
N  N40  1  0.78660000  0.06850000  0.65920000  1.0 -0.4504482415
N  N41  1  0.23490000  0.40550000  0.82640000  1.0 0.0457189712
N  N42  1  0.35630000  0.43250000  0.78490000  1.0 -0.2488238257
N  N43  1  0.29850000  0.49080000  0.79460000  1.0 -0.2488238257
N  N44  1  0.17390000  0.36490000  0.84890000  1.0 -0.4916143086
N  N45  1  0.97020000  0.76760000  0.25590000  1.0 0.0875747808
N  N46  1  0.01750000  0.86110000  0.25170000  1.0 -0.2662178245
N  N47  1  0.93530000  0.85850000  0.29130000  1.0 -0.2096304736
N  N48  1  0.96200000  0.71010000  0.24720000  1.0 -0.397665229
N  N49  1  0.50060000  0.38650000  0.24210000  1.0 -0.2096304736
N  N50  1  0.52700000  0.41270000  0.27633000  1.0 -0.0018753281
N  N51  1  0.51180000  0.47940000  0.26580000  1.0 -0.191514295
N  N52  1  0.46600000  0.26320000  0.32660000  1.0 -0.1794237331
N  N53  1  0.48650000  0.29230000  0.36040000  1.0 0.0022511953
N  N54  1  0.44660000  0.27480000  0.40870000  1.0 -0.2199990833
N  N55  1  0.64530000  0.26450000  0.25570000  1.0 -0.2033528041
N  N56  1  0.66710000  0.28830000  0.29270000  1.0 -0.0103735722
N  N57  1  0.75020000  0.27040000  0.29310000  1.0 -0.2199990833
N  N58  1  0.56540000  0.29750000  0.15730000  1.0 -0.191514295
N  N59  1  0.55010000  0.26160000  0.12510000  1.0 -0.0103735722
N  N60  1  0.60140000  0.26920000  0.07770000  1.0 -0.2330868993
N  N61  1  0.38740000  0.29640000  0.22550000  1.0 -0.2033528041
N  N62  1  0.36490000  0.27270000  0.18878000  1.0 -0.0103735722
N  N63  1  0.28170000  0.29110000  0.18800000  1.0 -0.2199990833
N  N64  1  0.53270000  0.17530000  0.24180000  1.0 -0.2033528041
N  N65  1  0.50450000  0.14770000  0.20912000  1.0 0.0051393524
N  N66  1  0.51870000  0.08150000  0.22080000  1.0 -0.1794237331
N  N67  1  0.48720000  0.49460000  0.38110000  1.0 -0.2330868993
N  N68  1  0.49750000  0.42700000  0.39350000  1.0 -0.0103735722
N  N69  1  0.46020000  0.40770000  0.44180000  1.0 -0.2096304736
N  N70  1  0.66210000  0.48540000  0.32390000  1.0 -0.2033528041
N  N71  1  0.68040000  0.41870000  0.33250000  1.0 -0.0103735722
N  N72  1  0.76110000  0.39410000  0.33480000  1.0 -0.2096304736
N  N73  1  0.58820000  0.27990000  0.46160000  1.0 -0.2096304736
N  N74  1  0.63370000  0.29490000  0.41420000  1.0 -0.0228179523
N  N75  1  0.71700000  0.27360000  0.41410000  1.0 -0.2199990833
N  N76  1  0.45590000  0.28080000  0.02230000  1.0 -0.2199990833
N  N77  1  0.40610000  0.26300000  0.06800000  1.0 -0.0228179523
N  N78  1  0.32770000  0.29850000  0.06850000  1.0 -0.2096304736
N  N79  1  0.56760000  0.14240000  0.04220000  1.0 -0.2488238257
N  N80  1  0.53500000  0.12500000  0.09400000  1.0 -0.0228179523
N  N81  1  0.53640000  0.06060000  0.10670000  1.0 -0.1794237331
N  N82  1  0.27290000  0.16950000  0.14490000  1.0 -0.2199990833
N  N83  1  0.35300000  0.14260000  0.15057000  1.0 -0.0103735722
N  N84  1  0.36370000  0.07580000  0.16300000  1.0 -0.2033528041
N  N85  1  0.26960000  0.96980000  0.31240000  1.0 0.0642379854
N  N86  1  0.39020000  0.99310000  0.26770000  1.0 -0.2199990833
N  N87  1  0.33260000  0.05400000  0.27600000  1.0 -0.2488238257
N  N88  1  0.21340000  0.93150000  0.34080000  1.0 -0.4504482415
N  N89  1  0.76510000  0.59450000  0.17360000  1.0 0.0457189712
N  N90  1  0.64370000  0.56750000  0.21510000  1.0 -0.2488238257
N  N91  1  0.70150000  0.50920000  0.20540000  1.0 -0.2488238257
N  N92  1  0.82610000  0.63510000  0.15110000  1.0 -0.4916143086
N  N93  1  0.02980000  0.23240000  0.74410000  1.0 0.0875747808
N  N94  1  0.98250000  0.13890000  0.74830000  1.0 -0.2662178245
N  N95  1  0.06470000  0.14150000  0.70870000  1.0 -0.2096304736
N  N96  1  0.03800000  0.28990000  0.75280000  1.0 -0.397665229
O  O1  1  0.43990000  0.36210000  0.67450000  1.0 -0.5191156056
O  O2  1  0.54330000  0.37470000  0.70780000  1.0 -0.4916143086
O  O3  1  0.10590000  0.78650000  0.62830000  1.0 -0.4987723943
O  O4  1  0.05770000  0.71350000  0.69040000  1.0 -0.4777102437
O  O5  1  0.42850000  0.06340000  0.80170000  1.0 -0.5191156056
O  O6  1  0.53500000  0.07850000  0.83261000  1.0 -0.5191156056
O  O7  1  0.85440000  0.64130000  0.89040000  1.0 -0.5191156056
O  O8  1  0.90610000  0.72070000  0.83520000  1.0 -0.5269255605
O  O9  1  0.32330000  0.74820000  0.03660000  1.0 -0.470930044
O  O10  1  0.40130000  0.75690000  0.09060000  1.0 -0.5191156056
O  O11  1  0.56290000  0.78430000  0.45070000  1.0 -0.470930044
O  O12  1  0.63190000  0.68720000  0.47070000  1.0 -0.4284907397
O  O13  1  0.56010000  0.63790000  0.32550000  1.0 -0.5191156056
O  O14  1  0.45670000  0.62530000  0.29220000  1.0 -0.4916143086
O  O15  1  0.89410000  0.21350000  0.37170000  1.0 -0.4987723943
O  O16  1  0.94230000  0.28650000  0.30960000  1.0 -0.4777102437
O  O17  1  0.57150000  0.93660000  0.19830000  1.0 -0.5191156056
O  O18  1  0.46500000  0.92150000  0.16739000  1.0 -0.5191156056
O  O19  1  0.14560000  0.35870000  0.10960000  1.0 -0.5191156056
O  O20  1  0.09390000  0.27930000  0.16480000  1.0 -0.5269255605
O  O21  1  0.67670000  0.25180000  0.96340000  1.0 -0.470930044
O  O22  1  0.59870000  0.24310000  0.90940000  1.0 -0.5191156056
O  O23  1  0.43710000  0.21570000  0.54930000  1.0 -0.470930044
O  O24  1  0.36810000  0.31280000  0.52930000  1.0 -0.4284907397
