# DDEC6 charges by PACMAN v1.1 (https://github.com/mtap-research/PACMAN-charge/)
data_JIPBET_ASR_pacman
_symmetry_space_group_name_H-M   'P 1'
_cell_length_a   12.93630000
_cell_length_b   12.93630000
_cell_length_c   17.02700000
_cell_angle_alpha   77.86680000
_cell_angle_beta   102.13300000
_cell_angle_gamma   75.72590000
_symmetry_Int_Tables_number   1
_chemical_formula_structural   La4H35C37N6O29
_chemical_formula_sum   'La8 H70 C74 N12 O58'
_cell_volume   2594.49958160
_cell_formula_units_Z   2
loop_
 _symmetry_equiv_pos_site_id
 _symmetry_equiv_pos_as_xyz
  1  'x, y, z'
loop_
 _atom_site_type_symbol
 _atom_site_label
 _atom_site_symmetry_multiplicity
 _atom_site_fract_x
 _atom_site_fract_y
 _atom_site_fract_z
 _atom_site_occupancy
 _atom_site_charge
La  La1  1  0.95871000  0.37717000  0.58686000  1.0 1.8103600366
La  La2  1  0.37717000  0.95871000  0.41314000  1.0 1.8103600366
La  La3  1  0.04129000  0.62283000  0.41314000  1.0 1.8103600366
La  La4  1  0.62283000  0.04129000  0.58686000  1.0 1.8103600366
La  La5  1  0.88734000  0.11266000  0.85596000  1.0 0.3256782217
La  La6  1  0.11266000  0.88734000  0.14404000  1.0 0.3370060546
La  La7  1  0.83394000  0.16606000  0.74662000  1.0 0.9296099467
La  La8  1  0.16606000  0.83394000  0.25338000  1.0 0.9296099467
H  H1  1  0.59671000  0.88911000  0.84348000  1.0 0.2707120699
H  H2  1  0.88911000  0.59671000  0.15652000  1.0 0.2707120699
H  H3  1  0.40329000  0.11089000  0.15652000  1.0 0.2707120699
H  H4  1  0.11089000  0.40329000  0.84348000  1.0 0.2707120699
H  H5  1  0.81572000  0.25398000  0.95771000  1.0 0.2423646299
H  H6  1  0.25398000  0.81572000  0.04229000  1.0 0.2423646299
H  H7  1  0.18428000  0.74602000  0.04229000  1.0 0.2423646299
H  H8  1  0.74602000  0.18428000  0.95771000  1.0 0.2423646299
H  H9  1  0.15410000  0.10308000  0.60296000  1.0 0.1338262183
H  H10  1  0.10308000  0.15410000  0.39704000  1.0 0.1338262183
H  H11  1  0.84590000  0.89692000  0.39704000  1.0 0.1338262183
H  H12  1  0.89692000  0.84590000  0.60296000  1.0 0.1338262183
H  H13  1  0.47229000  0.93863000  0.72493000  1.0 0.1228718743
H  H14  1  0.93863000  0.47229000  0.27507000  1.0 0.1228718743
H  H15  1  0.52771000  0.06137000  0.27507000  1.0 0.1228718743
H  H16  1  0.06137000  0.52771000  0.72493000  1.0 0.1228718743
H  H17  1  0.24972000  0.00696000  0.85258000  1.0 0.1228718743
H  H18  1  0.00696000  0.24972000  0.14742000  1.0 0.1228718743
H  H19  1  0.75028000  0.99304000  0.14742000  1.0 0.1228718743
H  H20  1  0.99304000  0.75028000  0.85258000  1.0 0.1228718743
H  H21  1  0.62434000  0.74586000  0.32681000  1.0 0.1338262183
H  H22  1  0.74586000  0.62434000  0.67319000  1.0 0.1338262183
H  H23  1  0.37566000  0.25414000  0.67319000  1.0 0.1338262183
H  H24  1  0.25414000  0.37566000  0.32681000  1.0 0.1338262183
H  H25  1  0.75788000  0.95446000  0.87537000  1.0 0.22778628
H  H26  1  0.95446000  0.75788000  0.12463000  1.0 0.22778628
H  H27  1  0.24212000  0.04554000  0.12463000  1.0 0.22778628
H  H28  1  0.04554000  0.24212000  0.87537000  1.0 0.22778628
H  H29  1  0.78089000  0.96483000  0.95613000  1.0 0.0581222845
H  H30  1  0.96483000  0.78089000  0.04387000  1.0 0.0581222845
H  H31  1  0.21911000  0.03517000  0.04387000  1.0 0.0581222845
H  H32  1  0.03517000  0.21911000  0.95613000  1.0 0.0581222845
H  H33  1  0.73891000  0.75085000  0.12625000  1.0 0.1106972245
H  H34  1  0.75085000  0.73891000  0.87375000  1.0 0.1106972245
H  H35  1  0.26109000  0.24915000  0.87375000  1.0 0.1106972245
H  H36  1  0.24915000  0.26109000  0.12625000  1.0 0.1106972245
H  H37  1  0.41358000  0.86866000  0.09706000  1.0 0.1043677067
H  H38  1  0.86866000  0.41358000  0.90294000  1.0 0.1043677067
H  H39  1  0.58642000  0.13134000  0.90294000  1.0 0.1043677067
H  H40  1  0.13134000  0.58642000  0.09706000  1.0 0.1043677067
H  H41  1  0.72445000  0.27555000  0.59775000  1.0 0.1391438169
H  H42  1  0.27555000  0.72445000  0.40225000  1.0 0.1391438169
H  H43  1  0.01195000  0.17495000  0.79722000  1.0 0.2937546892
H  H44  1  0.17495000  0.01195000  0.20278000  1.0 0.2937546892
H  H45  1  0.98805000  0.82505000  0.20278000  1.0 0.2937546892
H  H46  1  0.82505000  0.98805000  0.79722000  1.0 0.2937546892
H  H47  1  0.09752000  0.09586000  0.78529000  1.0 0.2423646299
H  H48  1  0.09586000  0.09752000  0.21471000  1.0 0.2423646299
H  H49  1  0.90248000  0.90414000  0.21471000  1.0 0.2423646299
H  H50  1  0.90414000  0.90248000  0.78529000  1.0 0.2423646299
H  H51  1  0.74833000  0.01673000  0.94777000  1.0 0.1637275366
H  H52  1  0.01673000  0.74833000  0.05223000  1.0 0.1637275366
H  H53  1  0.25167000  0.98327000  0.05223000  1.0 0.1637275366
H  H54  1  0.98327000  0.25167000  0.94777000  1.0 0.1637275366
H  H55  1  0.78453000  0.90531000  0.97521000  1.0 0.1480103394
H  H56  1  0.90532000  0.78453000  0.02479000  1.0 0.1480103394
H  H57  1  0.21546000  0.09469000  0.02479000  1.0 0.1480103394
H  H58  1  0.09469000  0.21546000  0.97521000  1.0 0.1480103394
H  H59  1  0.92821000  0.00373000  0.00384000  1.0 0.1106972245
H  H60  1  0.00373000  0.92821000  0.99616000  1.0 0.1106972245
H  H61  1  0.07179000  0.99627000  0.99616000  1.0 0.1106972245
H  H62  1  0.99627000  0.07179000  0.00384000  1.0 0.1106972245
H  H63  1  0.92318000  0.05202000  0.92320000  1.0 0.1228718743
H  H64  1  0.05202000  0.92318000  0.07680000  1.0 0.1228718743
H  H65  1  0.07682000  0.94798000  0.07680000  1.0 0.1228718743
H  H66  1  0.94798000  0.07682000  0.92320000  1.0 0.1228718743
H  H67  1  0.82066000  0.12716000  0.91422000  1.0 0.1953488623
H  H68  1  0.12716000  0.82066000  0.08578000  1.0 0.1953488623
H  H69  1  0.17934000  0.87284000  0.08578000  1.0 0.1953488623
H  H70  1  0.87284000  0.17934000  0.91422000  1.0 0.1953488623
C  C1  1  0.06970000  0.11630000  0.73130000  1.0 0.4538847802
C  C2  1  0.11630000  0.06970000  0.26870000  1.0 0.4538847802
C  C3  1  0.93030000  0.88370000  0.26870000  1.0 0.4538847802
C  C4  1  0.88370000  0.93030000  0.73130000  1.0 0.4538847802
C  C5  1  0.34200000  0.01260000  0.57110000  1.0 0.5982175989
C  C6  1  0.01260000  0.34200000  0.42890000  1.0 0.5982175989
C  C7  1  0.65800000  0.98740000  0.42890000  1.0 0.5982175989
C  C8  1  0.98740000  0.65800000  0.57110000  1.0 0.5982175989
C  C9  1  0.18530000  0.06290000  0.72920000  1.0 -0.0488735831
C  C10  1  0.06290000  0.18530000  0.27080000  1.0 -0.0488735831
C  C11  1  0.81470000  0.93710000  0.27080000  1.0 -0.0488735831
C  C12  1  0.93710000  0.81470000  0.72920000  1.0 -0.0488735831
C  C13  1  0.20960000  0.06740000  0.65280000  1.0 -0.0968101697
C  C14  1  0.06740000  0.20960000  0.34720000  1.0 -0.0968101697
C  C15  1  0.79040000  0.93260000  0.34720000  1.0 -0.0968101697
C  C16  1  0.93260000  0.79040000  0.65280000  1.0 -0.0968101697
C  C17  1  0.31700000  0.01840000  0.65190000  1.0 -0.0264940108
C  C18  1  0.01840000  0.31700000  0.34810000  1.0 -0.0264940108
C  C19  1  0.68300000  0.98160000  0.34810000  1.0 -0.0264940108
C  C20  1  0.98160000  0.68300000  0.65190000  1.0 -0.0264940108
C  C21  1  0.39960000  0.96900000  0.72580000  1.0 -0.1307003612
C  C22  1  0.96900000  0.39960000  0.27420000  1.0 -0.1307003612
C  C23  1  0.60040000  0.03100000  0.27420000  1.0 -0.1307003612
C  C24  1  0.03100000  0.60040000  0.72580000  1.0 -0.1307003612
C  C25  1  0.37490000  0.96470000  0.80130000  1.0 0.0171182749
C  C26  1  0.96470000  0.37490000  0.19870000  1.0 0.0171182749
C  C27  1  0.62510000  0.03530000  0.19870000  1.0 0.0171182749
C  C28  1  0.03530000  0.62510000  0.80130000  1.0 0.0171182749
C  C29  1  0.26690000  0.01110000  0.80180000  1.0 -0.1307003612
C  C30  1  0.01110000  0.26690000  0.19820000  1.0 -0.1307003612
C  C31  1  0.73310000  0.98890000  0.19820000  1.0 -0.1307003612
C  C32  1  0.98890000  0.73310000  0.80180000  1.0 -0.1307003612
C  C33  1  0.46220000  0.91300000  0.88000000  1.0 0.2752666695
C  C34  1  0.91300000  0.46220000  0.12000000  1.0 0.2752666695
C  C35  1  0.53780000  0.08700000  0.12000000  1.0 0.2752666695
C  C36  1  0.08700000  0.53780000  0.88000000  1.0 0.2752666695
C  C37  1  0.40830000  0.83870000  0.25410000  1.0 0.517660342
C  C38  1  0.83870000  0.40830000  0.74590000  1.0 0.517660342
C  C39  1  0.59170000  0.16130000  0.74590000  1.0 0.517660342
C  C40  1  0.16130000  0.59170000  0.25410000  1.0 0.517660342
C  C41  1  0.81480000  0.68740000  0.29140000  1.0 0.5507103426
C  C42  1  0.68740000  0.81480000  0.70860000  1.0 0.5507103426
C  C43  1  0.18520000  0.31260000  0.70860000  1.0 0.5507103426
C  C44  1  0.31260000  0.18520000  0.29140000  1.0 0.5507103426
C  C45  1  0.50350000  0.81010000  0.21770000  1.0 -0.0264940108
C  C46  1  0.81010000  0.50350000  0.78230000  1.0 -0.0264940108
C  C47  1  0.49650000  0.18990000  0.78230000  1.0 -0.0264940108
C  C48  1  0.18990000  0.49650000  0.21770000  1.0 -0.0264940108
C  C49  1  0.61130000  0.76190000  0.26910000  1.0 -0.0968101697
C  C50  1  0.76190000  0.61130000  0.73090000  1.0 -0.0968101697
C  C51  1  0.38870000  0.23810000  0.73090000  1.0 -0.0968101697
C  C52  1  0.23810000  0.38870000  0.26910000  1.0 -0.0968101697
C  C53  1  0.69870000  0.73790000  0.23520000  1.0 -0.0167641861
C  C54  1  0.73790000  0.69870000  0.76480000  1.0 -0.0167641861
C  C55  1  0.30130000  0.26210000  0.76480000  1.0 -0.0167641861
C  C56  1  0.26210000  0.30130000  0.23520000  1.0 -0.0167641861
C  C57  1  0.67970000  0.76550000  0.14950000  1.0 -0.1520919653
C  C58  1  0.76550000  0.67970000  0.85050000  1.0 -0.1520919653
C  C59  1  0.32030000  0.23450000  0.85050000  1.0 -0.1520919653
C  C60  1  0.23450000  0.32030000  0.14950000  1.0 -0.1520919653
C  C61  1  0.57220000  0.81520000  0.09800000  1.0 0.0502448788
C  C62  1  0.81520000  0.57220000  0.90200000  1.0 0.0502448788
C  C63  1  0.42780000  0.18480000  0.90200000  1.0 0.0502448788
C  C64  1  0.18480000  0.42780000  0.09800000  1.0 0.0502448788
C  C65  1  0.48550000  0.83630000  0.13190000  1.0 -0.1520919653
C  C66  1  0.83630000  0.48550000  0.86810000  1.0 -0.1520919653
C  C67  1  0.51450000  0.16370000  0.86810000  1.0 -0.1520919653
C  C68  1  0.16370000  0.51450000  0.13190000  1.0 -0.1520919653
C  C69  1  0.54980000  0.84940000  0.00630000  1.0 0.2707120699
C  C70  1  0.84940000  0.54980000  0.99370000  1.0 0.2707120699
C  C71  1  0.45020000  0.15060000  0.99370000  1.0 0.2707120699
C  C72  1  0.15060000  0.45020000  0.00630000  1.0 0.2707120699
C  C73  1  0.74160000  0.25840000  0.55070000  1.0 0.4808075053
C  C74  1  0.25840000  0.74160000  0.44930000  1.0 0.4808075053
N  N1  1  0.56880000  0.88360000  0.88520000  1.0 -0.1520919653
N  N2  1  0.88360000  0.56880000  0.11480000  1.0 -0.1520919653
N  N3  1  0.43120000  0.11640000  0.11480000  1.0 -0.1520919653
N  N4  1  0.11640000  0.43120000  0.88520000  1.0 -0.1520919653
N  N5  1  0.62730000  0.84310000  0.96650000  1.0 -0.2851324158
N  N6  1  0.84310000  0.62730000  0.03350000  1.0 -0.2851324158
N  N7  1  0.37270000  0.15690000  0.03350000  1.0 -0.2851324158
N  N8  1  0.15690000  0.37270000  0.96650000  1.0 -0.2851324158
N  N9  1  0.44580000  0.89240000  0.95510000  1.0 -0.413171448
N  N10  1  0.89240000  0.44580000  0.04490000  1.0 -0.413171448
N  N11  1  0.55420000  0.10760000  0.04490000  1.0 -0.413171448
N  N12  1  0.10760000  0.55420000  0.95510000  1.0 -0.413171448
O  O1  1  0.00124000  0.18144000  0.66570000  1.0 -0.591709085
O  O2  1  0.18144000  0.00124000  0.33430000  1.0 -0.591709085
O  O3  1  0.99876000  0.81856000  0.33430000  1.0 -0.591709085
O  O4  1  0.81856000  0.99876000  0.66570000  1.0 -0.591709085
O  O5  1  0.04820000  0.09000000  0.79890000  1.0 -0.4929586353
O  O6  1  0.09000000  0.04820000  0.20110000  1.0 -0.4929586353
O  O7  1  0.95180000  0.91000000  0.20110000  1.0 -0.4929586353
O  O8  1  0.91000000  0.95180000  0.79890000  1.0 -0.4929586353
O  O9  1  0.26560000  0.02020000  0.51100000  1.0 -0.5232827919
O  O10  1  0.02020000  0.26560000  0.48900000  1.0 -0.5232827919
O  O11  1  0.73440000  0.97980000  0.48900000  1.0 -0.5232827919
O  O12  1  0.97980000  0.73440000  0.51100000  1.0 -0.5232827919
O  O13  1  0.44058000  0.99578000  0.56600000  1.0 -0.664701693
O  O14  1  0.99578000  0.44058000  0.43400000  1.0 -0.664701693
O  O15  1  0.55942000  0.00422000  0.43400000  1.0 -0.664701693
O  O16  1  0.00422000  0.55942000  0.56600000  1.0 -0.664701693
O  O17  1  0.43010000  0.84510000  0.32690000  1.0 -0.5730382876
O  O18  1  0.84510000  0.43010000  0.67310000  1.0 -0.5730382876
O  O19  1  0.56990000  0.15490000  0.67310000  1.0 -0.5730382876
O  O20  1  0.15490000  0.56990000  0.32690000  1.0 -0.5730382876
O  O21  1  0.31800000  0.88120000  0.20440000  1.0 -0.2503933574
O  O22  1  0.88120000  0.31800000  0.79560000  1.0 -0.2503933574
O  O23  1  0.68200000  0.11880000  0.79560000  1.0 -0.2503933574
O  O24  1  0.11880000  0.68200000  0.20440000  1.0 -0.2503933574
O  O25  1  0.89360000  0.66260000  0.26130000  1.0 -0.5993611889
O  O26  1  0.66260000  0.89360000  0.73870000  1.0 -0.5993611889
O  O27  1  0.10640000  0.33740000  0.73870000  1.0 -0.5993611889
O  O28  1  0.33740000  0.10640000  0.26130000  1.0 -0.5993611889
O  O29  1  0.82947000  0.67367000  0.36910000  1.0 -0.5632211344
O  O30  1  0.67367000  0.82947000  0.63090000  1.0 -0.5632211344
O  O31  1  0.17053000  0.32633000  0.63090000  1.0 -0.5632211344
O  O32  1  0.32633000  0.17053000  0.36910000  1.0 -0.5632211344
O  O33  1  0.80290000  0.30630000  0.53240000  1.0 -0.4662803935
O  O34  1  0.30630000  0.80290000  0.46760000  1.0 -0.4662803935
O  O35  1  0.19710000  0.69370000  0.46760000  1.0 -0.4662803935
O  O36  1  0.69370000  0.19710000  0.53240000  1.0 -0.4662803935
O  O37  1  0.81170000  0.18830000  0.96260000  1.0 -0.3949054854
O  O38  1  0.18830000  0.81170000  0.03740000  1.0 -0.3961311059
O  O39  1  0.80040000  0.97380000  0.91100000  1.0 -0.2404463703
O  O40  1  0.97380000  0.80040000  0.08900000  1.0 -0.2404463703
O  O41  1  0.19960000  0.02620000  0.08900000  1.0 -0.2404463703
O  O42  1  0.02620000  0.19960000  0.91100000  1.0 -0.2404463703
O  O43  1  0.30700000  0.82640000  0.21690000  1.0 -0.259866439
O  O44  1  0.82640000  0.30700000  0.78310000  1.0 -0.259866439
O  O45  1  0.69300000  0.17360000  0.78310000  1.0 -0.259866439
O  O46  1  0.17360000  0.69300000  0.21690000  1.0 -0.259866439
O  O47  1  0.88120000  0.11880000  0.90050000  1.0 -0.2997386234
O  O48  1  0.11880000  0.88120000  0.09950000  1.0 -0.2997386234
O  O49  1  0.03700000  0.10700000  0.79900000  1.0 -0.52587799
O  O50  1  0.10700000  0.03700000  0.20100000  1.0 -0.52587799
O  O51  1  0.96300000  0.89300000  0.20100000  1.0 -0.52587799
O  O52  1  0.89300000  0.96300000  0.79900000  1.0 -0.5232827919
O  O53  1  0.80330000  0.96130000  0.95430000  1.0 -0.2404463703
O  O54  1  0.96130000  0.80330000  0.04570000  1.0 -0.2404463703
O  O55  1  0.19670000  0.03870000  0.04570000  1.0 -0.2404463703
O  O56  1  0.03870000  0.19670000  0.95430000  1.0 -0.2404463703
O  O57  1  0.96510000  0.03490000  0.03350000  1.0 -0.444116451
O  O58  1  0.03490000  0.96510000  0.96650000  1.0 -0.444116451
