# DDEC6 charges by PACMAN v1.1 (https://github.com/mtap-research/PACMAN-charge/)
data_JIPVIR_ASR_pacman
_symmetry_space_group_name_H-M   'P 1'
_cell_length_a   12.85510000
_cell_length_b   15.61700000
_cell_length_c   16.94200000
_cell_angle_alpha   92.82200000
_cell_angle_beta   103.51200000
_cell_angle_gamma   109.14900000
_symmetry_Int_Tables_number   1
_chemical_formula_structural   Zn5H32C68(N3O8)2
_chemical_formula_sum   'Zn5 H32 C68 N6 O16'
_cell_volume   3094.63919711
_cell_formula_units_Z   1
loop_
 _symmetry_equiv_pos_site_id
 _symmetry_equiv_pos_as_xyz
  1  'x, y, z'
loop_
 _atom_site_type_symbol
 _atom_site_label
 _atom_site_symmetry_multiplicity
 _atom_site_fract_x
 _atom_site_fract_y
 _atom_site_fract_z
 _atom_site_occupancy
 _atom_site_charge
Zn  Zn1  1  0.50000000  0.50000000  0.00000000  1.0 1.0593630179
Zn  Zn2  1  0.80906000  0.62503000  0.03813000  1.0 0.9384554728
Zn  Zn3  1  0.19094000  0.37497000  0.96187000  1.0 0.9384554728
Zn  Zn4  1  0.47200000  0.98530000  0.49300000  1.0 0.3569546296
Zn  Zn5  1  0.52800000  0.01470000  0.50700000  1.0 0.3569546296
H  H1  1  0.88256000  0.39680000  0.98828000  1.0 0.1414429649
H  H2  1  0.11744000  0.60320000  0.01172000  1.0 0.1414429649
H  H3  1  0.56747000  0.25119000  0.00029000  1.0 0.1414429649
H  H4  1  0.43253000  0.74881000  0.99971000  1.0 0.1414429649
H  H5  1  0.43818000  0.64567000  0.80987000  1.0 0.1296101231
H  H6  1  0.56182000  0.35433000  0.19013000  1.0 0.1296101231
H  H7  1  0.77230000  0.78007000  0.85090000  1.0 0.1296101231
H  H8  1  0.22770000  0.21993000  0.14910000  1.0 0.1296101231
H  H9  1  0.39884000  0.73137000  0.70973000  1.0 0.1231804265
H  H10  1  0.60116000  0.26863000  0.29027000  1.0 0.1231804265
H  H11  1  0.73556000  0.86464000  0.74479000  1.0 0.1231804265
H  H12  1  0.26444000  0.13536000  0.25521000  1.0 0.1231804265
H  H13  1  0.78432000  0.12480000  0.97544000  1.0 0.1231804265
H  H14  1  0.21568000  0.87520000  0.02456000  1.0 0.1231804265
H  H15  1  0.50042000  0.93221000  0.79300000  1.0 0.1098521157
H  H16  1  0.49958000  0.06779000  0.20700000  1.0 0.1098521157
H  H17  1  0.60959000  0.72609000  0.58957000  1.0 0.1296101231
H  H18  1  0.39041000  0.27391000  0.41043000  1.0 0.1296101231
H  H19  1  0.43365000  0.06033000  0.78087000  1.0 0.1231804265
H  H20  1  0.56635000  0.93967000  0.21913000  1.0 0.1231804265
H  H21  1  0.61750000  0.72436000  0.44777000  1.0 0.1296101231
H  H22  1  0.38250000  0.27564000  0.55223000  1.0 0.1296101231
H  H23  1  0.55028000  0.26866000  0.74655000  1.0 0.1231804265
H  H24  1  0.44972000  0.73134000  0.25345000  1.0 0.1231804265
H  H25  1  0.22705000  0.12890000  0.64388000  1.0 0.1296101231
H  H26  1  0.77295000  0.87110000  0.35612000  1.0 0.1296101231
H  H27  1  0.49995000  0.35431000  0.83604000  1.0 0.1296101231
H  H28  1  0.50005000  0.64569000  0.16396000  1.0 0.1296101231
H  H29  1  0.17547000  0.21000000  0.73601000  1.0 0.1296101231
H  H30  1  0.82453000  0.79000000  0.26399000  1.0 0.1296101231
H  H31  1  0.64219000  0.00922000  0.94128000  1.0 0.307500939
H  H32  1  0.35781000  0.99078000  0.05872000  1.0 0.307500939
C  C1  1  0.69640000  0.42500000  0.00460000  1.0 0.5998408749
C  C2  1  0.30360000  0.57500000  0.99540000  1.0 0.5998408749
C  C3  1  0.63500000  0.64690000  0.90640000  1.0 0.5998408749
C  C4  1  0.36500000  0.35310000  0.09360000  1.0 0.5998408749
C  C5  1  0.72150000  0.33710000  0.99510000  1.0 -0.0073821793
C  C6  1  0.27850000  0.66290000  0.00490000  1.0 -0.0073821793
C  C7  1  0.60800000  0.70400000  0.84030000  1.0 -0.0334041164
C  C8  1  0.39200000  0.29600000  0.15970000  1.0 -0.0334041164
C  C9  1  0.82700000  0.34060000  0.98760000  1.0 -0.0970089072
C  C10  1  0.17300000  0.65940000  0.01240000  1.0 -0.0970089072
C  C11  1  0.63910000  0.25350000  0.99590000  1.0 -0.1413755548
C  C12  1  0.36090000  0.74650000  0.00410000  1.0 -0.1413755548
C  C13  1  0.49810000  0.69050000  0.79740000  1.0 -0.0918206097
C  C14  1  0.50190000  0.30950000  0.20260000  1.0 -0.0918206097
C  C15  1  0.69750000  0.76990000  0.82160000  1.0 -0.0918206097
C  C16  1  0.30250000  0.23010000  0.17840000  1.0 -0.0918206097
C  C17  1  0.85120000  0.26150000  0.97920000  1.0 -0.0073821793
C  C18  1  0.14880000  0.73850000  0.02080000  1.0 -0.0073821793
C  C19  1  0.66340000  0.17310000  0.99010000  1.0 0.0330360933
C  C20  1  0.33660000  0.82690000  0.00990000  1.0 0.0330360933
C  C21  1  0.47420000  0.74100000  0.73720000  1.0 -0.1413755548
C  C22  1  0.52580000  0.25900000  0.26280000  1.0 -0.1484337942
C  C23  1  0.67520000  0.82140000  0.75830000  1.0 -0.1484337942
C  C24  1  0.32480000  0.17860000  0.24170000  1.0 -0.1484337942
C  C25  1  0.76820000  0.17830000  0.98080000  1.0 -0.1413755548
C  C26  1  0.23180000  0.82170000  0.01920000  1.0 -0.1413755548
C  C27  1  0.96550000  0.26440000  0.96970000  1.0 0.5613966389
C  C28  1  0.03450000  0.73560000  0.03030000  1.0 0.5613966389
C  C29  1  0.57690000  0.08320000  0.99540000  1.0 0.1556469405
C  C30  1  0.42310000  0.91680000  0.00460000  1.0 0.1556469405
C  C31  1  0.56520000  0.80840000  0.71650000  1.0 0.0869553192
C  C32  1  0.43480000  0.19160000  0.28350000  1.0 0.0869553192
C  C33  1  0.49250000  0.07760000  0.03050000  1.0 -0.1155133591
C  C34  1  0.50750000  0.92240000  0.96950000  1.0 -0.1155133591
C  C35  1  0.54320000  0.86610000  0.65000000  1.0 -0.0696743027
C  C36  1  0.45680000  0.13390000  0.35000000  1.0 -0.0696743027
C  C37  1  0.50590000  0.93670000  0.66840000  1.0 0.1414429649
C  C38  1  0.49410000  0.06330000  0.33160000  1.0 0.1414429649
C  C39  1  0.56230000  0.84340000  0.57450000  1.0 0.1414429649
C  C40  1  0.43770000  0.15660000  0.42550000  1.0 0.1414429649
C  C41  1  0.48910000  0.96120000  0.74680000  1.0 -0.1784665705
C  C42  1  0.51090000  0.03880000  0.25320000  1.0 -0.1784665705
C  C43  1  0.59490000  0.76740000  0.55480000  1.0 -0.1784665705
C  C44  1  0.40510000  0.23260000  0.44520000  1.0 -0.1784665705
C  C45  1  0.45660000  0.05750000  0.66040000  1.0 0.1546805157
C  C46  1  0.54340000  0.94250000  0.33960000  1.0 0.1556469405
C  C47  1  0.45490000  0.03210000  0.74080000  1.0 -0.1784665705
C  C48  1  0.54510000  0.96790000  0.25920000  1.0 -0.1784665705
C  C49  1  0.57440000  0.84340000  0.44820000  1.0 0.1414429649
C  C50  1  0.42560000  0.15660000  0.55180000  1.0 0.1414429649
C  C51  1  0.60010000  0.76700000  0.47750000  1.0 -0.1784665705
C  C52  1  0.39990000  0.23300000  0.52250000  1.0 -0.1784665705
C  C53  1  0.42740000  0.13240000  0.62990000  1.0 -0.0439680674
C  C54  1  0.57260000  0.86760000  0.37010000  1.0 -0.0450818845
C  C55  1  0.39470000  0.18940000  0.68780000  1.0 0.0661854922
C  C56  1  0.60530000  0.81060000  0.31220000  1.0 0.0661854922
C  C57  1  0.47350000  0.25600000  0.74380000  1.0 -0.1343206958
C  C58  1  0.52650000  0.74400000  0.25620000  1.0 -0.1343206958
C  C59  1  0.28350000  0.17350000  0.68400000  1.0 -0.1413755548
C  C60  1  0.71650000  0.82650000  0.31600000  1.0 -0.1413755548
C  C61  1  0.44320000  0.30720000  0.79830000  1.0 -0.0840794006
C  C62  1  0.55680000  0.69280000  0.20170000  1.0 -0.0840794006
C  C63  1  0.25230000  0.22270000  0.73890000  1.0 -0.0918206097
C  C64  1  0.74770000  0.77730000  0.26110000  1.0 -0.0918206097
C  C65  1  0.33380000  0.28950000  0.79720000  1.0 -0.0334041164
C  C66  1  0.66620000  0.71050000  0.20280000  1.0 -0.0334041164
C  C67  1  0.30090000  0.34060000  0.85760000  1.0 0.5943327053
C  C68  1  0.69910000  0.65940000  0.14240000  1.0 0.5943327053
N  N1  1  0.58370000  0.00640000  0.96570000  1.0 -0.1975468592
N  N2  1  0.41630000  0.99360000  0.03430000  1.0 -0.1975468592
N  N3  1  0.48600000  0.99840000  0.61620000  1.0 -0.290434231
N  N4  1  0.51400000  0.00160000  0.38380000  1.0 -0.290434231
N  N5  1  0.54970000  0.88930000  0.50800000  1.0 -0.2959783719
N  N6  1  0.45030000  0.11070000  0.49200000  1.0 -0.2959783719
O  O1  1  0.59515000  0.41763000  0.99395000  1.0 -0.5439692037
O  O2  1  0.40485000  0.58237000  0.00605000  1.0 -0.5439692037
O  O3  1  0.55710000  0.57963000  0.91350000  1.0 -0.5281279133
O  O4  1  0.44290000  0.42037000  0.08650000  1.0 -0.5281279133
O  O5  1  0.37170000  0.40923000  0.90158000  1.0 -0.5281279133
O  O6  1  0.62830000  0.59077000  0.09842000  1.0 -0.5281279133
O  O7  1  0.78180000  0.49590000  0.02266000  1.0 -0.5281279133
O  O8  1  0.21820000  0.50410000  0.97734000  1.0 -0.5281279133
O  O9  1  0.73750000  0.67520000  0.94940000  1.0 -0.5439692037
O  O10  1  0.26250000  0.32480000  0.05060000  1.0 -0.5439692037
O  O11  1  0.19890000  0.31130000  0.86211000  1.0 -0.5057173864
O  O12  1  0.80110000  0.68870000  0.13789000  1.0 -0.5057173864
O  O13  1  0.03250000  0.34120000  0.96320000  1.0 -0.5281279133
O  O14  1  0.96750000  0.65880000  0.03680000  1.0 -0.5281279133
O  O15  1  0.98790000  0.19430000  0.96870000  1.0 -0.5016167657
O  O16  1  0.01210000  0.80570000  0.03130000  1.0 -0.5016167657
