# DDEC6 charges by PACMAN v1.1 (https://github.com/mtap-research/PACMAN-charge/)
data_JIQCOE_FSR_pacman
_symmetry_space_group_name_H-M   'P 1'
_cell_length_a   15.55190000
_cell_length_b   23.17060000
_cell_length_c   20.64330000
_cell_angle_alpha   90.00000000
_cell_angle_beta   124.85400000
_cell_angle_gamma   90.00000000
_symmetry_Int_Tables_number   1
_chemical_formula_structural   Zn3H44C42N30O
_chemical_formula_sum   'Zn12 H176 C168 N120 O4'
_cell_volume   6104.31831053
_cell_formula_units_Z   4
loop_
 _symmetry_equiv_pos_site_id
 _symmetry_equiv_pos_as_xyz
  1  'x, y, z'
loop_
 _atom_site_type_symbol
 _atom_site_label
 _atom_site_symmetry_multiplicity
 _atom_site_fract_x
 _atom_site_fract_y
 _atom_site_fract_z
 _atom_site_occupancy
 _atom_site_charge
Zn  Zn1  1  0.46112000  0.82049000  0.26187000  1.0 0.7089512261
Zn  Zn2  1  0.47994000  0.67614000  0.28938000  1.0 0.7089512261
Zn  Zn3  1  0.44327000  0.96474000  0.24232000  1.0 0.7251434687
Zn  Zn4  1  0.53888000  0.32049000  0.23813000  1.0 0.7089512261
Zn  Zn5  1  0.52006000  0.17614000  0.21062000  1.0 0.7089512261
Zn  Zn6  1  0.55673000  0.46474000  0.25768000  1.0 0.7251434687
Zn  Zn7  1  0.53888000  0.17951000  0.73813000  1.0 0.7089512261
Zn  Zn8  1  0.52006000  0.32386000  0.71062000  1.0 0.7089512261
Zn  Zn9  1  0.55673000  0.03526000  0.75768000  1.0 0.7251434687
Zn  Zn10  1  0.46112000  0.67951000  0.76187000  1.0 0.7089512261
Zn  Zn11  1  0.47994000  0.82386000  0.78938000  1.0 0.7089512261
Zn  Zn12  1  0.44327000  0.53526000  0.74232000  1.0 0.7251434687
H  H1  1  0.17230000  0.72570000  0.42790000  1.0 0.1423312302
H  H2  1  0.05060000  0.73490000  0.37280000  1.0 0.1513314352
H  H3  1  0.09740000  0.68190000  0.43030000  1.0 0.1573969145
H  H4  1  0.64160000  0.66640000  0.13200000  1.0 0.1308476391
H  H5  1  0.29920000  0.70640000  0.43020000  1.0 0.1308476391
H  H6  1  0.28190000  0.86340000  0.40070000  1.0 0.1308476391
H  H7  1  0.11170000  0.63500000  0.21710000  1.0 0.1308476391
H  H8  1  0.83110000  0.81100000  0.33230000  1.0 0.1308476391
H  H9  1  0.08930000  0.79560000  0.18530000  1.0 0.1308476391
H  H10  1  0.72050000  0.66410000  0.38110000  1.0 0.1083217542
H  H11  1  0.81420000  0.96950000  0.31290000  1.0 0.1308476391
H  H12  1  0.68190000  0.95660000  0.32810000  1.0 0.1037823677
H  H13  1  0.61590000  0.83570000  0.10170000  1.0 0.1308476391
H  H14  1  0.73050000  0.85620000  0.09010000  1.0 0.1423312302
H  H15  1  0.84490000  0.88040000  0.13410000  1.0 0.1513314352
H  H16  1  0.82090000  0.81680000  0.10270000  1.0 0.1573969145
H  H17  1  0.22760000  0.79080000  0.17520000  1.0 0.1037823677
H  H18  1  0.41560000  0.85500000  0.38470000  1.0 0.1037823677
H  H19  1  0.59890000  0.99890000  0.08330000  1.0 0.1308476391
H  H20  1  0.75890000  0.69060000  0.12410000  1.0 0.1423312302
H  H21  1  0.87500000  0.71230000  0.16970000  1.0 0.1573969145
H  H22  1  0.84660000  0.64930000  0.13590000  1.0 0.1573969145
H  H23  1  0.26750000  0.03020000  0.37610000  1.0 0.1308476391
H  H24  1  0.85400000  0.65720000  0.36540000  1.0 0.1308476391
H  H25  1  0.15250000  0.04250000  0.38830000  1.0 0.1513314352
H  H26  1  0.03500000  0.06220000  0.33760000  1.0 0.1513314352
H  H27  1  0.06640000  0.00310000  0.38250000  1.0 0.1513314352
H  H28  1  0.47170000  0.98400000  0.10510000  1.0 0.0949148598
H  H29  1  0.24760000  0.63890000  0.20360000  1.0 0.1037823677
H  H30  1  0.43000000  0.70760000  0.41030000  1.0 0.1037823677
H  H31  1  0.49050000  0.83110000  0.12630000  1.0 0.1083217542
H  H32  1  0.07010000  0.95500000  0.16800000  1.0 0.1308476391
H  H33  1  0.51430000  0.67220000  0.15450000  1.0 0.1037823677
H  H34  1  0.69940000  0.80750000  0.34950000  1.0 0.1037823677
H  H35  1  0.20830000  0.93990000  0.15900000  1.0 0.1037823677
H  H36  1  0.16440000  0.88140000  0.40410000  1.0 0.1423312302
H  H37  1  0.04510000  0.89780000  0.35210000  1.0 0.1513314352
H  H38  1  0.08210000  0.84050000  0.40140000  1.0 0.1573969145
H  H39  1  0.39950000  0.01320000  0.36040000  1.0 0.1083217542
H  H40  1  0.70780000  0.02540000  0.07190000  1.0 0.1423312302
H  H41  1  0.82040000  0.05220000  0.11620000  1.0 0.1573969145
H  H42  1  0.80000000  0.98960000  0.08160000  1.0 0.1513314352
H  H43  1  0.30370000  0.00330000  0.10340000  1.0 0.3247383224
H  H44  1  0.39160000  0.03810000  0.13240000  1.0 0.3320241931
H  H45  1  0.82770000  0.22570000  0.07210000  1.0 0.1423312302
H  H46  1  0.94940000  0.23490000  0.12720000  1.0 0.1513314352
H  H47  1  0.90260000  0.18190000  0.06970000  1.0 0.1573969145
H  H48  1  0.35840000  0.16640000  0.36800000  1.0 0.1308476391
H  H49  1  0.70080000  0.20640000  0.06980000  1.0 0.1308476391
H  H50  1  0.71810000  0.36340000  0.09930000  1.0 0.1308476391
H  H51  1  0.88830000  0.13500000  0.28290000  1.0 0.1308476391
H  H52  1  0.16890000  0.31100000  0.16770000  1.0 0.1308476391
H  H53  1  0.91070000  0.29560000  0.31470000  1.0 0.1308476391
H  H54  1  0.27950000  0.16410000  0.11890000  1.0 0.1083217542
H  H55  1  0.18580000  0.46950000  0.18710000  1.0 0.1308476391
H  H56  1  0.31810000  0.45660000  0.17190000  1.0 0.1037823677
H  H57  1  0.38410000  0.33570000  0.39830000  1.0 0.1308476391
H  H58  1  0.26950000  0.35620000  0.40990000  1.0 0.1423312302
H  H59  1  0.15510000  0.38040000  0.36590000  1.0 0.1513314352
H  H60  1  0.17910000  0.31680000  0.39730000  1.0 0.1573969145
H  H61  1  0.77240000  0.29080000  0.32480000  1.0 0.1037823677
H  H62  1  0.58440000  0.35500000  0.11530000  1.0 0.1037823677
H  H63  1  0.40110000  0.49890000  0.41670000  1.0 0.1308476391
H  H64  1  0.24110000  0.19060000  0.37590000  1.0 0.1423312302
H  H65  1  0.12500000  0.21230000  0.33030000  1.0 0.1573969145
H  H66  1  0.15340000  0.14930000  0.36410000  1.0 0.1573969145
H  H67  1  0.73250000  0.53020000  0.12390000  1.0 0.1308476391
H  H68  1  0.14600000  0.15720000  0.13460000  1.0 0.1308476391
H  H69  1  0.84750000  0.54250000  0.11170000  1.0 0.1513314352
H  H70  1  0.96500000  0.56220000  0.16240000  1.0 0.1513314352
H  H71  1  0.93360000  0.50310000  0.11750000  1.0 0.1513314352
H  H72  1  0.52830000  0.48400000  0.39490000  1.0 0.0949148598
H  H73  1  0.75240000  0.13890000  0.29640000  1.0 0.1037823677
H  H74  1  0.57000000  0.20760000  0.08970000  1.0 0.1037823677
H  H75  1  0.50950000  0.33110000  0.37370000  1.0 0.1037823677
H  H76  1  0.92990000  0.45500000  0.33200000  1.0 0.1308476391
H  H77  1  0.48570000  0.17220000  0.34550000  1.0 0.1037823677
H  H78  1  0.30060000  0.30750000  0.15050000  1.0 0.1037823677
H  H79  1  0.79170000  0.43990000  0.34100000  1.0 0.1037823677
H  H80  1  0.83560000  0.38140000  0.09590000  1.0 0.1423312302
H  H81  1  0.95490000  0.39780000  0.14790000  1.0 0.1513314352
H  H82  1  0.91790000  0.34050000  0.09860000  1.0 0.1573969145
H  H83  1  0.60050000  0.51320000  0.13960000  1.0 0.1083217542
H  H84  1  0.29220000  0.52540000  0.42810000  1.0 0.1423312302
H  H85  1  0.17960000  0.55220000  0.38380000  1.0 0.1573969145
H  H86  1  0.20000000  0.48960000  0.41840000  1.0 0.1513314352
H  H87  1  0.69630000  0.50330000  0.39660000  1.0 0.3247383224
H  H88  1  0.60840000  0.53810000  0.36760000  1.0 0.3320241931
H  H89  1  0.82770000  0.27430000  0.57210000  1.0 0.1423312302
H  H90  1  0.94940000  0.26510000  0.62720000  1.0 0.1513314352
H  H91  1  0.90260000  0.31810000  0.56970000  1.0 0.1573969145
H  H92  1  0.35840000  0.33360000  0.86800000  1.0 0.1308476391
H  H93  1  0.70080000  0.29360000  0.56980000  1.0 0.1308476391
H  H94  1  0.71810000  0.13660000  0.59930000  1.0 0.1308476391
H  H95  1  0.88830000  0.36500000  0.78290000  1.0 0.1308476391
H  H96  1  0.16890000  0.18900000  0.66770000  1.0 0.1308476391
H  H97  1  0.91070000  0.20440000  0.81470000  1.0 0.1308476391
H  H98  1  0.27950000  0.33590000  0.61890000  1.0 0.1083217542
H  H99  1  0.18580000  0.03050000  0.68710000  1.0 0.1308476391
H  H100  1  0.31810000  0.04340000  0.67190000  1.0 0.1037823677
H  H101  1  0.38410000  0.16430000  0.89830000  1.0 0.1308476391
H  H102  1  0.26950000  0.14380000  0.90990000  1.0 0.1423312302
H  H103  1  0.15510000  0.11960000  0.86590000  1.0 0.1513314352
H  H104  1  0.17910000  0.18320000  0.89730000  1.0 0.1573969145
H  H105  1  0.77240000  0.20920000  0.82480000  1.0 0.1037823677
H  H106  1  0.58440000  0.14500000  0.61530000  1.0 0.1037823677
H  H107  1  0.40110000  0.00110000  0.91670000  1.0 0.1308476391
H  H108  1  0.24110000  0.30940000  0.87590000  1.0 0.1423312302
H  H109  1  0.12500000  0.28770000  0.83030000  1.0 0.1573969145
H  H110  1  0.15340000  0.35070000  0.86410000  1.0 0.1573969145
H  H111  1  0.73250000  0.96980000  0.62390000  1.0 0.1308476391
H  H112  1  0.14600000  0.34280000  0.63460000  1.0 0.1308476391
H  H113  1  0.84750000  0.95750000  0.61170000  1.0 0.1513314352
H  H114  1  0.96500000  0.93780000  0.66240000  1.0 0.1513314352
H  H115  1  0.93360000  0.99690000  0.61750000  1.0 0.1513314352
H  H116  1  0.52830000  0.01600000  0.89490000  1.0 0.0949148598
H  H117  1  0.75240000  0.36110000  0.79640000  1.0 0.1037823677
H  H118  1  0.57000000  0.29240000  0.58970000  1.0 0.1037823677
H  H119  1  0.50950000  0.16890000  0.87370000  1.0 0.1083217542
H  H120  1  0.92990000  0.04500000  0.83200000  1.0 0.1308476391
H  H121  1  0.48570000  0.32780000  0.84550000  1.0 0.1037823677
H  H122  1  0.30060000  0.19250000  0.65050000  1.0 0.1037823677
H  H123  1  0.79170000  0.06010000  0.84100000  1.0 0.1037823677
H  H124  1  0.83560000  0.11860000  0.59590000  1.0 0.1423312302
H  H125  1  0.95490000  0.10220000  0.64790000  1.0 0.1513314352
H  H126  1  0.91790000  0.15950000  0.59860000  1.0 0.1573969145
H  H127  1  0.60050000  0.98680000  0.63960000  1.0 0.1083217542
H  H128  1  0.29220000  0.97460000  0.92810000  1.0 0.1423312302
H  H129  1  0.17960000  0.94780000  0.88380000  1.0 0.1573969145
H  H130  1  0.20000000  0.01040000  0.91840000  1.0 0.1513314352
H  H131  1  0.69630000  0.99670000  0.89660000  1.0 0.3247383224
H  H132  1  0.60840000  0.96190000  0.86760000  1.0 0.3320241931
H  H133  1  0.17230000  0.77430000  0.92790000  1.0 0.1423312302
H  H134  1  0.05060000  0.76510000  0.87280000  1.0 0.1513314352
H  H135  1  0.09740000  0.81810000  0.93030000  1.0 0.1573969145
H  H136  1  0.64160000  0.83360000  0.63200000  1.0 0.1308476391
H  H137  1  0.29920000  0.79360000  0.93020000  1.0 0.1308476391
H  H138  1  0.28190000  0.63660000  0.90070000  1.0 0.1308476391
H  H139  1  0.11170000  0.86500000  0.71710000  1.0 0.1308476391
H  H140  1  0.83110000  0.68900000  0.83230000  1.0 0.1308476391
H  H141  1  0.08930000  0.70440000  0.68530000  1.0 0.1308476391
H  H142  1  0.72050000  0.83590000  0.88110000  1.0 0.1083217542
H  H143  1  0.81420000  0.53050000  0.81290000  1.0 0.1308476391
H  H144  1  0.68190000  0.54340000  0.82810000  1.0 0.1037823677
H  H145  1  0.61590000  0.66430000  0.60170000  1.0 0.1308476391
H  H146  1  0.73050000  0.64380000  0.59010000  1.0 0.1423312302
H  H147  1  0.84490000  0.61960000  0.63410000  1.0 0.1513314352
H  H148  1  0.82090000  0.68320000  0.60270000  1.0 0.1573969145
H  H149  1  0.22760000  0.70920000  0.67520000  1.0 0.1037823677
H  H150  1  0.41560000  0.64500000  0.88470000  1.0 0.1037823677
H  H151  1  0.59890000  0.50110000  0.58330000  1.0 0.1308476391
H  H152  1  0.75890000  0.80940000  0.62410000  1.0 0.1423312302
H  H153  1  0.87500000  0.78770000  0.66970000  1.0 0.1573969145
H  H154  1  0.84660000  0.85070000  0.63590000  1.0 0.1573969145
H  H155  1  0.26750000  0.46980000  0.87610000  1.0 0.1308476391
H  H156  1  0.85400000  0.84280000  0.86540000  1.0 0.1308476391
H  H157  1  0.15250000  0.45750000  0.88830000  1.0 0.1513314352
H  H158  1  0.03500000  0.43780000  0.83760000  1.0 0.1513314352
H  H159  1  0.06640000  0.49690000  0.88250000  1.0 0.1513314352
H  H160  1  0.47170000  0.51600000  0.60510000  1.0 0.0949148598
H  H161  1  0.24760000  0.86110000  0.70360000  1.0 0.1037823677
H  H162  1  0.43000000  0.79240000  0.91030000  1.0 0.1037823677
H  H163  1  0.49050000  0.66890000  0.62630000  1.0 0.1083217542
H  H164  1  0.07010000  0.54500000  0.66800000  1.0 0.1308476391
H  H165  1  0.51430000  0.82780000  0.65450000  1.0 0.1037823677
H  H166  1  0.69940000  0.69250000  0.84950000  1.0 0.1037823677
H  H167  1  0.20830000  0.56010000  0.65900000  1.0 0.1037823677
H  H168  1  0.16440000  0.61860000  0.90410000  1.0 0.1423312302
H  H169  1  0.04510000  0.60220000  0.85210000  1.0 0.1513314352
H  H170  1  0.08210000  0.65950000  0.90140000  1.0 0.1573969145
H  H171  1  0.39950000  0.48680000  0.86040000  1.0 0.1083217542
H  H172  1  0.70780000  0.47460000  0.57190000  1.0 0.1423312302
H  H173  1  0.82040000  0.44780000  0.61620000  1.0 0.1573969145
H  H174  1  0.80000000  0.51040000  0.58160000  1.0 0.1513314352
H  H175  1  0.30370000  0.49670000  0.60340000  1.0 0.3247383224
H  H176  1  0.39160000  0.46190000  0.63240000  1.0 0.3320241931
C  C1  1  0.10050000  0.67135000  0.33420000  1.0 0.2610510004
C  C2  1  0.16910000  0.83033000  0.29450000  1.0 0.0707478196
C  C3  1  0.18870000  0.67101000  0.32540000  1.0 0.0707478196
C  C4  1  0.06510000  0.00017000  0.28380000  1.0 0.2534812378
C  C5  1  0.10570000  0.70660000  0.39690000  1.0 -0.5100644218
C  C6  1  0.66010000  0.66560000  0.18360000  1.0 -0.1774218008
C  C7  1  0.28610000  0.69244000  0.38310000  1.0 -0.1695404638
C  C8  1  0.26880000  0.84830000  0.35420000  1.0 -0.1774218008
C  C9  1  0.17570000  0.65040000  0.25750000  1.0 -0.1695404638
C  C10  1  0.76490000  0.66044000  0.24650000  1.0 0.0707478196
C  C11  1  0.76210000  0.81527000  0.28890000  1.0 -0.1695404638
C  C12  1  0.72290000  0.98617000  0.19520000  1.0 0.0707478196
C  C13  1  0.15500000  0.80839000  0.22680000  1.0 -0.1695404638
C  C14  1  0.15280000  0.99371000  0.27480000  1.0 0.0707478196
C  C15  1  0.82580000  0.82654000  0.20230000  1.0 0.2610510004
C  C16  1  0.74030000  0.82348000  0.21430000  1.0 0.0707478196
C  C17  1  0.80650000  0.99335000  0.18240000  1.0 0.2610510004
C  C18  1  0.70450000  0.66470000  0.33030000  1.0 0.0781674949
C  C19  1  0.74500000  0.97299000  0.26940000  1.0 -0.1695404638
C  C20  1  0.66490000  0.96522000  0.27800000  1.0 0.0781674949
C  C21  1  0.85060000  0.65866000  0.23510000  1.0 0.2534812378
C  C22  1  0.63540000  0.82982000  0.15300000  1.0 -0.1695404638
C  C23  1  0.80350000  0.84680000  0.12540000  1.0 -0.5100644218
C  C24  1  0.23890000  0.80556000  0.22140000  1.0 0.0781674949
C  C25  1  0.08080000  0.83487000  0.30290000  1.0 0.2534812378
C  C26  1  0.34870000  0.84331000  0.34370000  1.0 0.0781674949
C  C27  1  0.61820000  0.99021000  0.13400000  1.0 -0.1570976016
C  C28  1  0.83110000  0.67960000  0.15950000  1.0 -0.5100644218
C  C29  1  0.25280000  0.01130000  0.33100000  1.0 -0.1774218008
C  C30  1  0.78520000  0.66030000  0.32110000  1.0 -0.1695404638
C  C31  1  0.08120000  0.02960000  0.35440000  1.0 -0.4984224972
C  C32  1  0.54160000  0.98139000  0.14750000  1.0 0.0597887325
C  C33  1  0.25810000  0.65290000  0.24990000  1.0 0.0781674949
C  C34  1  0.36480000  0.69304000  0.37060000  1.0 0.0781674949
C  C35  1  0.56030000  0.82731000  0.16850000  1.0 0.0781674949
C  C36  1  0.13680000  0.96710000  0.20870000  1.0 -0.1695404638
C  C37  1  0.58380000  0.66951000  0.19770000  1.0 0.0781674949
C  C38  1  0.68240000  0.81350000  0.29890000  1.0 0.0707478196
C  C39  1  0.22070000  0.95850000  0.20360000  1.0 0.0707478196
C  C40  1  0.09430000  0.86640000  0.37120000  1.0 -0.4984224972
C  C41  1  0.33220000  0.00110000  0.32100000  1.0 0.0781674949
C  C42  1  0.78140000  0.01730000  0.10620000  1.0 -0.5100644218
C  C43  1  0.89950000  0.17135000  0.16580000  1.0 0.2610510004
C  C44  1  0.83090000  0.33033000  0.20550000  1.0 0.0707478196
C  C45  1  0.81130000  0.17101000  0.17460000  1.0 0.0707478196
C  C46  1  0.93490000  0.50017000  0.21620000  1.0 0.2534812378
C  C47  1  0.89430000  0.20660000  0.10310000  1.0 -0.5100644218
C  C48  1  0.33990000  0.16560000  0.31640000  1.0 -0.1774218008
C  C49  1  0.71390000  0.19244000  0.11690000  1.0 -0.1695404638
C  C50  1  0.73120000  0.34830000  0.14580000  1.0 -0.1774218008
C  C51  1  0.82430000  0.15040000  0.24250000  1.0 -0.1695404638
C  C52  1  0.23510000  0.16044000  0.25350000  1.0 0.0707478196
C  C53  1  0.23790000  0.31527000  0.21110000  1.0 -0.1695404638
C  C54  1  0.27710000  0.48617000  0.30480000  1.0 0.0707478196
C  C55  1  0.84500000  0.30839000  0.27320000  1.0 -0.1695404638
C  C56  1  0.84720000  0.49371000  0.22520000  1.0 0.0707478196
C  C57  1  0.17420000  0.32654000  0.29770000  1.0 0.2610510004
C  C58  1  0.25970000  0.32348000  0.28570000  1.0 0.0707478196
C  C59  1  0.19350000  0.49335000  0.31760000  1.0 0.2610510004
C  C60  1  0.29550000  0.16470000  0.16970000  1.0 0.0781674949
C  C61  1  0.25500000  0.47299000  0.23060000  1.0 -0.1695404638
C  C62  1  0.33510000  0.46522000  0.22200000  1.0 0.0781674949
C  C63  1  0.14940000  0.15866000  0.26490000  1.0 0.2534812378
C  C64  1  0.36460000  0.32982000  0.34700000  1.0 -0.1695404638
C  C65  1  0.19650000  0.34680000  0.37460000  1.0 -0.5100644218
C  C66  1  0.76110000  0.30556000  0.27860000  1.0 0.0781674949
C  C67  1  0.91920000  0.33487000  0.19710000  1.0 0.2534812378
C  C68  1  0.65130000  0.34331000  0.15630000  1.0 0.0781674949
C  C69  1  0.38180000  0.49021000  0.36600000  1.0 -0.1570976016
C  C70  1  0.16890000  0.17960000  0.34050000  1.0 -0.5100644218
C  C71  1  0.74720000  0.51130000  0.16900000  1.0 -0.1774218008
C  C72  1  0.21480000  0.16030000  0.17890000  1.0 -0.1695404638
C  C73  1  0.91880000  0.52960000  0.14560000  1.0 -0.4984224972
C  C74  1  0.45840000  0.48139000  0.35250000  1.0 0.0597887325
C  C75  1  0.74190000  0.15290000  0.25010000  1.0 0.0781674949
C  C76  1  0.63520000  0.19304000  0.12940000  1.0 0.0781674949
C  C77  1  0.43970000  0.32731000  0.33150000  1.0 0.0781674949
C  C78  1  0.86320000  0.46710000  0.29130000  1.0 -0.1695404638
C  C79  1  0.41620000  0.16951000  0.30230000  1.0 0.0781674949
C  C80  1  0.31760000  0.31350000  0.20110000  1.0 0.0707478196
C  C81  1  0.77930000  0.45850000  0.29640000  1.0 0.0707478196
C  C82  1  0.90570000  0.36640000  0.12880000  1.0 -0.4984224972
C  C83  1  0.66780000  0.50110000  0.17900000  1.0 0.0781674949
C  C84  1  0.21860000  0.51730000  0.39380000  1.0 -0.5100644218
C  C85  1  0.89950000  0.32865000  0.66580000  1.0 0.2610510004
C  C86  1  0.83090000  0.16967000  0.70550000  1.0 0.0707478196
C  C87  1  0.81130000  0.32899000  0.67460000  1.0 0.0707478196
C  C88  1  0.93490000  0.99983000  0.71620000  1.0 0.2534812378
C  C89  1  0.89430000  0.29340000  0.60310000  1.0 -0.5100644218
C  C90  1  0.33990000  0.33440000  0.81640000  1.0 -0.1774218008
C  C91  1  0.71390000  0.30756000  0.61690000  1.0 -0.1695404638
C  C92  1  0.73120000  0.15170000  0.64580000  1.0 -0.1774218008
C  C93  1  0.82430000  0.34960000  0.74250000  1.0 -0.1695404638
C  C94  1  0.23510000  0.33956000  0.75350000  1.0 0.0707478196
C  C95  1  0.23790000  0.18473000  0.71110000  1.0 -0.1695404638
C  C96  1  0.27710000  0.01383000  0.80480000  1.0 0.0707478196
C  C97  1  0.84500000  0.19161000  0.77320000  1.0 -0.1695404638
C  C98  1  0.84720000  0.00629000  0.72520000  1.0 0.0707478196
C  C99  1  0.17420000  0.17346000  0.79770000  1.0 0.2610510004
C  C100  1  0.25970000  0.17652000  0.78570000  1.0 0.0707478196
C  C101  1  0.19350000  0.00665000  0.81760000  1.0 0.2610510004
C  C102  1  0.29550000  0.33530000  0.66970000  1.0 0.0781674949
C  C103  1  0.25500000  0.02701000  0.73060000  1.0 -0.1695404638
C  C104  1  0.33510000  0.03478000  0.72200000  1.0 0.0781674949
C  C105  1  0.14940000  0.34134000  0.76490000  1.0 0.2534812378
C  C106  1  0.36460000  0.17018000  0.84700000  1.0 -0.1695404638
C  C107  1  0.19650000  0.15320000  0.87460000  1.0 -0.5100644218
C  C108  1  0.76110000  0.19444000  0.77860000  1.0 0.0781674949
C  C109  1  0.91920000  0.16513000  0.69710000  1.0 0.2534812378
C  C110  1  0.65130000  0.15669000  0.65630000  1.0 0.0781674949
C  C111  1  0.38180000  0.00979000  0.86600000  1.0 -0.1570976016
C  C112  1  0.16890000  0.32040000  0.84050000  1.0 -0.5100644218
C  C113  1  0.74720000  0.98870000  0.66900000  1.0 -0.1774218008
C  C114  1  0.21480000  0.33970000  0.67890000  1.0 -0.1695404638
C  C115  1  0.91880000  0.97040000  0.64560000  1.0 -0.4984224972
C  C116  1  0.45840000  0.01861000  0.85250000  1.0 0.0597887325
C  C117  1  0.74190000  0.34710000  0.75010000  1.0 0.0781674949
C  C118  1  0.63520000  0.30696000  0.62940000  1.0 0.0781674949
C  C119  1  0.43970000  0.17269000  0.83150000  1.0 0.0781674949
C  C120  1  0.86320000  0.03290000  0.79130000  1.0 -0.1695404638
C  C121  1  0.41620000  0.33049000  0.80230000  1.0 0.0781674949
C  C122  1  0.31760000  0.18650000  0.70110000  1.0 0.0707478196
C  C123  1  0.77930000  0.04150000  0.79640000  1.0 0.0781674949
C  C124  1  0.90570000  0.13360000  0.62880000  1.0 -0.4984224972
C  C125  1  0.66780000  0.99890000  0.67900000  1.0 0.0781674949
C  C126  1  0.21860000  0.98270000  0.89380000  1.0 -0.5100644218
C  C127  1  0.10050000  0.82865000  0.83420000  1.0 0.2610510004
C  C128  1  0.16910000  0.66967000  0.79450000  1.0 0.0707478196
C  C129  1  0.18870000  0.82899000  0.82540000  1.0 0.0707478196
C  C130  1  0.06510000  0.49983000  0.78380000  1.0 0.2534812378
C  C131  1  0.10570000  0.79340000  0.89690000  1.0 -0.5100644218
C  C132  1  0.66010000  0.83440000  0.68360000  1.0 -0.1774218008
C  C133  1  0.28610000  0.80756000  0.88310000  1.0 -0.1695404638
C  C134  1  0.26880000  0.65170000  0.85420000  1.0 -0.1774218008
C  C135  1  0.17570000  0.84960000  0.75750000  1.0 -0.1695404638
C  C136  1  0.76490000  0.83956000  0.74650000  1.0 0.0707478196
C  C137  1  0.76210000  0.68473000  0.78890000  1.0 -0.1695404638
C  C138  1  0.72290000  0.51383000  0.69520000  1.0 0.0707478196
C  C139  1  0.15500000  0.69161000  0.72680000  1.0 -0.1695404638
C  C140  1  0.15280000  0.50629000  0.77480000  1.0 0.0707478196
C  C141  1  0.82580000  0.67346000  0.70230000  1.0 0.2610510004
C  C142  1  0.74030000  0.67652000  0.71430000  1.0 0.0707478196
C  C143  1  0.80650000  0.50665000  0.68240000  1.0 0.2610510004
C  C144  1  0.70450000  0.83530000  0.83030000  1.0 0.0781674949
C  C145  1  0.74500000  0.52701000  0.76940000  1.0 -0.1695404638
C  C146  1  0.66490000  0.53478000  0.77800000  1.0 0.0781674949
C  C147  1  0.85060000  0.84134000  0.73510000  1.0 0.2534812378
C  C148  1  0.63540000  0.67018000  0.65300000  1.0 -0.1695404638
C  C149  1  0.80350000  0.65320000  0.62540000  1.0 -0.5100644218
C  C150  1  0.23890000  0.69444000  0.72140000  1.0 0.0781674949
C  C151  1  0.08080000  0.66513000  0.80290000  1.0 0.2534812378
C  C152  1  0.34870000  0.65669000  0.84370000  1.0 0.0781674949
C  C153  1  0.61820000  0.50979000  0.63400000  1.0 -0.1570976016
C  C154  1  0.83110000  0.82040000  0.65950000  1.0 -0.5100644218
C  C155  1  0.25280000  0.48870000  0.83100000  1.0 -0.1774218008
C  C156  1  0.78520000  0.83970000  0.82110000  1.0 -0.1695404638
C  C157  1  0.08120000  0.47040000  0.85440000  1.0 -0.4984224972
C  C158  1  0.54160000  0.51861000  0.64750000  1.0 0.0597887325
C  C159  1  0.25810000  0.84710000  0.74990000  1.0 0.0781674949
C  C160  1  0.36480000  0.80696000  0.87060000  1.0 0.0781674949
C  C161  1  0.56030000  0.67269000  0.66850000  1.0 0.0781674949
C  C162  1  0.13680000  0.53290000  0.70870000  1.0 -0.1695404638
C  C163  1  0.58380000  0.83049000  0.69770000  1.0 0.0781674949
C  C164  1  0.68240000  0.68650000  0.79890000  1.0 0.0707478196
C  C165  1  0.22070000  0.54150000  0.70360000  1.0 0.0707478196
C  C166  1  0.09430000  0.63360000  0.87120000  1.0 -0.4984224972
C  C167  1  0.33220000  0.49890000  0.82100000  1.0 0.0781674949
C  C168  1  0.78140000  0.48270000  0.60620000  1.0 -0.5100644218
N  N1  1  0.59730000  0.90717000  0.39800000  1.0 0.4172281983
N  N2  1  0.31590000  0.88625000  0.10580000  1.0 0.4109607401
N  N3  1  0.93900000  0.64088000  0.29400000  1.0 -0.2187644125
N  N4  1  0.58120000  0.81985000  0.23950000  1.0 -0.2279586494
N  N5  1  0.37710000  0.88790000  0.17240000  1.0 -0.5100644218
N  N6  1  0.56380000  0.96933000  0.21860000  1.0 -0.2415599761
N  N7  1  0.99500000  0.81004000  0.24860000  1.0 -0.2187644125
N  N8  1  0.52680000  0.89878000  0.33290000  1.0 -0.5243232858
N  N9  1  0.35200000  0.67410000  0.30530000  1.0 -0.2187644125
N  N10  1  0.35380000  0.73282000  0.12430000  1.0 0.4172281983
N  N11  1  0.56470000  0.07184000  0.31230000  1.0 0.4377308997
N  N12  1  0.54410000  0.75664000  0.35370000  1.0 -0.5243232858
N  N13  1  0.39430000  0.74272000  0.19230000  1.0 -0.5329736856
N  N14  1  0.55400000  0.60851000  0.43390000  1.0 0.4109607401
N  N15  1  0.60390000  0.66971000  0.26950000  1.0 -0.2187644125
N  N16  1  0.02050000  0.64104000  0.28380000  1.0 -0.2187644125
N  N17  1  0.89850000  0.97813000  0.24070000  1.0 -0.2279586494
N  N18  1  0.33520000  0.82276000  0.27820000  1.0 -0.2279586494
N  N19  1  0.97680000  0.97829000  0.22760000  1.0 -0.2187644125
N  N20  1  0.31770000  0.97516000  0.25860000  1.0 -0.2187644125
N  N21  1  0.91580000  0.81098000  0.26100000  1.0 -0.2187644125
N  N22  1  0.56920000  0.62032000  0.38520000  1.0 -0.5100644218
N  N23  1  0.58500000  0.76196000  0.42200000  1.0 0.4172281983
N  N24  1  0.52920000  0.03325000  0.32700000  1.0 -0.459493385
N  N25  1  0.31570000  0.72200000  0.05840000  1.0 -0.3733721654
N  N26  1  0.66980000  0.91520000  0.46250000  1.0 -0.3786920604
N  N27  1  0.62500000  0.76700000  0.48950000  1.0 -0.3469113943
N  N28  1  0.25490000  0.88510000  0.03960000  1.0 -0.3341049266
N  N29  1  0.60360000  0.10946000  0.30060000  1.0 -0.4398701725
N  N30  1  0.54010000  0.59620000  0.48160000  1.0 -0.3786920604
N  N31  1  0.40270000  0.40717000  0.10200000  1.0 0.4172281983
N  N32  1  0.68410000  0.38625000  0.39420000  1.0 0.4109607401
N  N33  1  0.06100000  0.14088000  0.20600000  1.0 -0.2187644125
N  N34  1  0.41880000  0.31985000  0.26050000  1.0 -0.2279586494
N  N35  1  0.62290000  0.38790000  0.32760000  1.0 -0.5100644218
N  N36  1  0.43620000  0.46933000  0.28140000  1.0 -0.2415599761
N  N37  1  0.00500000  0.31004000  0.25140000  1.0 -0.2187644125
N  N38  1  0.47320000  0.39878000  0.16710000  1.0 -0.5243232858
N  N39  1  0.64800000  0.17410000  0.19470000  1.0 -0.2187644125
N  N40  1  0.64620000  0.23282000  0.37570000  1.0 0.4172281983
N  N41  1  0.43530000  0.57184000  0.18770000  1.0 0.4377308997
N  N42  1  0.45590000  0.25664000  0.14630000  1.0 -0.5243232858
N  N43  1  0.60570000  0.24272000  0.30770000  1.0 -0.5329736856
N  N44  1  0.44600000  0.10851000  0.06610000  1.0 0.4109607401
N  N45  1  0.39610000  0.16971000  0.23050000  1.0 -0.2187644125
N  N46  1  0.97950000  0.14104000  0.21620000  1.0 -0.2187644125
N  N47  1  0.10150000  0.47813000  0.25930000  1.0 -0.2279586494
N  N48  1  0.66480000  0.32276000  0.22180000  1.0 -0.2279586494
N  N49  1  0.02320000  0.47829000  0.27240000  1.0 -0.2187644125
N  N50  1  0.68230000  0.47516000  0.24140000  1.0 -0.2187644125
N  N51  1  0.08420000  0.31098000  0.23900000  1.0 -0.2187644125
N  N52  1  0.43080000  0.12032000  0.11480000  1.0 -0.5100644218
N  N53  1  0.41500000  0.26196000  0.07800000  1.0 0.4172281983
N  N54  1  0.47080000  0.53325000  0.17300000  1.0 -0.459493385
N  N55  1  0.68430000  0.22200000  0.44160000  1.0 -0.3733721654
N  N56  1  0.33020000  0.41520000  0.03750000  1.0 -0.3733721654
N  N57  1  0.37500000  0.26700000  0.01050000  1.0 -0.3469113943
N  N58  1  0.74510000  0.38510000  0.46040000  1.0 -0.3341049266
N  N59  1  0.39640000  0.60946000  0.19940000  1.0 -0.4398701725
N  N60  1  0.45990000  0.09620000  0.01840000  1.0 -0.3786920604
N  N61  1  0.40270000  0.09283000  0.60200000  1.0 0.4172281983
N  N62  1  0.68410000  0.11375000  0.89420000  1.0 0.4109607401
N  N63  1  0.06100000  0.35912000  0.70600000  1.0 -0.2187644125
N  N64  1  0.41880000  0.18015000  0.76050000  1.0 -0.2279586494
N  N65  1  0.62290000  0.11210000  0.82760000  1.0 -0.5100644218
N  N66  1  0.43620000  0.03067000  0.78140000  1.0 -0.2415599761
N  N67  1  0.00500000  0.18996000  0.75140000  1.0 -0.2187644125
N  N68  1  0.47320000  0.10122000  0.66710000  1.0 -0.5243232858
N  N69  1  0.64800000  0.32590000  0.69470000  1.0 -0.2187644125
N  N70  1  0.64620000  0.26718000  0.87570000  1.0 0.4172281983
N  N71  1  0.43530000  0.92816000  0.68770000  1.0 0.4377308997
N  N72  1  0.45590000  0.24336000  0.64630000  1.0 -0.5243232858
N  N73  1  0.60570000  0.25728000  0.80770000  1.0 -0.5329736856
N  N74  1  0.44600000  0.39149000  0.56610000  1.0 0.4109607401
N  N75  1  0.39610000  0.33029000  0.73050000  1.0 -0.2187644125
N  N76  1  0.97950000  0.35896000  0.71620000  1.0 -0.2187644125
N  N77  1  0.10150000  0.02187000  0.75930000  1.0 -0.2279586494
N  N78  1  0.66480000  0.17724000  0.72180000  1.0 -0.2279586494
N  N79  1  0.02320000  0.02171000  0.77240000  1.0 -0.2187644125
N  N80  1  0.68230000  0.02484000  0.74140000  1.0 -0.2187644125
N  N81  1  0.08420000  0.18902000  0.73900000  1.0 -0.2187644125
N  N82  1  0.43080000  0.37968000  0.61480000  1.0 -0.5100644218
N  N83  1  0.41500000  0.23804000  0.57800000  1.0 0.4172281983
N  N84  1  0.47080000  0.96675000  0.67300000  1.0 -0.459493385
N  N85  1  0.68430000  0.27800000  0.94160000  1.0 -0.3733721654
N  N86  1  0.33020000  0.08480000  0.53750000  1.0 -0.3733721654
N  N87  1  0.37500000  0.23300000  0.51050000  1.0 -0.3469113943
N  N88  1  0.74510000  0.11490000  0.96040000  1.0 -0.3341049266
N  N89  1  0.39640000  0.89054000  0.69940000  1.0 -0.4398701725
N  N90  1  0.45990000  0.40380000  0.51840000  1.0 -0.3786920604
N  N91  1  0.59730000  0.59283000  0.89800000  1.0 0.4172281983
N  N92  1  0.31590000  0.61375000  0.60580000  1.0 0.4109607401
N  N93  1  0.93900000  0.85912000  0.79400000  1.0 -0.2187644125
N  N94  1  0.58120000  0.68015000  0.73950000  1.0 -0.2279586494
N  N95  1  0.37710000  0.61210000  0.67240000  1.0 -0.5100644218
N  N96  1  0.56380000  0.53067000  0.71860000  1.0 -0.2415599761
N  N97  1  0.99500000  0.68996000  0.74860000  1.0 -0.2187644125
N  N98  1  0.52680000  0.60122000  0.83290000  1.0 -0.5243232858
N  N99  1  0.35200000  0.82590000  0.80530000  1.0 -0.2187644125
N  N100  1  0.35380000  0.76718000  0.62430000  1.0 0.4172281983
N  N101  1  0.56470000  0.42816000  0.81230000  1.0 0.4377308997
N  N102  1  0.54410000  0.74336000  0.85370000  1.0 -0.5243232858
N  N103  1  0.39430000  0.75728000  0.69230000  1.0 -0.5329736856
N  N104  1  0.55400000  0.89149000  0.93390000  1.0 0.4109607401
N  N105  1  0.60390000  0.83029000  0.76950000  1.0 -0.2187644125
N  N106  1  0.02050000  0.85896000  0.78380000  1.0 -0.2187644125
N  N107  1  0.89850000  0.52187000  0.74070000  1.0 -0.2279586494
N  N108  1  0.33520000  0.67724000  0.77820000  1.0 -0.2279586494
N  N109  1  0.97680000  0.52171000  0.72760000  1.0 -0.2187644125
N  N110  1  0.31770000  0.52484000  0.75860000  1.0 -0.2187644125
N  N111  1  0.91580000  0.68902000  0.76100000  1.0 -0.2187644125
N  N112  1  0.56920000  0.87968000  0.88520000  1.0 -0.5100644218
N  N113  1  0.58500000  0.73804000  0.92200000  1.0 0.4172281983
N  N114  1  0.52920000  0.46675000  0.82700000  1.0 -0.459493385
N  N115  1  0.31570000  0.77800000  0.55840000  1.0 -0.3733721654
N  N116  1  0.66980000  0.58480000  0.96250000  1.0 -0.3733721654
N  N117  1  0.62500000  0.73300000  0.98950000  1.0 -0.3469113943
N  N118  1  0.25490000  0.61490000  0.53960000  1.0 -0.3341049266
N  N119  1  0.60360000  0.39054000  0.80060000  1.0 -0.4398701725
N  N120  1  0.54010000  0.90380000  0.98160000  1.0 -0.3786920604
O  O1  1  0.35190000  0.02227000  0.14360000  1.0 -0.6531733957
O  O2  1  0.64810000  0.52227000  0.35640000  1.0 -0.6531733957
O  O3  1  0.64810000  0.97773000  0.85640000  1.0 -0.6531733957
O  O4  1  0.35190000  0.47773000  0.64360000  1.0 -0.6531733957
