# DDEC6 charges by PACMAN v1.1 (https://github.com/mtap-research/PACMAN-charge/)
data_JIQVAH_FSR_pacman
_symmetry_space_group_name_H-M   'P 1'
_cell_length_a   8.68000000
_cell_length_b   25.09030000
_cell_length_c   11.08630000
_cell_angle_alpha   90.00000000
_cell_angle_beta   101.55000000
_cell_angle_gamma   90.00000000
_symmetry_Int_Tables_number   1
_chemical_formula_structural   Yb2H22Ru3C24(N9O4)2
_chemical_formula_sum   'Yb4 H44 Ru6 C48 N36 O16'
_cell_volume   2365.52549587
_cell_formula_units_Z   2
loop_
 _symmetry_equiv_pos_site_id
 _symmetry_equiv_pos_as_xyz
  1  'x, y, z'
loop_
 _atom_site_type_symbol
 _atom_site_label
 _atom_site_symmetry_multiplicity
 _atom_site_fract_x
 _atom_site_fract_y
 _atom_site_fract_z
 _atom_site_occupancy
 _atom_site_charge
Yb  Yb1  1  0.80809000  0.59485000  0.85878000  1.0 2.0557802908
Yb  Yb2  1  0.19191000  0.09485000  0.14122000  1.0 2.0546163313
Yb  Yb3  1  0.19191000  0.40515000  0.14122000  1.0 2.0546163313
Yb  Yb4  1  0.80809000  0.90515000  0.85878000  1.0 2.0557802908
H  H1  1  0.06920000  0.62390000  0.51430000  1.0 0.1295098208
H  H2  1  0.93080000  0.12390000  0.48570000  1.0 0.1295098208
H  H3  1  0.93080000  0.37610000  0.48570000  1.0 0.1295098208
H  H4  1  0.06920000  0.87610000  0.51430000  1.0 0.1295098208
H  H5  1  0.19420000  0.57800000  0.38180000  1.0 0.1295098208
H  H6  1  0.80580000  0.07800000  0.61820000  1.0 0.1295098208
H  H7  1  0.80580000  0.42200000  0.61820000  1.0 0.1295098208
H  H8  1  0.19420000  0.92200000  0.38180000  1.0 0.1295098208
H  H9  1  0.53810000  0.70420000  0.01910000  1.0 0.1210321367
H  H10  1  0.46190000  0.20420000  0.98090000  1.0 0.1210321367
H  H11  1  0.46190000  0.29580000  0.98090000  1.0 0.1210321367
H  H12  1  0.53810000  0.79580000  0.01910000  1.0 0.1210321367
H  H13  1  0.57740000  0.62190000  0.64310000  1.0 0.3799089
H  H14  1  0.42260000  0.12190000  0.35690000  1.0 0.3799089
H  H15  1  0.42260000  0.37810000  0.35690000  1.0 0.3799089
H  H16  1  0.57740000  0.87810000  0.64310000  1.0 0.3799089
H  H17  1  0.49380000  0.61620000  0.73060000  1.0 0.3799089
H  H18  1  0.50620000  0.11620000  0.26940000  1.0 0.3799089
H  H19  1  0.50620000  0.38380000  0.26940000  1.0 0.3799089
H  H20  1  0.49380000  0.88380000  0.73060000  1.0 0.3799089
H  H21  1  0.82510000  0.67480000  0.03610000  1.0 0.3799089
H  H22  1  0.17490000  0.17480000  0.96390000  1.0 0.3799089
H  H23  1  0.17490000  0.32520000  0.96390000  1.0 0.3799089
H  H24  1  0.82510000  0.82520000  0.03610000  1.0 0.3799089
H  H25  1  0.74740000  0.70140000  0.93140000  1.0 0.3705773793
H  H26  1  0.25260000  0.20140000  0.06860000  1.0 0.3705773793
H  H27  1  0.25260000  0.29860000  0.06860000  1.0 0.3705773793
H  H28  1  0.74740000  0.79860000  0.93140000  1.0 0.3705773793
H  H29  1  0.91800000  0.53740000  0.68170000  1.0 0.3705773793
H  H30  1  0.08200000  0.03740000  0.31830000  1.0 0.3705773793
H  H31  1  0.08200000  0.46260000  0.31830000  1.0 0.3705773793
H  H32  1  0.91800000  0.96260000  0.68170000  1.0 0.3705773793
H  H33  1  0.04570000  0.56310000  0.74820000  1.0 0.3639792644
H  H34  1  0.95430000  0.06310000  0.25180000  1.0 0.3639792644
H  H35  1  0.95430000  0.43690000  0.25180000  1.0 0.3639792644
H  H36  1  0.04570000  0.93690000  0.74820000  1.0 0.3639792644
H  H37  1  0.82780000  0.52620000  0.07800000  1.0 0.3799089
H  H38  1  0.17220000  0.02620000  0.92200000  1.0 0.3799089
H  H39  1  0.17220000  0.47380000  0.92200000  1.0 0.3799089
H  H40  1  0.82780000  0.97380000  0.07800000  1.0 0.3799089
H  H41  1  0.94780000  0.52030000  0.01890000  1.0 0.3324355848
H  H42  1  0.05220000  0.02030000  0.98110000  1.0 0.3324355848
H  H43  1  0.05220000  0.47970000  0.98110000  1.0 0.3324355848
H  H44  1  0.94780000  0.97970000  0.01890000  1.0 0.3324355848
Ru  Ru1  1  0.38786000  0.61099000  0.16443000  1.0 0.3032098703
Ru  Ru2  1  0.61214000  0.11099000  0.83557000  1.0 0.3032098703
Ru  Ru3  1  0.61214000  0.38901000  0.83557000  1.0 0.3032098703
Ru  Ru4  1  0.38786000  0.88901000  0.16443000  1.0 0.3032098703
Ru  Ru5  1  0.01155000  0.75000000  0.57290000  1.0 0.3084803365
Ru  Ru6  1  0.98845000  0.25000000  0.42710000  1.0 0.3084803365
C  C1  1  0.26390000  0.69390000  0.30430000  1.0 0.1006908111
C  C2  1  0.73610000  0.19390000  0.69570000  1.0 0.1006908111
C  C3  1  0.73610000  0.30610000  0.69570000  1.0 0.1006908111
C  C4  1  0.26390000  0.80610000  0.30430000  1.0 0.1006908111
C  C5  1  0.18950000  0.72160000  0.38490000  1.0 0.1006908111
C  C6  1  0.81050000  0.22160000  0.61510000  1.0 0.1006908111
C  C7  1  0.81050000  0.27840000  0.61510000  1.0 0.1006908111
C  C8  1  0.18950000  0.77840000  0.38490000  1.0 0.1006908111
C  C9  1  0.11890000  0.64320000  0.46140000  1.0 0.0352056541
C  C10  1  0.88110000  0.14320000  0.53860000  1.0 0.0352056541
C  C11  1  0.88110000  0.35680000  0.53860000  1.0 0.0352056541
C  C12  1  0.11890000  0.85680000  0.46140000  1.0 0.0352056541
C  C13  1  0.19420000  0.61500000  0.37960000  1.0 -0.0075634941
C  C14  1  0.80580000  0.11500000  0.62040000  1.0 -0.0075634941
C  C15  1  0.80580000  0.38500000  0.62040000  1.0 -0.0075634941
C  C16  1  0.19420000  0.88500000  0.37960000  1.0 -0.0075634941
C  C17  1  0.48630000  0.72210000  0.07260000  1.0 0.0283971953
C  C18  1  0.51370000  0.22210000  0.92740000  1.0 0.0283971953
C  C19  1  0.51370000  0.27790000  0.92740000  1.0 0.0283971953
C  C20  1  0.48630000  0.77790000  0.07260000  1.0 0.0283971953
C  C21  1  0.34320000  0.72230000  0.22240000  1.0 0.1210321367
C  C22  1  0.65680000  0.22230000  0.77760000  1.0 0.1210321367
C  C23  1  0.65680000  0.27770000  0.77760000  1.0 0.1210321367
C  C24  1  0.34320000  0.77770000  0.22240000  1.0 0.1210321367
C  C25  1  0.19230000  0.61320000  0.03260000  1.0 0.0571290452
C  C26  1  0.80770000  0.11320000  0.96740000  1.0 0.0571290452
C  C27  1  0.80770000  0.38680000  0.96740000  1.0 0.0571290452
C  C28  1  0.19230000  0.88680000  0.03260000  1.0 0.0571290452
C  C29  1  0.51330000  0.59640000  0.03860000  1.0 0.0571290452
C  C30  1  0.48670000  0.09640000  0.96140000  1.0 0.0571290452
C  C31  1  0.48670000  0.40360000  0.96140000  1.0 0.0571290452
C  C32  1  0.51330000  0.90360000  0.03860000  1.0 0.0571290452
C  C33  1  0.65780000  0.46580000  0.81390000  1.0 0.0672542352
C  C34  1  0.34220000  0.96580000  0.18610000  1.0 0.0672542352
C  C35  1  0.34220000  0.53420000  0.18610000  1.0 0.0672542352
C  C36  1  0.65780000  0.03420000  0.81390000  1.0 0.0672542352
C  C37  1  0.58950000  0.60020000  0.29060000  1.0 -0.0542989418
C  C38  1  0.41050000  0.10020000  0.70940000  1.0 -0.0542989418
C  C39  1  0.41050000  0.39980000  0.70940000  1.0 -0.0542989418
C  C40  1  0.58950000  0.89980000  0.29060000  1.0 -0.0542989418
C  C41  1  0.82010000  0.75000000  0.43810000  1.0 -0.0601571592
C  C42  1  0.17990000  0.25000000  0.56190000  1.0 -0.0601571592
C  C43  1  0.92620000  0.69330000  0.66690000  1.0 0.0805963866
C  C44  1  0.07380000  0.19330000  0.33310000  1.0 0.0805963866
C  C45  1  0.07380000  0.30670000  0.33310000  1.0 0.0805963866
C  C46  1  0.92620000  0.80670000  0.66690000  1.0 0.0805963866
C  C47  1  0.20160000  0.75000000  0.70820000  1.0 -0.0601571592
C  C48  1  0.79840000  0.25000000  0.29180000  1.0 -0.0601571592
N  N1  1  0.26540000  0.63960000  0.29900000  1.0 -0.1488624968
N  N2  1  0.73460000  0.13960000  0.70100000  1.0 -0.1488624968
N  N3  1  0.73460000  0.36040000  0.70100000  1.0 -0.1488624968
N  N4  1  0.26540000  0.86040000  0.29900000  1.0 -0.1488624968
N  N5  1  0.11580000  0.69550000  0.46600000  1.0 -0.1440372773
N  N6  1  0.88420000  0.19550000  0.53400000  1.0 -0.1440372773
N  N7  1  0.88420000  0.30450000  0.53400000  1.0 -0.1440372773
N  N8  1  0.11580000  0.80450000  0.46600000  1.0 -0.1440372773
N  N9  1  0.41420000  0.69390000  0.14720000  1.0 -0.1257954098
N  N10  1  0.58580000  0.19390000  0.85280000  1.0 -0.1257954098
N  N11  1  0.58580000  0.30610000  0.85280000  1.0 -0.1257954098
N  N12  1  0.41420000  0.80610000  0.14720000  1.0 -0.1257954098
N  N13  1  0.07950000  0.61200000  0.95390000  1.0 -0.5081696816
N  N14  1  0.92050000  0.11200000  0.04610000  1.0 -0.5081696816
N  N15  1  0.92050000  0.38800000  0.04610000  1.0 -0.5081696816
N  N16  1  0.07950000  0.88800000  0.95390000  1.0 -0.5081696816
N  N17  1  0.59240000  0.59130000  0.96570000  1.0 -0.5395902105
N  N18  1  0.40760000  0.09130000  0.03430000  1.0 -0.5395902105
N  N19  1  0.40760000  0.40870000  0.03430000  1.0 -0.5395902105
N  N20  1  0.59240000  0.90870000  0.96570000  1.0 -0.5395902105
N  N21  1  0.68640000  0.51000000  0.80380000  1.0 -0.5298936375
N  N22  1  0.31360000  0.01000000  0.19620000  1.0 -0.5298936375
N  N23  1  0.31360000  0.49000000  0.19620000  1.0 -0.5298936375
N  N24  1  0.68640000  0.99000000  0.80380000  1.0 -0.5298936375
N  N25  1  0.70570000  0.59010000  0.35740000  1.0 -0.3883627015
N  N26  1  0.29430000  0.09010000  0.64260000  1.0 -0.3883627015
N  N27  1  0.29430000  0.40990000  0.64260000  1.0 -0.3883627015
N  N28  1  0.70570000  0.90990000  0.35740000  1.0 -0.3883627015
N  N29  1  0.71290000  0.75000000  0.35790000  1.0 -0.3883627015
N  N30  1  0.28710000  0.25000000  0.64210000  1.0 -0.3883627015
N  N31  1  0.31000000  0.75000000  0.79150000  1.0 -0.403812588
N  N32  1  0.69000000  0.25000000  0.20850000  1.0 -0.403812588
N  N33  1  0.88180000  0.65920000  0.71990000  1.0 -0.5395902105
N  N34  1  0.11820000  0.15920000  0.28010000  1.0 -0.5395902105
N  N35  1  0.11820000  0.34080000  0.28010000  1.0 -0.5395902105
N  N36  1  0.88180000  0.84080000  0.71990000  1.0 -0.5395902105
O  O1  1  0.58810000  0.61900000  0.72070000  1.0 -0.7806456394
O  O2  1  0.41190000  0.11900000  0.27930000  1.0 -0.7806456394
O  O3  1  0.41190000  0.38100000  0.27930000  1.0 -0.7806456394
O  O4  1  0.58810000  0.88100000  0.72070000  1.0 -0.7806456394
O  O5  1  0.81120000  0.67640000  0.95810000  1.0 -0.7681696422
O  O6  1  0.18880000  0.17640000  0.04190000  1.0 -0.7681696422
O  O7  1  0.18880000  0.32360000  0.04190000  1.0 -0.7681696422
O  O8  1  0.81120000  0.82360000  0.95810000  1.0 -0.7681696422
O  O9  1  0.96480000  0.54500000  0.75450000  1.0 -0.7534032546
O  O10  1  0.03520000  0.04500000  0.24550000  1.0 -0.7534032546
O  O11  1  0.03520000  0.45500000  0.24550000  1.0 -0.7534032546
O  O12  1  0.96480000  0.95500000  0.75450000  1.0 -0.7534032546
O  O13  1  0.88720000  0.54360000  0.03990000  1.0 -0.7534032546
O  O14  1  0.11280000  0.04360000  0.96010000  1.0 -0.7534032546
O  O15  1  0.11280000  0.45640000  0.96010000  1.0 -0.7534032546
O  O16  1  0.88720000  0.95640000  0.03990000  1.0 -0.7534032546
