# DDEC6 charges by PACMAN v1.1 (https://github.com/mtap-research/PACMAN-charge/)
data_JISVAJ_FSR_pacman
_symmetry_space_group_name_H-M   'P 1'
_cell_length_a   12.39000000
_cell_length_b   13.79500000
_cell_length_c   13.83000000
_cell_angle_alpha   115.76900000
_cell_angle_beta   93.91400000
_cell_angle_gamma   106.91800000
_symmetry_Int_Tables_number   1
_chemical_formula_structural   EuH9C26S2N3O8
_chemical_formula_sum   'Eu2 H18 C52 S4 N6 O16'
_cell_volume   1983.90165821
_cell_formula_units_Z   2
loop_
 _symmetry_equiv_pos_site_id
 _symmetry_equiv_pos_as_xyz
  1  'x, y, z'
loop_
 _atom_site_type_symbol
 _atom_site_label
 _atom_site_symmetry_multiplicity
 _atom_site_fract_x
 _atom_site_fract_y
 _atom_site_fract_z
 _atom_site_occupancy
 _atom_site_charge
Eu  Eu1  1  0.32607000  0.47464000  0.46788000  1.0 2.0339719306
Eu  Eu2  1  0.67393000  0.52536000  0.53212000  1.0 2.0339719306
H  H1  1  0.43080000  0.82700000  0.49450000  1.0 0.1400639685
H  H2  1  0.56920000  0.17300000  0.50550000  1.0 0.1450033287
H  H3  1  0.80360000  0.07880000  0.63800000  1.0 0.0992127309
H  H4  1  0.19640000  0.92120000  0.36200000  1.0 0.0992127309
H  H5  1  0.75610000  0.90520000  0.64020000  1.0 0.1248317609
H  H6  1  0.24390000  0.09480000  0.35980000  1.0 0.1248317609
H  H7  1  0.30850000  0.40540000  0.67200000  1.0 0.1400639685
H  H8  1  0.69150000  0.59460000  0.32800000  1.0 0.1400639685
H  H9  1  0.21820000  0.35270000  0.79340000  1.0 0.1090641146
H  H10  1  0.78180000  0.64730000  0.20660000  1.0 0.1090641146
H  H11  1  0.61090000  0.55910000  0.89850000  1.0 0.1400639685
H  H12  1  0.38910000  0.44090000  0.10150000  1.0 0.1400639685
H  H13  1  0.96700000  0.09990000  0.24040000  1.0 0.1450033287
H  H14  1  0.03300000  0.90010000  0.75960000  1.0 0.1450033287
H  H15  1  0.86650000  0.92030000  0.21500000  1.0 0.1090641146
H  H16  1  0.13350000  0.07970000  0.78500000  1.0 0.1090641146
H  H17  1  0.10650000  0.18430000  0.54930000  1.0 0.1400639685
H  H18  1  0.89350000  0.81570000  0.45070000  1.0 0.1400639685
C  C1  1  0.55410000  0.72940000  0.56090000  1.0 0.6403991233
C  C2  1  0.44590000  0.27060000  0.43910000  1.0 0.6403991233
C  C3  1  0.58850000  0.84630000  0.56530000  1.0 0.0287928793
C  C4  1  0.41150000  0.15370000  0.43470000  1.0 0.0287928793
C  C5  1  0.50760000  0.87670000  0.52310000  1.0 -0.1363750224
C  C6  1  0.49240000  0.12330000  0.47690000  1.0 -0.1363750224
C  C7  1  0.54200000  0.98250000  0.52380000  1.0 0.1693453118
C  C8  1  0.45800000  0.01750000  0.47620000  1.0 0.1693453118
C  C9  1  0.72750000  0.02750000  0.60800000  1.0 0.0856963943
C  C10  1  0.27250000  0.97250000  0.39200000  1.0 0.0856963943
C  C11  1  0.70000000  0.92260000  0.60970000  1.0 -0.1518167217
C  C12  1  0.30000000  0.07740000  0.39030000  1.0 -0.1518167217
C  C13  1  0.53360000  0.51700000  0.69370000  1.0 0.6139263163
C  C14  1  0.46640000  0.48300000  0.30630000  1.0 0.6139263163
C  C15  1  0.47020000  0.48660000  0.77150000  1.0 0.0475654031
C  C16  1  0.52980000  0.51340000  0.22850000  1.0 0.0475654031
C  C17  1  0.35120000  0.42520000  0.74010000  1.0 -0.1518167217
C  C18  1  0.64880000  0.57480000  0.25990000  1.0 -0.1592217038
C  C19  1  0.29740000  0.39410000  0.81420000  1.0 0.0824892322
C  C20  1  0.70260000  0.60590000  0.18580000  1.0 0.0824892322
C  C21  1  0.47040000  0.48520000  0.94430000  1.0 0.1693453118
C  C22  1  0.52960000  0.51480000  0.05570000  1.0 0.1693453118
C  C23  1  0.53170000  0.51780000  0.87570000  1.0 -0.1518167217
C  C24  1  0.46830000  0.48220000  0.12430000  1.0 -0.1518167217
C  C25  1  0.12800000  0.27870000  0.41780000  1.0 0.562184756
C  C26  1  0.87200000  0.72130000  0.58220000  1.0 0.562184756
C  C27  1  0.05080000  0.16280000  0.39820000  1.0 0.0287928793
C  C28  1  0.94920000  0.83720000  0.60180000  1.0 0.0287928793
C  C29  1  0.97600000  0.08180000  0.29720000  1.0 -0.1330272307
C  C30  1  0.02400000  0.91820000  0.70280000  1.0 -0.1330272307
C  C31  1  0.91560000  0.97440000  0.28330000  1.0 0.0697886894
C  C32  1  0.08440000  0.02560000  0.71670000  1.0 0.0697886894
C  C33  1  0.99490000  0.01950000  0.45750000  1.0 0.1693453118
C  C34  1  0.00510000  0.98050000  0.54250000  1.0 0.1693453118
C  C35  1  0.05890000  0.13130000  0.47990000  1.0 -0.1592217038
C  C36  1  0.94110000  0.86870000  0.52010000  1.0 -0.1592217038
C  C37  1  0.29990000  0.81010000  0.71130000  1.0 -0.3064071585
C  C38  1  0.70010000  0.18990000  0.28870000  1.0 -0.2998783539
C  C39  1  0.30400000  0.70690000  0.85310000  1.0 -0.0677159068
C  C40  1  0.69600000  0.29310000  0.14690000  1.0 -0.0677159068
C  C41  1  0.97590000  0.49830000  0.35340000  1.0 -0.0802143154
C  C42  1  0.02410000  0.50170000  0.64660000  1.0 -0.0802143154
C  C43  1  0.22410000  0.63020000  0.27770000  1.0 -0.2756263067
C  C44  1  0.77590000  0.36980000  0.72230000  1.0 -0.2857519338
C  C45  1  0.25310000  0.70510000  0.68320000  1.0 0.0617970924
C  C46  1  0.74690000  0.29490000  0.31680000  1.0 0.0617970924
C  C47  1  0.29410000  0.76230000  0.83870000  1.0 0.0027718718
C  C48  1  0.70590000  0.23770000  0.16130000  1.0 0.0027718718
C  C49  1  0.11410000  0.60170000  0.43740000  1.0 0.1090641146
C  C50  1  0.88590000  0.39830000  0.56260000  1.0 0.1090641146
C  C51  1  0.03950000  0.61270000  0.35350000  1.0 -0.0992809547
C  C52  1  0.96050000  0.38730000  0.64650000  1.0 -0.0992809547
S  S1  1  0.12890000  0.54330000  0.32730000  1.0 0.562184756
S  S2  1  0.87110000  0.45670000  0.67270000  1.0 0.5683988581
S  S3  1  0.34660000  0.71150000  0.72650000  1.0 0.3448497902
S  S4  1  0.65340000  0.28850000  0.27350000  1.0 0.3448497902
N  N1  1  0.65250000  0.05830000  0.56670000  1.0 -0.2643824269
N  N2  1  0.34750000  0.94170000  0.43330000  1.0 -0.2661063124
N  N3  1  0.35590000  0.42180000  0.91390000  1.0 -0.2998783539
N  N4  1  0.64410000  0.57820000  0.08610000  1.0 -0.2998783539
N  N5  1  0.92220000  0.94180000  0.36060000  1.0 -0.2857519338
N  N6  1  0.07780000  0.05820000  0.63940000  1.0 -0.2857519338
O  O1  1  0.44750000  0.66840000  0.52390000  1.0 -0.6555721214
O  O2  1  0.55250000  0.33160000  0.47610000  1.0 -0.6555721214
O  O3  1  0.63260000  0.70230000  0.59060000  1.0 -0.6123167624
O  O4  1  0.36740000  0.29770000  0.40940000  1.0 -0.6123167624
O  O5  1  0.47370000  0.50510000  0.60890000  1.0 -0.7212197532
O  O6  1  0.52630000  0.49490000  0.39110000  1.0 -0.7212197532
O  O7  1  0.64050000  0.54940000  0.71370000  1.0 -0.5662852278
O  O8  1  0.35950000  0.45060000  0.28630000  1.0 -0.5662852278
O  O9  1  0.14070000  0.29990000  0.33980000  1.0 -0.5616555562
O  O10  1  0.85930000  0.70010000  0.66020000  1.0 -0.5616555562
O  O11  1  0.18240000  0.35150000  0.51540000  1.0 -0.5928748001
O  O12  1  0.81760000  0.64850000  0.48460000  1.0 -0.5928748001
O  O13  1  0.19790000  0.55270000  0.41850000  1.0 -0.3289616456
O  O14  1  0.80210000  0.44730000  0.58150000  1.0 -0.3289616456
O  O15  1  0.28220000  0.59420000  0.63790000  1.0 -0.3289616456
O  O16  1  0.71780000  0.40580000  0.36210000  1.0 -0.3245176126
