# DDEC6 charges by PACMAN v1.1 (https://github.com/mtap-research/PACMAN-charge/)
data_JISZIX_ASR_pacman
_symmetry_space_group_name_H-M   'P 1'
_cell_length_a   14.68020000
_cell_length_b   22.70170000
_cell_length_c   23.30980000
_cell_angle_alpha   90.00000000
_cell_angle_beta   127.45000000
_cell_angle_gamma   90.00000000
_symmetry_Int_Tables_number   1
_chemical_formula_structural   Na2Nd2Fe2SbH8W9C12N2O37
_chemical_formula_sum   'Na8 Nd8 Fe8 Sb4 H32 W36 C48 N8 O148'
_cell_volume   6167.17260816
_cell_formula_units_Z   4
loop_
 _symmetry_equiv_pos_site_id
 _symmetry_equiv_pos_as_xyz
  1  'x, y, z'
loop_
 _atom_site_type_symbol
 _atom_site_label
 _atom_site_symmetry_multiplicity
 _atom_site_fract_x
 _atom_site_fract_y
 _atom_site_fract_z
 _atom_site_occupancy
 _atom_site_charge
Na  Na1  1  0.44630000  0.25020000  0.43280000  1.0 0.9392543011
Na  Na2  1  0.30430000  0.30720000  0.22340000  1.0 0.8874696516
Na  Na3  1  0.55370000  0.75020000  0.06720000  1.0 0.9392543011
Na  Na4  1  0.69570000  0.80720000  0.27660000  1.0 0.8874696516
Na  Na5  1  0.55370000  0.74980000  0.56720000  1.0 0.9392543011
Na  Na6  1  0.69570000  0.69280000  0.77660000  1.0 0.8874696516
Na  Na7  1  0.44630000  0.24980000  0.93280000  1.0 0.9392543011
Na  Na8  1  0.30430000  0.19280000  0.72340000  1.0 0.8874696516
Nd  Nd1  1  0.92364000  0.77365000  0.00024000  1.0 0.4469109648
Nd  Nd2  1  0.89620000  0.77960000  0.01260000  1.0 0.2912695382
Nd  Nd3  1  0.07636000  0.27365000  0.49976000  1.0 0.4162270897
Nd  Nd4  1  0.10380000  0.27960000  0.48740000  1.0 0.3084541433
Nd  Nd5  1  0.07636000  0.22635000  0.99976000  1.0 0.4469109648
Nd  Nd6  1  0.10380000  0.22040000  0.98740000  1.0 0.2912695382
Nd  Nd7  1  0.92364000  0.72635000  0.50024000  1.0 0.4469109648
Nd  Nd8  1  0.89620000  0.72040000  0.51260000  1.0 0.2912695382
Fe  Fe1  1  0.37114000  0.12905000  0.29378000  1.0 1.2762570851
Fe  Fe2  1  0.63559000  0.94301000  0.47792000  1.0 1.2980263107
Fe  Fe3  1  0.62886000  0.62905000  0.20622000  1.0 1.2728891446
Fe  Fe4  1  0.36441000  0.44301000  0.02208000  1.0 1.2980263107
Fe  Fe5  1  0.62886000  0.87095000  0.70622000  1.0 1.2728891446
Fe  Fe6  1  0.36441000  0.05699000  0.52208000  1.0 1.2980263107
Fe  Fe7  1  0.37114000  0.37095000  0.79378000  1.0 1.2728891446
Fe  Fe8  1  0.63559000  0.55699000  0.97792000  1.0 1.2980263107
Sb  Sb1  1  0.31084000  0.98162000  0.35270000  1.0 1.3360480937
Sb  Sb2  1  0.68916000  0.48162000  0.14730000  1.0 1.3453588956
Sb  Sb3  1  0.68916000  0.01838000  0.64730000  1.0 1.3360480937
Sb  Sb4  1  0.31084000  0.51838000  0.85270000  1.0 1.3360480937
H  H1  1  0.49330000  0.21890000  0.15660000  1.0 0.1477218424
H  H2  1  0.69120000  0.21820000  0.24490000  1.0 0.1000560974
H  H3  1  0.76680000  0.18210000  0.35990000  1.0 0.1477218424
H  H4  1  0.64330000  0.14350000  0.37970000  1.0 0.1219777711
H  H5  1  0.88530000  0.88240000  0.41010000  1.0 0.1372084399
H  H6  1  0.93600000  0.97320000  0.39570000  1.0 0.1132345046
H  H7  1  0.85060000  0.05810000  0.40010000  1.0 0.1372084399
H  H8  1  0.74160000  0.04980000  0.44150000  1.0 0.1132345046
H  H9  1  0.50670000  0.71890000  0.34340000  1.0 0.1477218424
H  H10  1  0.30880000  0.71820000  0.25510000  1.0 0.1000560974
H  H11  1  0.23320000  0.68210000  0.14010000  1.0 0.1477218424
H  H12  1  0.35670000  0.64350000  0.12030000  1.0 0.1219777711
H  H13  1  0.11470000  0.38240000  0.08990000  1.0 0.1372084399
H  H14  1  0.06400000  0.47320000  0.10430000  1.0 0.1132345046
H  H15  1  0.14940000  0.55810000  0.09990000  1.0 0.1372084399
H  H16  1  0.25840000  0.54980000  0.05850000  1.0 0.1132345046
H  H17  1  0.50670000  0.78110000  0.84340000  1.0 0.1477218424
H  H18  1  0.30880000  0.78180000  0.75510000  1.0 0.1000560974
H  H19  1  0.23320000  0.81790000  0.64010000  1.0 0.1477218424
H  H20  1  0.35670000  0.85650000  0.62030000  1.0 0.1219777711
H  H21  1  0.11470000  0.11760000  0.58990000  1.0 0.1372084399
H  H22  1  0.06400000  0.02680000  0.60430000  1.0 0.1132345046
H  H23  1  0.14940000  0.94190000  0.59990000  1.0 0.1372084399
H  H24  1  0.25840000  0.95020000  0.55850000  1.0 0.1132345046
H  H25  1  0.49330000  0.28110000  0.65660000  1.0 0.1477218424
H  H26  1  0.69120000  0.28180000  0.74490000  1.0 0.1000560974
H  H27  1  0.76680000  0.31790000  0.85990000  1.0 0.1477218424
H  H28  1  0.64330000  0.35650000  0.87970000  1.0 0.1219777711
H  H29  1  0.88530000  0.61760000  0.91010000  1.0 0.1372084399
H  H30  1  0.93600000  0.52680000  0.89570000  1.0 0.1132345046
H  H31  1  0.85060000  0.44190000  0.90010000  1.0 0.1372084399
H  H32  1  0.74160000  0.45020000  0.94150000  1.0 0.1132345046
W  W1  1  0.30453000  0.81003000  0.36531000  1.0 2.4504219764
W  W2  1  0.44254000  0.88771000  0.29807000  1.0 2.3813080066
W  W3  1  0.13654000  0.88328000  0.39339000  1.0 2.4196653439
W  W4  1  0.16065000  0.87248000  0.18401000  1.0 2.4402604573
W  W5  1  0.42355000  0.89951000  0.50901000  1.0 2.3526884191
W  W6  1  0.09328000  0.07952000  0.21758000  1.0 2.481649267
W  W7  1  0.08560000  0.04274000  0.35360000  1.0 2.409327117
W  W8  1  0.97156000  0.95310000  0.21451000  1.0 2.4923706128
W  W9  1  0.28484000  0.99971000  0.19102000  1.0 2.4565020793
W  W10  1  0.69547000  0.31003000  0.13469000  1.0 2.4565020793
W  W11  1  0.55746000  0.38771000  0.20193000  1.0 2.3813080066
W  W12  1  0.86346000  0.38328000  0.10661000  1.0 2.4196653439
W  W13  1  0.83935000  0.37248000  0.31599000  1.0 2.4402604573
W  W14  1  0.57645000  0.39951000  0.99099000  1.0 2.3526884191
W  W15  1  0.90672000  0.57952000  0.28242000  1.0 2.481649267
W  W16  1  0.91440000  0.54274000  0.14640000  1.0 2.409327117
W  W17  1  0.02844000  0.45310000  0.28549000  1.0 2.4923706128
W  W18  1  0.71516000  0.49971000  0.30898000  1.0 2.4565020793
W  W19  1  0.69547000  0.18997000  0.63469000  1.0 2.4565020793
W  W20  1  0.55746000  0.11229000  0.70193000  1.0 2.3813080066
W  W21  1  0.86346000  0.11672000  0.60661000  1.0 2.4196653439
W  W22  1  0.83935000  0.12752000  0.81599000  1.0 2.4402604573
W  W23  1  0.57645000  0.10049000  0.49099000  1.0 2.3526884191
W  W24  1  0.90672000  0.92048000  0.78242000  1.0 2.481649267
W  W25  1  0.91440000  0.95726000  0.64640000  1.0 2.4008948081
W  W26  1  0.02844000  0.04690000  0.78549000  1.0 2.5022582286
W  W27  1  0.71516000  0.00029000  0.80898000  1.0 2.4504219764
W  W28  1  0.30453000  0.68997000  0.86531000  1.0 2.4504219764
W  W29  1  0.44254000  0.61229000  0.79807000  1.0 2.3813080066
W  W30  1  0.13654000  0.61672000  0.89339000  1.0 2.4288141006
W  W31  1  0.16065000  0.62752000  0.68401000  1.0 2.4402604573
W  W32  1  0.42355000  0.60049000  0.00901000  1.0 2.3526884191
W  W33  1  0.09328000  0.42048000  0.71758000  1.0 2.481649267
W  W34  1  0.08560000  0.45726000  0.85360000  1.0 2.409327117
W  W35  1  0.97156000  0.54690000  0.71451000  1.0 2.4923706128
W  W36  1  0.28484000  0.50029000  0.69102000  1.0 2.4565020793
C  C1  1  0.32550000  0.17790000  0.16310000  1.0 0.568671959
C  C2  1  0.45580000  0.17930000  0.21540000  1.0 0.0424202056
C  C3  1  0.52490000  0.20280000  0.20190000  1.0 -0.1380101002
C  C4  1  0.64320000  0.20340000  0.25490000  1.0 0.0078594158
C  C5  1  0.68810000  0.18140000  0.32290000  1.0 -0.1722757867
C  C6  1  0.61330000  0.15860000  0.33430000  1.0 0.0901297056
C  C7  1  0.76380000  0.85840000  0.46000000  1.0 0.5924782031
C  C8  1  0.79230000  0.91420000  0.44090000  1.0 0.0460003079
C  C9  1  0.85910000  0.91660000  0.41780000  1.0 -0.1606676109
C  C10  1  0.88520000  0.97020000  0.40690000  1.0 -0.0467987783
C  C11  1  0.83780000  0.02150000  0.41200000  1.0 -0.1509249075
C  C12  1  0.77110000  0.01600000  0.43560000  1.0 0.1000560974
C  C13  1  0.67450000  0.67790000  0.33690000  1.0 0.568671959
C  C14  1  0.54420000  0.67930000  0.28460000  1.0 0.0424202056
C  C15  1  0.47510000  0.70280000  0.29810000  1.0 -0.1380101002
C  C16  1  0.35680000  0.70340000  0.24510000  1.0 0.0078594158
C  C17  1  0.31190000  0.68140000  0.17710000  1.0 -0.1722757867
C  C18  1  0.38670000  0.65860000  0.16570000  1.0 0.0901297056
C  C19  1  0.23620000  0.35840000  0.04000000  1.0 0.5924782031
C  C20  1  0.20770000  0.41420000  0.05910000  1.0 0.0460003079
C  C21  1  0.14090000  0.41660000  0.08220000  1.0 -0.1606676109
C  C22  1  0.11480000  0.47020000  0.09310000  1.0 -0.0467987783
C  C23  1  0.16220000  0.52150000  0.08800000  1.0 -0.1509249075
C  C24  1  0.22890000  0.51600000  0.06440000  1.0 0.1000560974
C  C25  1  0.67450000  0.82210000  0.83690000  1.0 0.568671959
C  C26  1  0.54420000  0.82070000  0.78460000  1.0 0.0424202056
C  C27  1  0.47510000  0.79720000  0.79810000  1.0 -0.1380101002
C  C28  1  0.35680000  0.79660000  0.74510000  1.0 0.0078594158
C  C29  1  0.31190000  0.81860000  0.67710000  1.0 -0.1722757867
C  C30  1  0.38670000  0.84140000  0.66570000  1.0 0.0901297056
C  C31  1  0.23620000  0.14160000  0.54000000  1.0 0.5924782031
C  C32  1  0.20770000  0.08580000  0.55910000  1.0 0.0424202056
C  C33  1  0.14090000  0.08340000  0.58220000  1.0 -0.1606676109
C  C34  1  0.11480000  0.02980000  0.59310000  1.0 -0.0467987783
C  C35  1  0.16220000  0.97850000  0.58800000  1.0 -0.1509249075
C  C36  1  0.22890000  0.98400000  0.56440000  1.0 0.1000560974
C  C37  1  0.32550000  0.32210000  0.66310000  1.0 0.568671959
C  C38  1  0.45580000  0.32070000  0.71540000  1.0 0.0424202056
C  C39  1  0.52490000  0.29720000  0.70190000  1.0 -0.1380101002
C  C40  1  0.64320000  0.29660000  0.75490000  1.0 0.0078594158
C  C41  1  0.68810000  0.31860000  0.82290000  1.0 -0.1722757867
C  C42  1  0.61330000  0.34140000  0.83430000  1.0 0.0901297056
C  C43  1  0.76380000  0.64160000  0.96000000  1.0 0.5924782031
C  C44  1  0.79230000  0.58580000  0.94090000  1.0 0.0460003079
C  C45  1  0.85910000  0.58340000  0.91780000  1.0 -0.1606676109
C  C46  1  0.88520000  0.52980000  0.90690000  1.0 -0.0467987783
C  C47  1  0.83780000  0.47850000  0.91200000  1.0 -0.1509249075
C  C48  1  0.77110000  0.48400000  0.93560000  1.0 0.1000560974
N  N1  1  0.49900000  0.15720000  0.28300000  1.0 -0.2712891178
N  N2  1  0.74770000  0.96290000  0.45000000  1.0 -0.2875713931
N  N3  1  0.50100000  0.65720000  0.21700000  1.0 -0.280755905
N  N4  1  0.25230000  0.46290000  0.05000000  1.0 -0.2875713931
N  N5  1  0.50100000  0.84280000  0.71700000  1.0 -0.2712891178
N  N6  1  0.25230000  0.03710000  0.55000000  1.0 -0.280755905
N  N7  1  0.49900000  0.34280000  0.78300000  1.0 -0.2712891178
N  N8  1  0.74770000  0.53710000  0.95000000  1.0 -0.2875713931
O  O1  1  0.36020000  0.21790000  0.31640000  1.0 -1.0374047683
O  O2  1  0.93660000  0.86940000  0.95850000  1.0 -0.2365461565
O  O3  1  0.00850000  0.70080000  0.10320000  1.0 -0.4913585461
O  O4  1  0.89890000  0.74510000  0.88960000  1.0 -0.430403193
O  O5  1  0.83290000  0.81450000  0.05250000  1.0 -0.6606279539
O  O6  1  0.10310000  0.75380000  0.01970000  1.0 -0.1380101002
O  O7  1  0.27540000  0.15650000  0.18800000  1.0 -0.5237941272
O  O8  1  0.11950000  0.96510000  0.39880000  1.0 -0.9214151627
O  O9  1  0.23760000  0.05990000  0.41780000  1.0 -0.8476671032
O  O10  1  0.39290000  0.97450000  0.51550000  1.0 -0.8242065436
O  O11  1  0.41350000  0.83620000  0.35350000  1.0 -0.9023516801
O  O12  1  0.51460000  0.93900000  0.37290000  1.0 -0.8382074661
O  O13  1  0.40440000  0.81790000  0.46660000  1.0 -1.0122330911
O  O14  1  0.27200000  0.87710000  0.48820000  1.0 -0.9023516801
O  O15  1  0.50990000  0.87690000  0.60100000  1.0 -0.7839571959
O  O16  1  0.18970000  0.83070000  0.26290000  1.0 -0.9090414352
O  O17  1  0.29070000  0.90720000  0.39080000  1.0 -1.0122330911
O  O18  1  0.14320000  0.00110000  0.29110000  1.0 -1.0296770817
O  O19  1  0.30850000  0.84550000  0.21580000  1.0 -0.8910210258
O  O20  1  0.94920000  0.00030000  0.27210000  1.0 -0.9877353039
O  O21  1  0.52960000  0.91410000  0.49570000  1.0 -0.8042023904
O  O22  1  0.69540000  0.86100000  0.47510000  1.0 -0.5110278494
O  O23  1  0.17790000  0.81080000  0.36940000  1.0 -0.9774673707
O  O24  1  0.04460000  0.91680000  0.17730000  1.0 -0.9090414352
O  O25  1  0.15250000  0.03740000  0.17680000  1.0 -0.9310746186
O  O26  1  0.54960000  0.84930000  0.30570000  1.0 -0.71658696
O  O27  1  0.17640000  0.93440000  0.13350000  1.0 -0.938326695
O  O28  1  0.05310000  0.09890000  0.28250000  1.0 -0.9310746186
O  O29  1  0.41010000  0.94490000  0.22620000  1.0 -0.938326695
O  O30  1  0.28500000  0.93840000  0.26910000  1.0 -1.0204685456
O  O31  1  0.03770000  0.89540000  0.28800000  1.0 -0.9497283227
O  O32  1  0.96030000  0.02510000  0.16590000  1.0 -1.0204685456
O  O33  1  0.23760000  0.10770000  0.28770000  1.0 -0.8476671032
O  O34  1  0.07510000  0.82300000  0.11290000  1.0 -0.8082993603
O  O35  1  0.81130000  0.81220000  0.46020000  1.0 -0.5387944705
O  O36  1  0.37600000  0.04860000  0.26810000  1.0 -0.8757923371
O  O37  1  0.27880000  0.19710000  0.10260000  1.0 -0.4794936455
O  O38  1  0.63980000  0.71790000  0.18360000  1.0 -1.0296770817
O  O39  1  0.06340000  0.36940000  0.54150000  1.0 -0.2712891178
O  O40  1  0.99150000  0.20080000  0.39680000  1.0 -0.5110278494
O  O41  1  0.10110000  0.24510000  0.61040000  1.0 -0.430403193
O  O42  1  0.16710000  0.31450000  0.44750000  1.0 -0.6518852837
O  O43  1  0.89690000  0.25380000  0.48030000  1.0 -0.1195868045
O  O44  1  0.72460000  0.65650000  0.31200000  1.0 -0.5264629252
O  O45  1  0.88050000  0.46510000  0.10120000  1.0 -0.9214151627
O  O46  1  0.76240000  0.55990000  0.08220000  1.0 -0.8476671032
O  O47  1  0.60710000  0.47450000  0.98450000  1.0 -0.8242065436
O  O48  1  0.58650000  0.33620000  0.14650000  1.0 -0.9023516801
O  O49  1  0.48540000  0.43900000  0.12710000  1.0 -0.8382074661
O  O50  1  0.59560000  0.31790000  0.03340000  1.0 -1.0122330911
O  O51  1  0.72800000  0.37710000  0.01180000  1.0 -0.9023516801
O  O52  1  0.49010000  0.37690000  0.89900000  1.0 -0.7853018767
O  O53  1  0.81030000  0.33070000  0.23710000  1.0 -0.9090414352
O  O54  1  0.70930000  0.40720000  0.10920000  1.0 -1.0204685456
O  O55  1  0.85680000  0.50110000  0.20890000  1.0 -1.0296770817
O  O56  1  0.69150000  0.34550000  0.28420000  1.0 -0.8910210258
O  O57  1  0.05080000  0.50030000  0.22790000  1.0 -0.9877353039
O  O58  1  0.47040000  0.41410000  0.00430000  1.0 -0.8042023904
O  O59  1  0.30460000  0.36100000  0.02490000  1.0 -0.5110278494
O  O60  1  0.82210000  0.31080000  0.13060000  1.0 -0.9725454575
O  O61  1  0.95540000  0.41680000  0.32270000  1.0 -0.9090414352
O  O62  1  0.84750000  0.53740000  0.32320000  1.0 -0.9310746186
O  O63  1  0.45040000  0.34930000  0.19430000  1.0 -0.71658696
O  O64  1  0.82360000  0.43440000  0.36650000  1.0 -0.938326695
O  O65  1  0.94690000  0.59890000  0.21750000  1.0 -0.9310746186
O  O66  1  0.58990000  0.44490000  0.27380000  1.0 -0.9310746186
O  O67  1  0.71500000  0.43840000  0.23090000  1.0 -1.0204685456
O  O68  1  0.96230000  0.39540000  0.21200000  1.0 -0.9497283227
O  O69  1  0.03970000  0.52510000  0.33410000  1.0 -1.0204685456
O  O70  1  0.76240000  0.60770000  0.21230000  1.0 -0.8476671032
O  O71  1  0.92490000  0.32300000  0.38710000  1.0 -0.8082993603
O  O72  1  0.18870000  0.31220000  0.03980000  1.0 -0.5387944705
O  O73  1  0.62400000  0.54860000  0.23190000  1.0 -0.8757923371
O  O74  1  0.72120000  0.69710000  0.39740000  1.0 -0.4794936455
O  O75  1  0.63980000  0.78210000  0.68360000  1.0 -1.0374047683
O  O76  1  0.06340000  0.13060000  0.04150000  1.0 -0.2712891178
O  O77  1  0.99150000  0.29920000  0.89680000  1.0 -0.4913585461
O  O78  1  0.10110000  0.25490000  0.11040000  1.0 -0.430403193
O  O79  1  0.16710000  0.18550000  0.94750000  1.0 -0.6606279539
O  O80  1  0.89690000  0.24620000  0.98030000  1.0 -0.1149940915
O  O81  1  0.72460000  0.84350000  0.81200000  1.0 -0.5237941272
O  O82  1  0.88050000  0.03490000  0.60120000  1.0 -0.9214151627
O  O83  1  0.76240000  0.94010000  0.58220000  1.0 -0.8476671032
O  O84  1  0.60710000  0.02550000  0.48450000  1.0 -0.8250131137
O  O85  1  0.58650000  0.16380000  0.64650000  1.0 -0.9090414352
O  O86  1  0.48540000  0.06100000  0.62710000  1.0 -0.8382074661
O  O87  1  0.59560000  0.18210000  0.53340000  1.0 -1.0122330911
O  O88  1  0.72800000  0.12290000  0.51180000  1.0 -0.9023516801
O  O89  1  0.49010000  0.12310000  0.39900000  1.0 -0.7839571959
O  O90  1  0.81030000  0.16930000  0.73710000  1.0 -0.9090414352
O  O91  1  0.70930000  0.09280000  0.60920000  1.0 -1.0122330911
O  O92  1  0.85680000  0.99890000  0.70890000  1.0 -1.0296770817
O  O93  1  0.69150000  0.15450000  0.78420000  1.0 -0.8910210258
O  O94  1  0.05080000  0.99970000  0.72790000  1.0 -0.9956031567
O  O95  1  0.47040000  0.08590000  0.50430000  1.0 -0.8042023904
O  O96  1  0.30460000  0.13900000  0.52490000  1.0 -0.5110278494
O  O97  1  0.82210000  0.18920000  0.63060000  1.0 -0.9725454575
O  O98  1  0.95540000  0.08320000  0.82270000  1.0 -0.9090414352
O  O99  1  0.84750000  0.96260000  0.82320000  1.0 -0.9310746186
O  O100  1  0.45040000  0.15070000  0.69430000  1.0 -0.71658696
O  O101  1  0.82360000  0.06560000  0.86650000  1.0 -0.938326695
O  O102  1  0.94690000  0.90110000  0.71750000  1.0 -0.9310746186
O  O103  1  0.58990000  0.05510000  0.77380000  1.0 -0.938326695
O  O104  1  0.71500000  0.06160000  0.73090000  1.0 -1.0204685456
O  O105  1  0.96230000  0.10460000  0.71200000  1.0 -0.9497283227
O  O106  1  0.03970000  0.97490000  0.83410000  1.0 -1.0204685456
O  O107  1  0.76240000  0.89230000  0.71230000  1.0 -0.8476671032
O  O108  1  0.92490000  0.17700000  0.88710000  1.0 -0.8082993603
O  O109  1  0.18870000  0.18780000  0.53980000  1.0 -0.5387944705
O  O110  1  0.62400000  0.95140000  0.73190000  1.0 -0.8739158637
O  O111  1  0.72120000  0.80290000  0.89740000  1.0 -0.4794936455
O  O112  1  0.36020000  0.28210000  0.81640000  1.0 -1.0374047683
O  O113  1  0.93660000  0.63060000  0.45850000  1.0 -0.2712891178
O  O114  1  0.00850000  0.79920000  0.60320000  1.0 -0.4964450724
O  O115  1  0.89890000  0.75490000  0.38960000  1.0 -0.430403193
O  O116  1  0.83290000  0.68550000  0.55250000  1.0 -0.6606279539
O  O117  1  0.10310000  0.74620000  0.51970000  1.0 -0.1195868045
O  O118  1  0.27540000  0.34350000  0.68800000  1.0 -0.5264629252
O  O119  1  0.11950000  0.53490000  0.89880000  1.0 -0.9214151627
O  O120  1  0.23760000  0.44010000  0.91780000  1.0 -0.8476671032
O  O121  1  0.39290000  0.52550000  0.01550000  1.0 -0.8242065436
O  O122  1  0.41350000  0.66380000  0.85350000  1.0 -0.9090414352
O  O123  1  0.51460000  0.56100000  0.87290000  1.0 -0.8382074661
O  O124  1  0.40440000  0.68210000  0.96660000  1.0 -1.0122330911
O  O125  1  0.27200000  0.62290000  0.98820000  1.0 -0.9023516801
O  O126  1  0.50990000  0.62310000  0.10100000  1.0 -0.7853018767
O  O127  1  0.18970000  0.66930000  0.76290000  1.0 -0.9090414352
O  O128  1  0.29070000  0.59280000  0.89080000  1.0 -1.0204685456
O  O129  1  0.14320000  0.49890000  0.79110000  1.0 -1.0296770817
O  O130  1  0.30850000  0.65450000  0.71580000  1.0 -0.8910210258
O  O131  1  0.94920000  0.49970000  0.77210000  1.0 -0.9877353039
O  O132  1  0.52960000  0.58590000  0.99570000  1.0 -0.8042023904
O  O133  1  0.69540000  0.63900000  0.97510000  1.0 -0.5110278494
O  O134  1  0.17790000  0.68920000  0.86940000  1.0 -0.9725454575
O  O135  1  0.04460000  0.58320000  0.67730000  1.0 -0.9090414352
O  O136  1  0.15250000  0.46260000  0.67680000  1.0 -0.9310746186
O  O137  1  0.54960000  0.65070000  0.80570000  1.0 -0.71658696
O  O138  1  0.17640000  0.56560000  0.63350000  1.0 -0.938326695
O  O139  1  0.05310000  0.40110000  0.78250000  1.0 -0.9310746186
O  O140  1  0.41010000  0.55510000  0.72620000  1.0 -0.938326695
O  O141  1  0.28500000  0.56160000  0.76910000  1.0 -1.0204685456
O  O142  1  0.03770000  0.60460000  0.78800000  1.0 -0.9497283227
O  O143  1  0.96030000  0.47490000  0.66590000  1.0 -1.0204685456
O  O144  1  0.23760000  0.39230000  0.78770000  1.0 -0.8476671032
O  O145  1  0.07510000  0.67700000  0.61290000  1.0 -0.8082993603
O  O146  1  0.81130000  0.68780000  0.96020000  1.0 -0.5387944705
O  O147  1  0.37600000  0.45140000  0.76810000  1.0 -0.8757923371
O  O148  1  0.27880000  0.30290000  0.60260000  1.0 -0.4794936455
