# DDEC6 charges by PACMAN v1.1 (https://github.com/mtap-research/PACMAN-charge/)
data_JITNUZ_ASR_pacman
_symmetry_space_group_name_H-M   'P 1'
_cell_length_a   29.82700000
_cell_length_b   29.82700000
_cell_length_c   18.51100000
_cell_angle_alpha   90.00000000
_cell_angle_beta   90.00000000
_cell_angle_gamma   90.00000000
_symmetry_Int_Tables_number   1
_chemical_formula_structural   Zn3H32C50(N5O2)4
_chemical_formula_sum   'Zn24 H256 C400 N160 O64'
_cell_volume   16468.30983572
_cell_formula_units_Z   8
loop_
 _symmetry_equiv_pos_site_id
 _symmetry_equiv_pos_as_xyz
  1  'x, y, z'
loop_
 _atom_site_type_symbol
 _atom_site_label
 _atom_site_symmetry_multiplicity
 _atom_site_fract_x
 _atom_site_fract_y
 _atom_site_fract_z
 _atom_site_occupancy
 _atom_site_charge
Zn  Zn1  1  0.46004000  0.53996000  0.25123000  1.0 0.4482999722
Zn  Zn2  1  0.53996000  0.46004000  0.25123000  1.0 0.4482999722
Zn  Zn3  1  0.03996000  0.03996000  0.75123000  1.0 0.4482999722
Zn  Zn4  1  0.96004000  0.96004000  0.75123000  1.0 0.4482999722
Zn  Zn5  1  0.46004000  0.46004000  0.74877000  1.0 0.4482999722
Zn  Zn6  1  0.53996000  0.53996000  0.74877000  1.0 0.4482999722
Zn  Zn7  1  0.03996000  0.96004000  0.24877000  1.0 0.4482999722
Zn  Zn8  1  0.96004000  0.03996000  0.24877000  1.0 0.4482999722
Zn  Zn9  1  0.50000000  0.65649000  0.50000000  1.0 0.6109159122
Zn  Zn10  1  0.50000000  0.34351000  0.50000000  1.0 0.6109159122
Zn  Zn11  1  0.15649000  0.00000000  0.00000000  1.0 0.6109159122
Zn  Zn12  1  0.84351000  0.00000000  0.00000000  1.0 0.6109159122
Zn  Zn13  1  0.00000000  0.84351000  0.00000000  1.0 0.6109159122
Zn  Zn14  1  0.00000000  0.15649000  0.00000000  1.0 0.6109159122
Zn  Zn15  1  0.34351000  0.50000000  0.50000000  1.0 0.6109159122
Zn  Zn16  1  0.65649000  0.50000000  0.50000000  1.0 0.6109159122
Zn  Zn17  1  0.50000000  0.65479000  0.00000000  1.0 0.6109159122
Zn  Zn18  1  0.50000000  0.34521000  0.00000000  1.0 0.6109159122
Zn  Zn19  1  0.15479000  0.00000000  0.50000000  1.0 0.6109159122
Zn  Zn20  1  0.84521000  0.00000000  0.50000000  1.0 0.6109159122
Zn  Zn21  1  0.00000000  0.84521000  0.50000000  1.0 0.6109159122
Zn  Zn22  1  0.00000000  0.15479000  0.50000000  1.0 0.6109159122
Zn  Zn23  1  0.34521000  0.50000000  0.00000000  1.0 0.6109159122
Zn  Zn24  1  0.65479000  0.50000000  0.00000000  1.0 0.6109159122
H  H1  1  0.61886000  0.46841000  0.35092000  1.0 0.0741001273
H  H2  1  0.38114000  0.53159000  0.35092000  1.0 0.0741001273
H  H3  1  0.96841000  0.88114000  0.85092000  1.0 0.0741001273
H  H4  1  0.03159000  0.11886000  0.85092000  1.0 0.0741001273
H  H5  1  0.61886000  0.53159000  0.64908000  1.0 0.0741001273
H  H6  1  0.38114000  0.46841000  0.64908000  1.0 0.0741001273
H  H7  1  0.96841000  0.11886000  0.14908000  1.0 0.0741001273
H  H8  1  0.03159000  0.88114000  0.14908000  1.0 0.0741001273
H  H9  1  0.88114000  0.03159000  0.14908000  1.0 0.0741001273
H  H10  1  0.11886000  0.96841000  0.14908000  1.0 0.0741001273
H  H11  1  0.53159000  0.61886000  0.64908000  1.0 0.0741001273
H  H12  1  0.46841000  0.38114000  0.64908000  1.0 0.0741001273
H  H13  1  0.88114000  0.96841000  0.85092000  1.0 0.0741001273
H  H14  1  0.11886000  0.03159000  0.85092000  1.0 0.0741001273
H  H15  1  0.53159000  0.38114000  0.35092000  1.0 0.0741001273
H  H16  1  0.46841000  0.61886000  0.35092000  1.0 0.0741001273
H  H17  1  0.61377000  0.69380000  0.64127000  1.0 0.0988599398
H  H18  1  0.38623000  0.30620000  0.64127000  1.0 0.0988599398
H  H19  1  0.19380000  0.88623000  0.14127000  1.0 0.0988599398
H  H20  1  0.80620000  0.11377000  0.14127000  1.0 0.0988599398
H  H21  1  0.61377000  0.30620000  0.35873000  1.0 0.0988599398
H  H22  1  0.38623000  0.69380000  0.35873000  1.0 0.0988599398
H  H23  1  0.19380000  0.11377000  0.85873000  1.0 0.0988599398
H  H24  1  0.80620000  0.88623000  0.85873000  1.0 0.0988599398
H  H25  1  0.88623000  0.80620000  0.85873000  1.0 0.0988599398
H  H26  1  0.11377000  0.19380000  0.85873000  1.0 0.0988599398
H  H27  1  0.30620000  0.61377000  0.35873000  1.0 0.0988599398
H  H28  1  0.69380000  0.38623000  0.35873000  1.0 0.0988599398
H  H29  1  0.88623000  0.19380000  0.14127000  1.0 0.0988599398
H  H30  1  0.11377000  0.80620000  0.14127000  1.0 0.0988599398
H  H31  1  0.30620000  0.38623000  0.64127000  1.0 0.0988599398
H  H32  1  0.69380000  0.61377000  0.64127000  1.0 0.0988599398
H  H33  1  0.65975000  0.73658000  0.71598000  1.0 0.1204506719
H  H34  1  0.34025000  0.26342000  0.71598000  1.0 0.1204506719
H  H35  1  0.23658000  0.84025000  0.21598000  1.0 0.1204506719
H  H36  1  0.76342000  0.15975000  0.21598000  1.0 0.1204506719
H  H37  1  0.65975000  0.26342000  0.28402000  1.0 0.1204506719
H  H38  1  0.34025000  0.73658000  0.28402000  1.0 0.1204506719
H  H39  1  0.23658000  0.15975000  0.78402000  1.0 0.1204506719
H  H40  1  0.76342000  0.84025000  0.78402000  1.0 0.1204506719
H  H41  1  0.84025000  0.76342000  0.78402000  1.0 0.1204506719
H  H42  1  0.15975000  0.23658000  0.78402000  1.0 0.1204506719
H  H43  1  0.26342000  0.65975000  0.28402000  1.0 0.1204506719
H  H44  1  0.73658000  0.34025000  0.28402000  1.0 0.1204506719
H  H45  1  0.84025000  0.23658000  0.21598000  1.0 0.1204506719
H  H46  1  0.15975000  0.76342000  0.21598000  1.0 0.1204506719
H  H47  1  0.26342000  0.34025000  0.71598000  1.0 0.1204506719
H  H48  1  0.73658000  0.65975000  0.71598000  1.0 0.1204506719
H  H49  1  0.63280000  0.84583000  0.59489000  1.0 0.1204506719
H  H50  1  0.36720000  0.15417000  0.59489000  1.0 0.1204506719
H  H51  1  0.34583000  0.86720000  0.09489000  1.0 0.1204506719
H  H52  1  0.65417000  0.13280000  0.09489000  1.0 0.1204506719
H  H53  1  0.63280000  0.15417000  0.40511000  1.0 0.1204506719
H  H54  1  0.36720000  0.84583000  0.40511000  1.0 0.1204506719
H  H55  1  0.34583000  0.13280000  0.90511000  1.0 0.1204506719
H  H56  1  0.65417000  0.86720000  0.90511000  1.0 0.1204506719
H  H57  1  0.86720000  0.65417000  0.90511000  1.0 0.1204506719
H  H58  1  0.13280000  0.34583000  0.90511000  1.0 0.1204506719
H  H59  1  0.15417000  0.63280000  0.40511000  1.0 0.1204506719
H  H60  1  0.84583000  0.36720000  0.40511000  1.0 0.1204506719
H  H61  1  0.86720000  0.34583000  0.09489000  1.0 0.1204506719
H  H62  1  0.13280000  0.65417000  0.09489000  1.0 0.1204506719
H  H63  1  0.15417000  0.36720000  0.59489000  1.0 0.1204506719
H  H64  1  0.84583000  0.63280000  0.59489000  1.0 0.1204506719
H  H65  1  0.58765000  0.80231000  0.52007000  1.0 0.1204506719
H  H66  1  0.41235000  0.19769000  0.52007000  1.0 0.1204506719
H  H67  1  0.30231000  0.91235000  0.02007000  1.0 0.1204506719
H  H68  1  0.69769000  0.08765000  0.02007000  1.0 0.1204506719
H  H69  1  0.58765000  0.19769000  0.47993000  1.0 0.1204506719
H  H70  1  0.41235000  0.80231000  0.47993000  1.0 0.1204506719
H  H71  1  0.30231000  0.08765000  0.97993000  1.0 0.1204506719
H  H72  1  0.69769000  0.91235000  0.97993000  1.0 0.1204506719
H  H73  1  0.91235000  0.69769000  0.97993000  1.0 0.1204506719
H  H74  1  0.08765000  0.30231000  0.97993000  1.0 0.1204506719
H  H75  1  0.19769000  0.58765000  0.47993000  1.0 0.1204506719
H  H76  1  0.80231000  0.41235000  0.47993000  1.0 0.1204506719
H  H77  1  0.91235000  0.30231000  0.02007000  1.0 0.1204506719
H  H78  1  0.08765000  0.69769000  0.02007000  1.0 0.1204506719
H  H79  1  0.19769000  0.41235000  0.52007000  1.0 0.1204506719
H  H80  1  0.80231000  0.58765000  0.52007000  1.0 0.1204506719
H  H81  1  0.73973000  0.81534000  0.61426000  1.0 0.1275711198
H  H82  1  0.26027000  0.18466000  0.61426000  1.0 0.1275711198
H  H83  1  0.31534000  0.76027000  0.11426000  1.0 0.1275711198
H  H84  1  0.68466000  0.23973000  0.11426000  1.0 0.1275711198
H  H85  1  0.73973000  0.18466000  0.38574000  1.0 0.1275711198
H  H86  1  0.26027000  0.81534000  0.38574000  1.0 0.1275711198
H  H87  1  0.31534000  0.23973000  0.88574000  1.0 0.1275711198
H  H88  1  0.68466000  0.76027000  0.88574000  1.0 0.1275711198
H  H89  1  0.76027000  0.68466000  0.88574000  1.0 0.1275711198
H  H90  1  0.23973000  0.31534000  0.88574000  1.0 0.1275711198
H  H91  1  0.18466000  0.73973000  0.38574000  1.0 0.1275711198
H  H92  1  0.81534000  0.26027000  0.38574000  1.0 0.1275711198
H  H93  1  0.76027000  0.31534000  0.11426000  1.0 0.1275711198
H  H94  1  0.23973000  0.68466000  0.11426000  1.0 0.1275711198
H  H95  1  0.18466000  0.26027000  0.61426000  1.0 0.1275711198
H  H96  1  0.81534000  0.73973000  0.61426000  1.0 0.1275711198
H  H97  1  0.78736000  0.86970000  0.56275000  1.0 0.1078708315
H  H98  1  0.21264000  0.13030000  0.56275000  1.0 0.1078708315
H  H99  1  0.36970000  0.71264000  0.06275000  1.0 0.1078708315
H  H100  1  0.63030000  0.28736000  0.06275000  1.0 0.1078708315
H  H101  1  0.78736000  0.13030000  0.43725000  1.0 0.1078708315
H  H102  1  0.21264000  0.86970000  0.43725000  1.0 0.1078708315
H  H103  1  0.36970000  0.28736000  0.93725000  1.0 0.1078708315
H  H104  1  0.63030000  0.71264000  0.93725000  1.0 0.1078708315
H  H105  1  0.71264000  0.63030000  0.93725000  1.0 0.1078708315
H  H106  1  0.28736000  0.36970000  0.93725000  1.0 0.1078708315
H  H107  1  0.13030000  0.78736000  0.43725000  1.0 0.1078708315
H  H108  1  0.86970000  0.21264000  0.43725000  1.0 0.1078708315
H  H109  1  0.71264000  0.36970000  0.06275000  1.0 0.1078708315
H  H110  1  0.28736000  0.63030000  0.06275000  1.0 0.1078708315
H  H111  1  0.13030000  0.21264000  0.56275000  1.0 0.1078708315
H  H112  1  0.86970000  0.78736000  0.56275000  1.0 0.1078708315
H  H113  1  0.71950000  0.96734000  0.66584000  1.0 0.1275711198
H  H114  1  0.28050000  0.03266000  0.66584000  1.0 0.1275711198
H  H115  1  0.46734000  0.78050000  0.16584000  1.0 0.1275711198
H  H116  1  0.53266000  0.21950000  0.16584000  1.0 0.1275711198
H  H117  1  0.71950000  0.03266000  0.33416000  1.0 0.1275711198
H  H118  1  0.28050000  0.96734000  0.33416000  1.0 0.1275711198
H  H119  1  0.46734000  0.21950000  0.83416000  1.0 0.1275711198
H  H120  1  0.53266000  0.78050000  0.83416000  1.0 0.1275711198
H  H121  1  0.78050000  0.53266000  0.83416000  1.0 0.1275711198
H  H122  1  0.21950000  0.46734000  0.83416000  1.0 0.1275711198
H  H123  1  0.03266000  0.71950000  0.33416000  1.0 0.1275711198
H  H124  1  0.96734000  0.28050000  0.33416000  1.0 0.1275711198
H  H125  1  0.78050000  0.46734000  0.16584000  1.0 0.1275711198
H  H126  1  0.21950000  0.53266000  0.16584000  1.0 0.1275711198
H  H127  1  0.03266000  0.28050000  0.66584000  1.0 0.1275711198
H  H128  1  0.96734000  0.71950000  0.66584000  1.0 0.1275711198
H  H129  1  0.67589000  0.91294000  0.72299000  1.0 0.1275711198
H  H130  1  0.32411000  0.08706000  0.72299000  1.0 0.1275711198
H  H131  1  0.41294000  0.82411000  0.22299000  1.0 0.1275711198
H  H132  1  0.58706000  0.17589000  0.22299000  1.0 0.1275711198
H  H133  1  0.67589000  0.08706000  0.27701000  1.0 0.1275711198
H  H134  1  0.32411000  0.91294000  0.27701000  1.0 0.1275711198
H  H135  1  0.41294000  0.17589000  0.77701000  1.0 0.1275711198
H  H136  1  0.58706000  0.82411000  0.77701000  1.0 0.1275711198
H  H137  1  0.82411000  0.58706000  0.77701000  1.0 0.1275711198
H  H138  1  0.17589000  0.41294000  0.77701000  1.0 0.1275711198
H  H139  1  0.08706000  0.67589000  0.27701000  1.0 0.1275711198
H  H140  1  0.91294000  0.32411000  0.27701000  1.0 0.1275711198
H  H141  1  0.82411000  0.41294000  0.22299000  1.0 0.1275711198
H  H142  1  0.17589000  0.58706000  0.22299000  1.0 0.1275711198
H  H143  1  0.08706000  0.32411000  0.72299000  1.0 0.1275711198
H  H144  1  0.91294000  0.67589000  0.72299000  1.0 0.1275711198
H  H145  1  0.86891000  0.08206000  0.47888000  1.0 0.1480227368
H  H146  1  0.13109000  0.91794000  0.47888000  1.0 0.1480227368
H  H147  1  0.58206000  0.63109000  0.97888000  1.0 0.1480227368
H  H148  1  0.41794000  0.36891000  0.97888000  1.0 0.1480227368
H  H149  1  0.86891000  0.91794000  0.52112000  1.0 0.1480227368
H  H150  1  0.13109000  0.08206000  0.52112000  1.0 0.1400592355
H  H151  1  0.58206000  0.36891000  0.02112000  1.0 0.1480227368
H  H152  1  0.41794000  0.63109000  0.02112000  1.0 0.1480227368
H  H153  1  0.63109000  0.41794000  0.02112000  1.0 0.1480227368
H  H154  1  0.36891000  0.58206000  0.02112000  1.0 0.1480227368
H  H155  1  0.91794000  0.86891000  0.52112000  1.0 0.1480227368
H  H156  1  0.08206000  0.13109000  0.52112000  1.0 0.1400592355
H  H157  1  0.63109000  0.58206000  0.97888000  1.0 0.1480227368
H  H158  1  0.36891000  0.41794000  0.97888000  1.0 0.1480227368
H  H159  1  0.91794000  0.13109000  0.47888000  1.0 0.1480227368
H  H160  1  0.08206000  0.86891000  0.47888000  1.0 0.1480227368
H  H161  1  0.03446000  0.12014000  0.65245000  1.0 0.0565385309
H  H162  1  0.96554000  0.87986000  0.65245000  1.0 0.0565385309
H  H163  1  0.62014000  0.46554000  0.15245000  1.0 0.0565385309
H  H164  1  0.37986000  0.53446000  0.15245000  1.0 0.0565385309
H  H165  1  0.03446000  0.87986000  0.34755000  1.0 0.0565385309
H  H166  1  0.96554000  0.12014000  0.34755000  1.0 0.0565385309
H  H167  1  0.62014000  0.53446000  0.84755000  1.0 0.0565385309
H  H168  1  0.37986000  0.46554000  0.84755000  1.0 0.0565385309
H  H169  1  0.46554000  0.37986000  0.84755000  1.0 0.0565385309
H  H170  1  0.53446000  0.62014000  0.84755000  1.0 0.0565385309
H  H171  1  0.87986000  0.03446000  0.34755000  1.0 0.0565385309
H  H172  1  0.12014000  0.96554000  0.34755000  1.0 0.0565385309
H  H173  1  0.46554000  0.62014000  0.15245000  1.0 0.0565385309
H  H174  1  0.53446000  0.37986000  0.15245000  1.0 0.0565385309
H  H175  1  0.87986000  0.96554000  0.65245000  1.0 0.0565385309
H  H176  1  0.12014000  0.03446000  0.65245000  1.0 0.0565385309
H  H177  1  0.88414000  0.97289000  0.63499000  1.0 0.1078708315
H  H178  1  0.11586000  0.02711000  0.63499000  1.0 0.1078708315
H  H179  1  0.47289000  0.61586000  0.13499000  1.0 0.1078708315
H  H180  1  0.52711000  0.38414000  0.13499000  1.0 0.1078708315
H  H181  1  0.88414000  0.02711000  0.36501000  1.0 0.1078708315
H  H182  1  0.11586000  0.97289000  0.36501000  1.0 0.1078708315
H  H183  1  0.47289000  0.38414000  0.86501000  1.0 0.1078708315
H  H184  1  0.52711000  0.61586000  0.86501000  1.0 0.1078708315
H  H185  1  0.61586000  0.52711000  0.86501000  1.0 0.1078708315
H  H186  1  0.38414000  0.47289000  0.86501000  1.0 0.1078708315
H  H187  1  0.02711000  0.88414000  0.36501000  1.0 0.1078708315
H  H188  1  0.97289000  0.11586000  0.36501000  1.0 0.1078708315
H  H189  1  0.61586000  0.47289000  0.13499000  1.0 0.1078708315
H  H190  1  0.38414000  0.52711000  0.13499000  1.0 0.1078708315
H  H191  1  0.02711000  0.11586000  0.63499000  1.0 0.1078708315
H  H192  1  0.97289000  0.88414000  0.63499000  1.0 0.1078708315
H  H193  1  0.57876000  0.62905000  0.52869000  1.0 0.1400592355
H  H194  1  0.42124000  0.37095000  0.52869000  1.0 0.1400592355
H  H195  1  0.12905000  0.92124000  0.02869000  1.0 0.1400592355
H  H196  1  0.87095000  0.07876000  0.02869000  1.0 0.1400592355
H  H197  1  0.57876000  0.37095000  0.47131000  1.0 0.1400592355
H  H198  1  0.42124000  0.62905000  0.47131000  1.0 0.1400592355
H  H199  1  0.12905000  0.07876000  0.97131000  1.0 0.1400592355
H  H200  1  0.87095000  0.92124000  0.97131000  1.0 0.1400592355
H  H201  1  0.92124000  0.87095000  0.97131000  1.0 0.1400592355
H  H202  1  0.07876000  0.12905000  0.97131000  1.0 0.1400592355
H  H203  1  0.37095000  0.57876000  0.47131000  1.0 0.1400592355
H  H204  1  0.62905000  0.42124000  0.47131000  1.0 0.1400592355
H  H205  1  0.92124000  0.12905000  0.02869000  1.0 0.1400592355
H  H206  1  0.07876000  0.87095000  0.02869000  1.0 0.1400592355
H  H207  1  0.37095000  0.42124000  0.52869000  1.0 0.1400592355
H  H208  1  0.62905000  0.57876000  0.52869000  1.0 0.1400592355
H  H209  1  0.61740000  0.60019000  0.52862000  1.0 0.1580203295
H  H210  1  0.38260000  0.39981000  0.52862000  1.0 0.1580203295
H  H211  1  0.10019000  0.88260000  0.02862000  1.0 0.1580203295
H  H212  1  0.89981000  0.11740000  0.02862000  1.0 0.1580203295
H  H213  1  0.61740000  0.39981000  0.47138000  1.0 0.1580203295
H  H214  1  0.38260000  0.60019000  0.47138000  1.0 0.1580203295
H  H215  1  0.10019000  0.11740000  0.97138000  1.0 0.1580203295
H  H216  1  0.89981000  0.88260000  0.97138000  1.0 0.1580203295
H  H217  1  0.88260000  0.89981000  0.97138000  1.0 0.1580203295
H  H218  1  0.11740000  0.10019000  0.97138000  1.0 0.1580203295
H  H219  1  0.39981000  0.61740000  0.47138000  1.0 0.1580203295
H  H220  1  0.60019000  0.38260000  0.47138000  1.0 0.1580203295
H  H221  1  0.88260000  0.10019000  0.02862000  1.0 0.1580203295
H  H222  1  0.11740000  0.89981000  0.02862000  1.0 0.1580203295
H  H223  1  0.39981000  0.38260000  0.52862000  1.0 0.1580203295
H  H224  1  0.60019000  0.61740000  0.52862000  1.0 0.1580203295
H  H225  1  0.47146000  0.61605000  0.36932000  1.0 0.0988599398
H  H226  1  0.52854000  0.38395000  0.36932000  1.0 0.0988599398
H  H227  1  0.11605000  0.02854000  0.86932000  1.0 0.0988599398
H  H228  1  0.88395000  0.97146000  0.86932000  1.0 0.0988599398
H  H229  1  0.47146000  0.38395000  0.63068000  1.0 0.0988599398
H  H230  1  0.52854000  0.61605000  0.63068000  1.0 0.0988599398
H  H231  1  0.11605000  0.97146000  0.13068000  1.0 0.0988599398
H  H232  1  0.88395000  0.02854000  0.13068000  1.0 0.0988599398
H  H233  1  0.02854000  0.88395000  0.13068000  1.0 0.0988599398
H  H234  1  0.97146000  0.11605000  0.13068000  1.0 0.0988599398
H  H235  1  0.38395000  0.47146000  0.63068000  1.0 0.0988599398
H  H236  1  0.61605000  0.52854000  0.63068000  1.0 0.0988599398
H  H237  1  0.02854000  0.11605000  0.86932000  1.0 0.0988599398
H  H238  1  0.97146000  0.88395000  0.86932000  1.0 0.0988599398
H  H239  1  0.38395000  0.52854000  0.36932000  1.0 0.0988599398
H  H240  1  0.61605000  0.47146000  0.36932000  1.0 0.0988599398
H  H241  1  0.89988000  0.11913000  0.47463000  1.0 0.1480227368
H  H242  1  0.10012000  0.88087000  0.47463000  1.0 0.1480227368
H  H243  1  0.61913000  0.60012000  0.97463000  1.0 0.1480227368
H  H244  1  0.38087000  0.39988000  0.97463000  1.0 0.1480227368
H  H245  1  0.89988000  0.88087000  0.52537000  1.0 0.1480227368
H  H246  1  0.10012000  0.11913000  0.52537000  1.0 0.1480227368
H  H247  1  0.61913000  0.39988000  0.02537000  1.0 0.1480227368
H  H248  1  0.38087000  0.60012000  0.02537000  1.0 0.1480227368
H  H249  1  0.60012000  0.38087000  0.02537000  1.0 0.1480227368
H  H250  1  0.39988000  0.61913000  0.02537000  1.0 0.1480227368
H  H251  1  0.88087000  0.89988000  0.52537000  1.0 0.1480227368
H  H252  1  0.11913000  0.10012000  0.52537000  1.0 0.1480227368
H  H253  1  0.60012000  0.61913000  0.97463000  1.0 0.1480227368
H  H254  1  0.39988000  0.38087000  0.97463000  1.0 0.1480227368
H  H255  1  0.88087000  0.10012000  0.47463000  1.0 0.1480227368
H  H256  1  0.11913000  0.89988000  0.47463000  1.0 0.1480227368
C  C1  1  0.49794000  0.59970000  0.38030000  1.0 0.1480227368
C  C2  1  0.50206000  0.40030000  0.38030000  1.0 0.1480227368
C  C3  1  0.09970000  0.00206000  0.88030000  1.0 0.1480227368
C  C4  1  0.90030000  0.99794000  0.88030000  1.0 0.1480227368
C  C5  1  0.49794000  0.40030000  0.61970000  1.0 0.1480227368
C  C6  1  0.50206000  0.59970000  0.61970000  1.0 0.1480227368
C  C7  1  0.09970000  0.99794000  0.11970000  1.0 0.1480227368
C  C8  1  0.90030000  0.00206000  0.11970000  1.0 0.1480227368
C  C9  1  0.00206000  0.90030000  0.11970000  1.0 0.1480227368
C  C10  1  0.99794000  0.09970000  0.11970000  1.0 0.1480227368
C  C11  1  0.40030000  0.49794000  0.61970000  1.0 0.1480227368
C  C12  1  0.59970000  0.50206000  0.61970000  1.0 0.1480227368
C  C13  1  0.00206000  0.09970000  0.88030000  1.0 0.1480227368
C  C14  1  0.99794000  0.90030000  0.88030000  1.0 0.1480227368
C  C15  1  0.40030000  0.50206000  0.38030000  1.0 0.1480227368
C  C16  1  0.59970000  0.49794000  0.38030000  1.0 0.1480227368
C  C17  1  0.56406000  0.58937000  0.45299000  1.0 0.1275711198
C  C18  1  0.43594000  0.41063000  0.45299000  1.0 0.1275711198
C  C19  1  0.08937000  0.93594000  0.95299000  1.0 0.1275711198
C  C20  1  0.91063000  0.06406000  0.95299000  1.0 0.1275711198
C  C21  1  0.56406000  0.41063000  0.54701000  1.0 0.1275711198
C  C22  1  0.43594000  0.58937000  0.54701000  1.0 0.1275711198
C  C23  1  0.08937000  0.06406000  0.04701000  1.0 0.1275711198
C  C24  1  0.91063000  0.93594000  0.04701000  1.0 0.1275711198
C  C25  1  0.93594000  0.91063000  0.04701000  1.0 0.1275711198
C  C26  1  0.06406000  0.08937000  0.04701000  1.0 0.1275711198
C  C27  1  0.41063000  0.56406000  0.54701000  1.0 0.1275711198
C  C28  1  0.58937000  0.43594000  0.54701000  1.0 0.1275711198
C  C29  1  0.93594000  0.08937000  0.95299000  1.0 0.1275711198
C  C30  1  0.06406000  0.91063000  0.95299000  1.0 0.1275711198
C  C31  1  0.41063000  0.43594000  0.45299000  1.0 0.1275711198
C  C32  1  0.58937000  0.56406000  0.45299000  1.0 0.1275711198
C  C33  1  0.57540000  0.55185000  0.41236000  1.0 0.0565385309
C  C34  1  0.42460000  0.44815000  0.41236000  1.0 0.0565385309
C  C35  1  0.05185000  0.92460000  0.91236000  1.0 0.0565385309
C  C36  1  0.94815000  0.07540000  0.91236000  1.0 0.0565385309
C  C37  1  0.57540000  0.44815000  0.58764000  1.0 0.0565385309
C  C38  1  0.42460000  0.55185000  0.58764000  1.0 0.0565385309
C  C39  1  0.05185000  0.07540000  0.08764000  1.0 0.0565385309
C  C40  1  0.94815000  0.92460000  0.08764000  1.0 0.0565385309
C  C41  1  0.92460000  0.94815000  0.08764000  1.0 0.0565385309
C  C42  1  0.07540000  0.05185000  0.08764000  1.0 0.0565385309
C  C43  1  0.44815000  0.57540000  0.58764000  1.0 0.0565385309
C  C44  1  0.55185000  0.42460000  0.58764000  1.0 0.0565385309
C  C45  1  0.92460000  0.05185000  0.91236000  1.0 0.0565385309
C  C46  1  0.07540000  0.94815000  0.91236000  1.0 0.0565385309
C  C47  1  0.44815000  0.42460000  0.41236000  1.0 0.0565385309
C  C48  1  0.55185000  0.57540000  0.41236000  1.0 0.0565385309
C  C49  1  0.54801000  0.53826000  0.35569000  1.0 0.1932173798
C  C50  1  0.45199000  0.46174000  0.35569000  1.0 0.1932173798
C  C51  1  0.03826000  0.95199000  0.85569000  1.0 0.1932173798
C  C52  1  0.96174000  0.04801000  0.85569000  1.0 0.1932173798
C  C53  1  0.54801000  0.46174000  0.64431000  1.0 0.1932173798
C  C54  1  0.45199000  0.53826000  0.64431000  1.0 0.1932173798
C  C55  1  0.03826000  0.04801000  0.14431000  1.0 0.1932173798
C  C56  1  0.96174000  0.95199000  0.14431000  1.0 0.1932173798
C  C57  1  0.95199000  0.96174000  0.14431000  1.0 0.1932173798
C  C58  1  0.04801000  0.03826000  0.14431000  1.0 0.1932173798
C  C59  1  0.46174000  0.54801000  0.64431000  1.0 0.1932173798
C  C60  1  0.53826000  0.45199000  0.64431000  1.0 0.1932173798
C  C61  1  0.95199000  0.03826000  0.85569000  1.0 0.1932173798
C  C62  1  0.04801000  0.96174000  0.85569000  1.0 0.1932173798
C  C63  1  0.46174000  0.45199000  0.35569000  1.0 0.1932173798
C  C64  1  0.53826000  0.54801000  0.35569000  1.0 0.1932173798
C  C65  1  0.60020000  0.49340000  0.36150000  1.0 0.0988599398
C  C66  1  0.39980000  0.50660000  0.36150000  1.0 0.0988599398
C  C67  1  0.99340000  0.89980000  0.86150000  1.0 0.0988599398
C  C68  1  0.00660000  0.10020000  0.86150000  1.0 0.0988599398
C  C69  1  0.60020000  0.50660000  0.63850000  1.0 0.0988599398
C  C70  1  0.39980000  0.49340000  0.63850000  1.0 0.0988599398
C  C71  1  0.99340000  0.10020000  0.13850000  1.0 0.0988599398
C  C72  1  0.00660000  0.89980000  0.13850000  1.0 0.0944023708
C  C73  1  0.89980000  0.00660000  0.13850000  1.0 0.0988599398
C  C74  1  0.10020000  0.99340000  0.13850000  1.0 0.0944023708
C  C75  1  0.50660000  0.60020000  0.63850000  1.0 0.0988599398
C  C76  1  0.49340000  0.39980000  0.63850000  1.0 0.0988599398
C  C77  1  0.89980000  0.99340000  0.86150000  1.0 0.0988599398
C  C78  1  0.10020000  0.00660000  0.86150000  1.0 0.0988599398
C  C79  1  0.50660000  0.39980000  0.36150000  1.0 0.0988599398
C  C80  1  0.49340000  0.60020000  0.36150000  1.0 0.0988599398
C  C81  1  0.56414000  0.71737000  0.52830000  1.0 0.5486959944
C  C82  1  0.43586000  0.28263000  0.52830000  1.0 0.5486959944
C  C83  1  0.21737000  0.93586000  0.02830000  1.0 0.5486959944
C  C84  1  0.78263000  0.06414000  0.02830000  1.0 0.5486959944
C  C85  1  0.56414000  0.28263000  0.47170000  1.0 0.5486959944
C  C86  1  0.43586000  0.71737000  0.47170000  1.0 0.5486959944
C  C87  1  0.21737000  0.06414000  0.97170000  1.0 0.5486959944
C  C88  1  0.78263000  0.93586000  0.97170000  1.0 0.5486959944
C  C89  1  0.93586000  0.78263000  0.97170000  1.0 0.5486959944
C  C90  1  0.06414000  0.21737000  0.97170000  1.0 0.5486959944
C  C91  1  0.28263000  0.56414000  0.47170000  1.0 0.5486959944
C  C92  1  0.71737000  0.43586000  0.47170000  1.0 0.5486959944
C  C93  1  0.93586000  0.21737000  0.02830000  1.0 0.5486959944
C  C94  1  0.06414000  0.78263000  0.02830000  1.0 0.5486959944
C  C95  1  0.28263000  0.43586000  0.52830000  1.0 0.5486959944
C  C96  1  0.71737000  0.56414000  0.52830000  1.0 0.5486959944
C  C97  1  0.59557000  0.74381000  0.57297000  1.0 -0.0369707552
C  C98  1  0.40443000  0.25619000  0.57297000  1.0 -0.0369707552
C  C99  1  0.24381000  0.90443000  0.07297000  1.0 -0.0349657555
C  C100  1  0.75619000  0.09557000  0.07297000  1.0 -0.0369707552
C  C101  1  0.59557000  0.25619000  0.42703000  1.0 -0.0349657555
C  C102  1  0.40443000  0.74381000  0.42703000  1.0 -0.0369707552
C  C103  1  0.24381000  0.09557000  0.92703000  1.0 -0.0369707552
C  C104  1  0.75619000  0.90443000  0.92703000  1.0 -0.0349657555
C  C105  1  0.90443000  0.75619000  0.92703000  1.0 -0.0349657555
C  C106  1  0.09557000  0.24381000  0.92703000  1.0 -0.0369707552
C  C107  1  0.25619000  0.59557000  0.42703000  1.0 -0.0369707552
C  C108  1  0.74381000  0.40443000  0.42703000  1.0 -0.0369707552
C  C109  1  0.90443000  0.24381000  0.07297000  1.0 -0.0349657555
C  C110  1  0.09557000  0.75619000  0.07297000  1.0 -0.0369707552
C  C111  1  0.25619000  0.40443000  0.57297000  1.0 -0.0369707552
C  C112  1  0.74381000  0.59557000  0.57297000  1.0 -0.0369707552
C  C113  1  0.61746000  0.72487000  0.63165000  1.0 -0.1102144496
C  C114  1  0.38254000  0.27513000  0.63165000  1.0 -0.1102144496
C  C115  1  0.22487000  0.88254000  0.13165000  1.0 -0.1159629693
C  C116  1  0.77513000  0.11746000  0.13165000  1.0 -0.1102144496
C  C117  1  0.61746000  0.27513000  0.36835000  1.0 -0.1102144496
C  C118  1  0.38254000  0.72487000  0.36835000  1.0 -0.1102144496
C  C119  1  0.22487000  0.11746000  0.86835000  1.0 -0.1102144496
C  C120  1  0.77513000  0.88254000  0.86835000  1.0 -0.1159629693
C  C121  1  0.88254000  0.77513000  0.86835000  1.0 -0.1159629693
C  C122  1  0.11746000  0.22487000  0.86835000  1.0 -0.1102144496
C  C123  1  0.27513000  0.61746000  0.36835000  1.0 -0.1102144496
C  C124  1  0.72487000  0.38254000  0.36835000  1.0 -0.1102144496
C  C125  1  0.88254000  0.22487000  0.13165000  1.0 -0.1159629693
C  C126  1  0.11746000  0.77513000  0.13165000  1.0 -0.1102144496
C  C127  1  0.27513000  0.38254000  0.63165000  1.0 -0.1102144496
C  C128  1  0.72487000  0.61746000  0.63165000  1.0 -0.1102144496
C  C129  1  0.64467000  0.75039000  0.67663000  1.0 -0.1507320463
C  C130  1  0.35533000  0.24961000  0.67663000  1.0 -0.1507320463
C  C131  1  0.25039000  0.85533000  0.17663000  1.0 -0.1507320463
C  C132  1  0.74961000  0.14467000  0.17663000  1.0 -0.1507320463
C  C133  1  0.64467000  0.24961000  0.32337000  1.0 -0.1507320463
C  C134  1  0.35533000  0.75039000  0.32337000  1.0 -0.1507320463
C  C135  1  0.25039000  0.14467000  0.82337000  1.0 -0.1507320463
C  C136  1  0.74961000  0.85533000  0.82337000  1.0 -0.1507320463
C  C137  1  0.85533000  0.74961000  0.82337000  1.0 -0.1507320463
C  C138  1  0.14467000  0.25039000  0.82337000  1.0 -0.1507320463
C  C139  1  0.24961000  0.64467000  0.32337000  1.0 -0.1507320463
C  C140  1  0.75039000  0.35533000  0.32337000  1.0 -0.1507320463
C  C141  1  0.85533000  0.25039000  0.17663000  1.0 -0.1507320463
C  C142  1  0.14467000  0.74961000  0.17663000  1.0 -0.1507320463
C  C143  1  0.24961000  0.35533000  0.67663000  1.0 -0.1507320463
C  C144  1  0.75039000  0.64467000  0.67663000  1.0 -0.1507320463
C  C145  1  0.64987000  0.79583000  0.66429000  1.0 0.0794535562
C  C146  1  0.35013000  0.20417000  0.66429000  1.0 0.0794535562
C  C147  1  0.29583000  0.85013000  0.16429000  1.0 0.0794535562
C  C148  1  0.70417000  0.14987000  0.16429000  1.0 0.0794535562
C  C149  1  0.64987000  0.20417000  0.33571000  1.0 0.0794535562
C  C150  1  0.35013000  0.79583000  0.33571000  1.0 0.0794535562
C  C151  1  0.29583000  0.14987000  0.83571000  1.0 0.0794535562
C  C152  1  0.70417000  0.85013000  0.83571000  1.0 0.0794535562
C  C153  1  0.85013000  0.70417000  0.83571000  1.0 0.0794535562
C  C154  1  0.14987000  0.29583000  0.83571000  1.0 0.0794535562
C  C155  1  0.20417000  0.64987000  0.33571000  1.0 0.0794535562
C  C156  1  0.79583000  0.35013000  0.33571000  1.0 0.0794535562
C  C157  1  0.85013000  0.29583000  0.16429000  1.0 0.0794535562
C  C158  1  0.14987000  0.70417000  0.16429000  1.0 0.0794535562
C  C159  1  0.20417000  0.35013000  0.66429000  1.0 0.0794535562
C  C160  1  0.79583000  0.64987000  0.66429000  1.0 0.0794535562
C  C161  1  0.62885000  0.81486000  0.60504000  1.0 -0.1604106815
C  C162  1  0.37115000  0.18514000  0.60504000  1.0 -0.1604106815
C  C163  1  0.31486000  0.87115000  0.10504000  1.0 -0.1604106815
C  C164  1  0.68514000  0.12885000  0.10504000  1.0 -0.1604106815
C  C165  1  0.62885000  0.18514000  0.39496000  1.0 -0.1604106815
C  C166  1  0.37115000  0.81486000  0.39496000  1.0 -0.1604106815
C  C167  1  0.31486000  0.12885000  0.89496000  1.0 -0.1604106815
C  C168  1  0.68514000  0.87115000  0.89496000  1.0 -0.1604106815
C  C169  1  0.87115000  0.68514000  0.89496000  1.0 -0.1604106815
C  C170  1  0.12885000  0.31486000  0.89496000  1.0 -0.1604106815
C  C171  1  0.18514000  0.62885000  0.39496000  1.0 -0.1604106815
C  C172  1  0.81486000  0.37115000  0.39496000  1.0 -0.1604106815
C  C173  1  0.87115000  0.31486000  0.10504000  1.0 -0.1604106815
C  C174  1  0.12885000  0.68514000  0.10504000  1.0 -0.1604106815
C  C175  1  0.18514000  0.37115000  0.60504000  1.0 -0.1604106815
C  C176  1  0.81486000  0.62885000  0.60504000  1.0 -0.1604106815
C  C177  1  0.60196000  0.78873000  0.56036000  1.0 -0.0807676484
C  C178  1  0.39804000  0.21127000  0.56036000  1.0 -0.0807676484
C  C179  1  0.28873000  0.89804000  0.06036000  1.0 -0.0807676484
C  C180  1  0.71127000  0.10196000  0.06036000  1.0 -0.0807676484
C  C181  1  0.60196000  0.21127000  0.43964000  1.0 -0.0807676484
C  C182  1  0.39804000  0.78873000  0.43964000  1.0 -0.0807676484
C  C183  1  0.28873000  0.10196000  0.93964000  1.0 -0.0807676484
C  C184  1  0.71127000  0.89804000  0.93964000  1.0 -0.0807676484
C  C185  1  0.89804000  0.71127000  0.93964000  1.0 -0.0807676484
C  C186  1  0.10196000  0.28873000  0.93964000  1.0 -0.0807676484
C  C187  1  0.21127000  0.60196000  0.43964000  1.0 -0.0807676484
C  C188  1  0.78873000  0.39804000  0.43964000  1.0 -0.0807676484
C  C189  1  0.89804000  0.28873000  0.06036000  1.0 -0.0807676484
C  C190  1  0.10196000  0.71127000  0.06036000  1.0 -0.0807676484
C  C191  1  0.21127000  0.39804000  0.56036000  1.0 -0.0807676484
C  C192  1  0.78873000  0.60196000  0.56036000  1.0 -0.0807676484
C  C193  1  0.49906000  0.59922000  0.12330000  1.0 0.1400592355
C  C194  1  0.50094000  0.40078000  0.12330000  1.0 0.1400592355
C  C195  1  0.09922000  0.00094000  0.62330000  1.0 0.1400592355
C  C196  1  0.90078000  0.99906000  0.62330000  1.0 0.1400592355
C  C197  1  0.49906000  0.40078000  0.87670000  1.0 0.1400592355
C  C198  1  0.50094000  0.59922000  0.87670000  1.0 0.1400592355
C  C199  1  0.09922000  0.99906000  0.37670000  1.0 0.1400592355
C  C200  1  0.90078000  0.00094000  0.37670000  1.0 0.1400592355
C  C201  1  0.00094000  0.90078000  0.37670000  1.0 0.1400592355
C  C202  1  0.99906000  0.09922000  0.37670000  1.0 0.1400592355
C  C203  1  0.40078000  0.49906000  0.87670000  1.0 0.1400592355
C  C204  1  0.59922000  0.50094000  0.87670000  1.0 0.1400592355
C  C205  1  0.00094000  0.09922000  0.62330000  1.0 0.1400592355
C  C206  1  0.99906000  0.90078000  0.62330000  1.0 0.1400592355
C  C207  1  0.40078000  0.50094000  0.12330000  1.0 0.1400592355
C  C208  1  0.59922000  0.49906000  0.12330000  1.0 0.1400592355
C  C209  1  0.56439000  0.58830000  0.04895000  1.0 0.1400592355
C  C210  1  0.43561000  0.41170000  0.04895000  1.0 0.1400592355
C  C211  1  0.08830000  0.93561000  0.54895000  1.0 0.1400592355
C  C212  1  0.91170000  0.06439000  0.54895000  1.0 0.1400592355
C  C213  1  0.56439000  0.41170000  0.95105000  1.0 0.1400592355
C  C214  1  0.43561000  0.58830000  0.95105000  1.0 0.1400592355
C  C215  1  0.08830000  0.06439000  0.45105000  1.0 0.1400592355
C  C216  1  0.91170000  0.93561000  0.45105000  1.0 0.1400592355
C  C217  1  0.93561000  0.91170000  0.45105000  1.0 0.1400592355
C  C218  1  0.06439000  0.08830000  0.45105000  1.0 0.1400592355
C  C219  1  0.41170000  0.56439000  0.95105000  1.0 0.1400592355
C  C220  1  0.58830000  0.43561000  0.95105000  1.0 0.1400592355
C  C221  1  0.93561000  0.08830000  0.54895000  1.0 0.1400592355
C  C222  1  0.06439000  0.91170000  0.54895000  1.0 0.1400592355
C  C223  1  0.41170000  0.43561000  0.04895000  1.0 0.1400592355
C  C224  1  0.58830000  0.56439000  0.04895000  1.0 0.1400592355
C  C225  1  0.57564000  0.55053000  0.08902000  1.0 0.0565385309
C  C226  1  0.42436000  0.44947000  0.08902000  1.0 0.0565385309
C  C227  1  0.05053000  0.92436000  0.58902000  1.0 0.0565385309
C  C228  1  0.94947000  0.07564000  0.58902000  1.0 0.0565385309
C  C229  1  0.57564000  0.44947000  0.91098000  1.0 0.0565385309
C  C230  1  0.42436000  0.55053000  0.91098000  1.0 0.0565385309
C  C231  1  0.05053000  0.07564000  0.41098000  1.0 0.0565385309
C  C232  1  0.94947000  0.92436000  0.41098000  1.0 0.0565385309
C  C233  1  0.92436000  0.94947000  0.41098000  1.0 0.0565385309
C  C234  1  0.07564000  0.05053000  0.41098000  1.0 0.0565385309
C  C235  1  0.44947000  0.57564000  0.91098000  1.0 0.0565385309
C  C236  1  0.55053000  0.42436000  0.91098000  1.0 0.0565385309
C  C237  1  0.92436000  0.05053000  0.58902000  1.0 0.0565385309
C  C238  1  0.07564000  0.94947000  0.58902000  1.0 0.0565385309
C  C239  1  0.44947000  0.42436000  0.08902000  1.0 0.0565385309
C  C240  1  0.55053000  0.57564000  0.08902000  1.0 0.0565385309
C  C241  1  0.54859000  0.53710000  0.14622000  1.0 0.1580203295
C  C242  1  0.45141000  0.46290000  0.14622000  1.0 0.1580203295
C  C243  1  0.03710000  0.95141000  0.64622000  1.0 0.1580203295
C  C244  1  0.96290000  0.04859000  0.64622000  1.0 0.1580203295
C  C245  1  0.54859000  0.46290000  0.85378000  1.0 0.1580203295
C  C246  1  0.45141000  0.53710000  0.85378000  1.0 0.1580203295
C  C247  1  0.03710000  0.04859000  0.35378000  1.0 0.1580203295
C  C248  1  0.96290000  0.95141000  0.35378000  1.0 0.1580203295
C  C249  1  0.95141000  0.96290000  0.35378000  1.0 0.1580203295
C  C250  1  0.04859000  0.03710000  0.35378000  1.0 0.1580203295
C  C251  1  0.46290000  0.54859000  0.85378000  1.0 0.1580203295
C  C252  1  0.53710000  0.45141000  0.85378000  1.0 0.1580203295
C  C253  1  0.95141000  0.03710000  0.64622000  1.0 0.1580203295
C  C254  1  0.04859000  0.96290000  0.64622000  1.0 0.1580203295
C  C255  1  0.46290000  0.45141000  0.14622000  1.0 0.1580203295
C  C256  1  0.53710000  0.54859000  0.14622000  1.0 0.1580203295
C  C257  1  0.60100000  0.49000000  0.14120000  1.0 0.0316988471
C  C258  1  0.39900000  0.51000000  0.14120000  1.0 0.0316988471
C  C259  1  0.99000000  0.89900000  0.64120000  1.0 0.0316988471
C  C260  1  0.01000000  0.10100000  0.64120000  1.0 0.0316988471
C  C261  1  0.60100000  0.51000000  0.85880000  1.0 0.0316988471
C  C262  1  0.39900000  0.49000000  0.85880000  1.0 0.0316988471
C  C263  1  0.99000000  0.10100000  0.35880000  1.0 0.0316988471
C  C264  1  0.01000000  0.89900000  0.35880000  1.0 0.0316988471
C  C265  1  0.89900000  0.01000000  0.35880000  1.0 0.0316988471
C  C266  1  0.10100000  0.99000000  0.35880000  1.0 0.0316988471
C  C267  1  0.51000000  0.60100000  0.85880000  1.0 0.0316988471
C  C268  1  0.49000000  0.39900000  0.85880000  1.0 0.0316988471
C  C269  1  0.89900000  0.99000000  0.64120000  1.0 0.0316988471
C  C270  1  0.10100000  0.01000000  0.64120000  1.0 0.0316988471
C  C271  1  0.51000000  0.39900000  0.14120000  1.0 0.0316988471
C  C272  1  0.49000000  0.60100000  0.14120000  1.0 0.0316988471
C  C273  1  0.70531000  0.85895000  0.67663000  1.0 0.0794535562
C  C274  1  0.29469000  0.14105000  0.67663000  1.0 0.0794535562
C  C275  1  0.35895000  0.79469000  0.17663000  1.0 0.0794535562
C  C276  1  0.64105000  0.20531000  0.17663000  1.0 0.0794535562
C  C277  1  0.70531000  0.14105000  0.32337000  1.0 0.0794535562
C  C278  1  0.29469000  0.85895000  0.32337000  1.0 0.0794535562
C  C279  1  0.35895000  0.20531000  0.82337000  1.0 0.0794535562
C  C280  1  0.64105000  0.79469000  0.82337000  1.0 0.0794535562
C  C281  1  0.79469000  0.64105000  0.82337000  1.0 0.0794535562
C  C282  1  0.20531000  0.35895000  0.82337000  1.0 0.0794535562
C  C283  1  0.14105000  0.70531000  0.32337000  1.0 0.0794535562
C  C284  1  0.85895000  0.29469000  0.32337000  1.0 0.0794535562
C  C285  1  0.79469000  0.35895000  0.17663000  1.0 0.0794535562
C  C286  1  0.20531000  0.64105000  0.17663000  1.0 0.0794535562
C  C287  1  0.14105000  0.29469000  0.67663000  1.0 0.0794535562
C  C288  1  0.85895000  0.70531000  0.67663000  1.0 0.0794535562
C  C289  1  0.73669000  0.84603000  0.62712000  1.0 -0.1507320463
C  C290  1  0.26331000  0.15397000  0.62712000  1.0 -0.1507320463
C  C291  1  0.34603000  0.76331000  0.12712000  1.0 -0.1507320463
C  C292  1  0.65397000  0.23669000  0.12712000  1.0 -0.1507320463
C  C293  1  0.73669000  0.15397000  0.37288000  1.0 -0.1507320463
C  C294  1  0.26331000  0.84603000  0.37288000  1.0 -0.1507320463
C  C295  1  0.34603000  0.23669000  0.87288000  1.0 -0.1507320463
C  C296  1  0.65397000  0.76331000  0.87288000  1.0 -0.1507320463
C  C297  1  0.76331000  0.65397000  0.87288000  1.0 -0.1507320463
C  C298  1  0.23669000  0.34603000  0.87288000  1.0 -0.1507320463
C  C299  1  0.15397000  0.73669000  0.37288000  1.0 -0.1507320463
C  C300  1  0.84603000  0.26331000  0.37288000  1.0 -0.1507320463
C  C301  1  0.76331000  0.34603000  0.12712000  1.0 -0.1507320463
C  C302  1  0.23669000  0.65397000  0.12712000  1.0 -0.1507320463
C  C303  1  0.15397000  0.26331000  0.62712000  1.0 -0.1507320463
C  C304  1  0.84603000  0.73669000  0.62712000  1.0 -0.1507320463
C  C305  1  0.76446000  0.87867000  0.59537000  1.0 -0.1102144496
C  C306  1  0.23554000  0.12133000  0.59537000  1.0 -0.1102144496
C  C307  1  0.37867000  0.73554000  0.09537000  1.0 -0.1102144496
C  C308  1  0.62133000  0.26446000  0.09537000  1.0 -0.1102144496
C  C309  1  0.76446000  0.12133000  0.40463000  1.0 -0.1102144496
C  C310  1  0.23554000  0.87867000  0.40463000  1.0 -0.1102144496
C  C311  1  0.37867000  0.26446000  0.90463000  1.0 -0.1102144496
C  C312  1  0.62133000  0.73554000  0.90463000  1.0 -0.1102144496
C  C313  1  0.73554000  0.62133000  0.90463000  1.0 -0.1102144496
C  C314  1  0.26446000  0.37867000  0.90463000  1.0 -0.1102144496
C  C315  1  0.12133000  0.76446000  0.40463000  1.0 -0.1102144496
C  C316  1  0.87867000  0.23554000  0.40463000  1.0 -0.1102144496
C  C317  1  0.73554000  0.37867000  0.09537000  1.0 -0.1102144496
C  C318  1  0.26446000  0.62133000  0.09537000  1.0 -0.1102144496
C  C319  1  0.12133000  0.23554000  0.59537000  1.0 -0.1102144496
C  C320  1  0.87867000  0.76446000  0.59537000  1.0 -0.1102144496
C  C321  1  0.75892000  0.92293000  0.61082000  1.0 -0.0369707552
C  C322  1  0.24108000  0.07707000  0.61082000  1.0 -0.0369707552
C  C323  1  0.42293000  0.74108000  0.11082000  1.0 -0.0369707552
C  C324  1  0.57707000  0.25892000  0.11082000  1.0 -0.0369707552
C  C325  1  0.75892000  0.07707000  0.38918000  1.0 -0.0369707552
C  C326  1  0.24108000  0.92293000  0.38918000  1.0 -0.0369707552
C  C327  1  0.42293000  0.25892000  0.88918000  1.0 -0.0369707552
C  C328  1  0.57707000  0.74108000  0.88918000  1.0 -0.0369707552
C  C329  1  0.74108000  0.57707000  0.88918000  1.0 -0.0369707552
C  C330  1  0.25892000  0.42293000  0.88918000  1.0 -0.0369707552
C  C331  1  0.07707000  0.75892000  0.38918000  1.0 -0.0369707552
C  C332  1  0.92293000  0.24108000  0.38918000  1.0 -0.0369707552
C  C333  1  0.74108000  0.42293000  0.11082000  1.0 -0.0369707552
C  C334  1  0.25892000  0.57707000  0.11082000  1.0 -0.0369707552
C  C335  1  0.07707000  0.24108000  0.61082000  1.0 -0.0369707552
C  C336  1  0.92293000  0.75892000  0.61082000  1.0 -0.0369707552
C  C337  1  0.72483000  0.93641000  0.65710000  1.0 -0.0866513719
C  C338  1  0.27517000  0.06359000  0.65710000  1.0 -0.0866513719
C  C339  1  0.43641000  0.77517000  0.15710000  1.0 -0.0866513719
C  C340  1  0.56359000  0.22483000  0.15710000  1.0 -0.0866513719
C  C341  1  0.72483000  0.06359000  0.34290000  1.0 -0.0866513719
C  C342  1  0.27517000  0.93641000  0.34290000  1.0 -0.0866513719
C  C343  1  0.43641000  0.22483000  0.84290000  1.0 -0.0866513719
C  C344  1  0.56359000  0.77517000  0.84290000  1.0 -0.0866513719
C  C345  1  0.77517000  0.56359000  0.84290000  1.0 -0.0866513719
C  C346  1  0.22483000  0.43641000  0.84290000  1.0 -0.0866513719
C  C347  1  0.06359000  0.72483000  0.34290000  1.0 -0.0866513719
C  C348  1  0.93641000  0.27517000  0.34290000  1.0 -0.0866513719
C  C349  1  0.77517000  0.43641000  0.15710000  1.0 -0.0866513719
C  C350  1  0.22483000  0.56359000  0.15710000  1.0 -0.0866513719
C  C351  1  0.06359000  0.27517000  0.65710000  1.0 -0.0866513719
C  C352  1  0.93641000  0.72483000  0.65710000  1.0 -0.0866513719
C  C353  1  0.69874000  0.90402000  0.69025000  1.0 -0.1507320463
C  C354  1  0.30126000  0.09598000  0.69025000  1.0 -0.1507320463
C  C355  1  0.40402000  0.80126000  0.19025000  1.0 -0.1507320463
C  C356  1  0.59598000  0.19874000  0.19025000  1.0 -0.1507320463
C  C357  1  0.69874000  0.09598000  0.30975000  1.0 -0.1507320463
C  C358  1  0.30126000  0.90402000  0.30975000  1.0 -0.1507320463
C  C359  1  0.40402000  0.19874000  0.80975000  1.0 -0.1507320463
C  C360  1  0.59598000  0.80126000  0.80975000  1.0 -0.1507320463
C  C361  1  0.80126000  0.59598000  0.80975000  1.0 -0.1507320463
C  C362  1  0.19874000  0.40402000  0.80975000  1.0 -0.1507320463
C  C363  1  0.09598000  0.69874000  0.30975000  1.0 -0.1507320463
C  C364  1  0.90402000  0.30126000  0.30975000  1.0 -0.1507320463
C  C365  1  0.80126000  0.40402000  0.19025000  1.0 -0.1507320463
C  C366  1  0.19874000  0.59598000  0.19025000  1.0 -0.1507320463
C  C367  1  0.09598000  0.30126000  0.69025000  1.0 -0.1507320463
C  C368  1  0.90402000  0.69874000  0.69025000  1.0 -0.1507320463
C  C369  1  0.78781000  0.95729000  0.57840000  1.0 0.5318333487
C  C370  1  0.21219000  0.04271000  0.57840000  1.0 0.5318333487
C  C371  1  0.45729000  0.71219000  0.07840000  1.0 0.5318333487
C  C372  1  0.54271000  0.28781000  0.07840000  1.0 0.5318333487
C  C373  1  0.78781000  0.04271000  0.42160000  1.0 0.5318333487
C  C374  1  0.21219000  0.95729000  0.42160000  1.0 0.5318333487
C  C375  1  0.45729000  0.28781000  0.92160000  1.0 0.5318333487
C  C376  1  0.54271000  0.71219000  0.92160000  1.0 0.5318333487
C  C377  1  0.71219000  0.54271000  0.92160000  1.0 0.5318333487
C  C378  1  0.28781000  0.45729000  0.92160000  1.0 0.5318333487
C  C379  1  0.04271000  0.78781000  0.42160000  1.0 0.5318333487
C  C380  1  0.95729000  0.21219000  0.42160000  1.0 0.5318333487
C  C381  1  0.71219000  0.45729000  0.07840000  1.0 0.5318333487
C  C382  1  0.28781000  0.54271000  0.07840000  1.0 0.5318333487
C  C383  1  0.04271000  0.21219000  0.57840000  1.0 0.5318333487
C  C384  1  0.95729000  0.78781000  0.57840000  1.0 0.5318333487
C  C385  1  0.67711000  0.82500000  0.71417000  1.0 -0.0241423634
C  C386  1  0.32289000  0.17500000  0.71417000  1.0 -0.0241423634
C  C387  1  0.32500000  0.82289000  0.21417000  1.0 -0.0241423634
C  C388  1  0.67500000  0.17711000  0.21417000  1.0 -0.0241423634
C  C389  1  0.67711000  0.17500000  0.28583000  1.0 -0.0241423634
C  C390  1  0.32289000  0.82500000  0.28583000  1.0 -0.0241423634
C  C391  1  0.32500000  0.17711000  0.78583000  1.0 -0.0241423634
C  C392  1  0.67500000  0.82289000  0.78583000  1.0 -0.0241423634
C  C393  1  0.82289000  0.67500000  0.78583000  1.0 -0.0241423634
C  C394  1  0.17711000  0.32500000  0.78583000  1.0 -0.0241423634
C  C395  1  0.17500000  0.67711000  0.28583000  1.0 -0.0241423634
C  C396  1  0.82500000  0.32289000  0.28583000  1.0 -0.0241423634
C  C397  1  0.82289000  0.32500000  0.21417000  1.0 -0.0241423634
C  C398  1  0.17711000  0.67500000  0.21417000  1.0 -0.0241423634
C  C399  1  0.17500000  0.32289000  0.71417000  1.0 -0.0241423634
C  C400  1  0.82500000  0.67711000  0.71417000  1.0 -0.0241423634
N  N1  1  0.50928000  0.56219000  0.33965000  1.0 -0.1976031336
N  N2  1  0.49072000  0.43781000  0.33965000  1.0 -0.1976031336
N  N3  1  0.06219000  0.99072000  0.83965000  1.0 -0.1976031336
N  N4  1  0.93781000  0.00928000  0.83965000  1.0 -0.1976031336
N  N5  1  0.50928000  0.43781000  0.66035000  1.0 -0.1976031336
N  N6  1  0.49072000  0.56219000  0.66035000  1.0 -0.1976031336
N  N7  1  0.06219000  0.00928000  0.16035000  1.0 -0.1976031336
N  N8  1  0.93781000  0.99072000  0.16035000  1.0 -0.1976031336
N  N9  1  0.99072000  0.93781000  0.16035000  1.0 -0.1976031336
N  N10  1  0.00928000  0.06219000  0.16035000  1.0 -0.1976031336
N  N11  1  0.43781000  0.50928000  0.66035000  1.0 -0.1976031336
N  N12  1  0.56219000  0.49072000  0.66035000  1.0 -0.1976031336
N  N13  1  0.99072000  0.06219000  0.83965000  1.0 -0.1976031336
N  N14  1  0.00928000  0.93781000  0.83965000  1.0 -0.1976031336
N  N15  1  0.43781000  0.49072000  0.33965000  1.0 -0.1976031336
N  N16  1  0.56219000  0.50928000  0.33965000  1.0 -0.1976031336
N  N17  1  0.52533000  0.61329000  0.43690000  1.0 -0.2238016344
N  N18  1  0.47467000  0.38671000  0.43690000  1.0 -0.2238016344
N  N19  1  0.11329000  0.97467000  0.93690000  1.0 -0.2238016344
N  N20  1  0.88671000  0.02533000  0.93690000  1.0 -0.2238016344
N  N21  1  0.52533000  0.38671000  0.56310000  1.0 -0.2238016344
N  N22  1  0.47467000  0.61329000  0.56310000  1.0 -0.2238016344
N  N23  1  0.11329000  0.02533000  0.06310000  1.0 -0.2238016344
N  N24  1  0.88671000  0.97467000  0.06310000  1.0 -0.2238016344
N  N25  1  0.97467000  0.88671000  0.06310000  1.0 -0.2238016344
N  N26  1  0.02533000  0.11329000  0.06310000  1.0 -0.2238016344
N  N27  1  0.38671000  0.52533000  0.56310000  1.0 -0.2238016344
N  N28  1  0.61329000  0.47467000  0.56310000  1.0 -0.2238016344
N  N29  1  0.97467000  0.11329000  0.93690000  1.0 -0.2238016344
N  N30  1  0.02533000  0.88671000  0.93690000  1.0 -0.2238016344
N  N31  1  0.38671000  0.47467000  0.43690000  1.0 -0.2238016344
N  N32  1  0.61329000  0.52533000  0.43690000  1.0 -0.2238016344
N  N33  1  0.56340000  0.50213000  0.32270000  1.0 -0.2589008065
N  N34  1  0.43660000  0.49787000  0.32270000  1.0 -0.2589008065
N  N35  1  0.00213000  0.93660000  0.82270000  1.0 -0.2589008065
N  N36  1  0.99787000  0.06340000  0.82270000  1.0 -0.2589008065
N  N37  1  0.56340000  0.49787000  0.67730000  1.0 -0.2589008065
N  N38  1  0.43660000  0.50213000  0.67730000  1.0 -0.2589008065
N  N39  1  0.00213000  0.06340000  0.17730000  1.0 -0.2589008065
N  N40  1  0.99787000  0.93660000  0.17730000  1.0 -0.2589008065
N  N41  1  0.93660000  0.99787000  0.17730000  1.0 -0.2589008065
N  N42  1  0.06340000  0.00213000  0.17730000  1.0 -0.2589008065
N  N43  1  0.49787000  0.56340000  0.67730000  1.0 -0.2589008065
N  N44  1  0.50213000  0.43660000  0.67730000  1.0 -0.2589008065
N  N45  1  0.93660000  0.00213000  0.82270000  1.0 -0.2589008065
N  N46  1  0.06340000  0.99787000  0.82270000  1.0 -0.2589008065
N  N47  1  0.49787000  0.43660000  0.32270000  1.0 -0.2589008065
N  N48  1  0.50213000  0.56340000  0.32270000  1.0 -0.2589008065
N  N49  1  0.60970000  0.52190000  0.41667000  1.0 -0.1507320463
N  N50  1  0.39030000  0.47810000  0.41667000  1.0 -0.1507320463
N  N51  1  0.02190000  0.89030000  0.91667000  1.0 -0.1507320463
N  N52  1  0.97810000  0.10970000  0.91667000  1.0 -0.1507320463
N  N53  1  0.60970000  0.47810000  0.58333000  1.0 -0.1507320463
N  N54  1  0.39030000  0.52190000  0.58333000  1.0 -0.1507320463
N  N55  1  0.02190000  0.10970000  0.08333000  1.0 -0.1507320463
N  N56  1  0.97810000  0.89030000  0.08333000  1.0 -0.1507320463
N  N57  1  0.89030000  0.97810000  0.08333000  1.0 -0.1507320463
N  N58  1  0.10970000  0.02190000  0.08333000  1.0 -0.1507320463
N  N59  1  0.47810000  0.60970000  0.58333000  1.0 -0.1507320463
N  N60  1  0.52190000  0.39030000  0.58333000  1.0 -0.1507320463
N  N61  1  0.89030000  0.02190000  0.91667000  1.0 -0.1507320463
N  N62  1  0.10970000  0.97810000  0.91667000  1.0 -0.1507320463
N  N63  1  0.47810000  0.39030000  0.41667000  1.0 -0.1507320463
N  N64  1  0.52190000  0.60970000  0.41667000  1.0 -0.1507320463
N  N65  1  0.59088000  0.60499000  0.50920000  1.0 -0.1604106815
N  N66  1  0.40912000  0.39501000  0.50920000  1.0 -0.1653355752
N  N67  1  0.10499000  0.90912000  0.00920000  1.0 -0.1604106815
N  N68  1  0.89501000  0.09088000  0.00920000  1.0 -0.1604106815
N  N69  1  0.59088000  0.39501000  0.49080000  1.0 -0.1604106815
N  N70  1  0.40912000  0.60499000  0.49080000  1.0 -0.1653355752
N  N71  1  0.10499000  0.09088000  0.99080000  1.0 -0.1604106815
N  N72  1  0.89501000  0.90912000  0.99080000  1.0 -0.1604106815
N  N73  1  0.90912000  0.89501000  0.99080000  1.0 -0.1604106815
N  N74  1  0.09088000  0.10499000  0.99080000  1.0 -0.1604106815
N  N75  1  0.39501000  0.59088000  0.49080000  1.0 -0.1604106815
N  N76  1  0.60499000  0.40912000  0.49080000  1.0 -0.1653355752
N  N77  1  0.90912000  0.10499000  0.00920000  1.0 -0.1604106815
N  N78  1  0.09088000  0.89501000  0.00920000  1.0 -0.1604106815
N  N79  1  0.39501000  0.40912000  0.50920000  1.0 -0.1653355752
N  N80  1  0.60499000  0.59088000  0.50920000  1.0 -0.1604106815
N  N81  1  0.51030000  0.56144000  0.16335000  1.0 -0.1403792558
N  N82  1  0.48970000  0.43856000  0.16335000  1.0 -0.1403792558
N  N83  1  0.06144000  0.98970000  0.66335000  1.0 -0.1403792558
N  N84  1  0.93856000  0.01030000  0.66335000  1.0 -0.1403792558
N  N85  1  0.51030000  0.43856000  0.83665000  1.0 -0.1403792558
N  N86  1  0.48970000  0.56144000  0.83665000  1.0 -0.1403792558
N  N87  1  0.06144000  0.01030000  0.33665000  1.0 -0.1403792558
N  N88  1  0.93856000  0.98970000  0.33665000  1.0 -0.1403792558
N  N89  1  0.98970000  0.93856000  0.33665000  1.0 -0.1403792558
N  N90  1  0.01030000  0.06144000  0.33665000  1.0 -0.1403792558
N  N91  1  0.43856000  0.51030000  0.83665000  1.0 -0.1403792558
N  N92  1  0.56144000  0.48970000  0.83665000  1.0 -0.1403792558
N  N93  1  0.98970000  0.06144000  0.66335000  1.0 -0.1403792558
N  N94  1  0.01030000  0.93856000  0.66335000  1.0 -0.1403792558
N  N95  1  0.43856000  0.48970000  0.16335000  1.0 -0.1403792558
N  N96  1  0.56144000  0.51030000  0.16335000  1.0 -0.1403792558
N  N97  1  0.52610000  0.61265000  0.06610000  1.0 -0.2238016344
N  N98  1  0.47390000  0.38735000  0.06610000  1.0 -0.2238016344
N  N99  1  0.11265000  0.97390000  0.56610000  1.0 -0.2238016344
N  N100  1  0.88735000  0.02610000  0.56610000  1.0 -0.2238016344
N  N101  1  0.52610000  0.38735000  0.93390000  1.0 -0.2238016344
N  N102  1  0.47390000  0.61265000  0.93390000  1.0 -0.2238016344
N  N103  1  0.11265000  0.02610000  0.43390000  1.0 -0.2238016344
N  N104  1  0.88735000  0.97390000  0.43390000  1.0 -0.2238016344
N  N105  1  0.97390000  0.88735000  0.43390000  1.0 -0.2238016344
N  N106  1  0.02610000  0.11265000  0.43390000  1.0 -0.2238016344
N  N107  1  0.38735000  0.52610000  0.93390000  1.0 -0.2238016344
N  N108  1  0.61265000  0.47390000  0.93390000  1.0 -0.2238016344
N  N109  1  0.97390000  0.11265000  0.56610000  1.0 -0.2238016344
N  N110  1  0.02610000  0.88735000  0.56610000  1.0 -0.2238016344
N  N111  1  0.38735000  0.47390000  0.06610000  1.0 -0.2238016344
N  N112  1  0.61265000  0.52610000  0.06610000  1.0 -0.2238016344
N  N113  1  0.56398000  0.50037000  0.17920000  1.0 -0.1976031336
N  N114  1  0.43602000  0.49963000  0.17920000  1.0 -0.1976031336
N  N115  1  0.00037000  0.93602000  0.67920000  1.0 -0.1976031336
N  N116  1  0.99963000  0.06398000  0.67920000  1.0 -0.1976031336
N  N117  1  0.56398000  0.49963000  0.82080000  1.0 -0.1976031336
N  N118  1  0.43602000  0.50037000  0.82080000  1.0 -0.1976031336
N  N119  1  0.00037000  0.06398000  0.32080000  1.0 -0.1976031336
N  N120  1  0.99963000  0.93602000  0.32080000  1.0 -0.1976031336
N  N121  1  0.93602000  0.99963000  0.32080000  1.0 -0.1976031336
N  N122  1  0.06398000  0.00037000  0.32080000  1.0 -0.1976031336
N  N123  1  0.49963000  0.56398000  0.82080000  1.0 -0.1976031336
N  N124  1  0.50037000  0.43602000  0.82080000  1.0 -0.1976031336
N  N125  1  0.93602000  0.00037000  0.67920000  1.0 -0.1976031336
N  N126  1  0.06398000  0.99963000  0.67920000  1.0 -0.1976031336
N  N127  1  0.49963000  0.43602000  0.17920000  1.0 -0.1976031336
N  N128  1  0.50037000  0.56398000  0.17920000  1.0 -0.1976031336
N  N129  1  0.60840000  0.51930000  0.08333000  1.0 -0.1604106815
N  N130  1  0.39160000  0.48070000  0.08333000  1.0 -0.1604106815
N  N131  1  0.01930000  0.89160000  0.58333000  1.0 -0.1604106815
N  N132  1  0.98070000  0.10840000  0.58333000  1.0 -0.1604106815
N  N133  1  0.60840000  0.48070000  0.91667000  1.0 -0.1604106815
N  N134  1  0.39160000  0.51930000  0.91667000  1.0 -0.1604106815
N  N135  1  0.01930000  0.10840000  0.41667000  1.0 -0.1604106815
N  N136  1  0.98070000  0.89160000  0.41667000  1.0 -0.1604106815
N  N137  1  0.89160000  0.98070000  0.41667000  1.0 -0.1604106815
N  N138  1  0.10840000  0.01930000  0.41667000  1.0 -0.1604106815
N  N139  1  0.48070000  0.60840000  0.91667000  1.0 -0.1604106815
N  N140  1  0.51930000  0.39160000  0.91667000  1.0 -0.1604106815
N  N141  1  0.89160000  0.01930000  0.58333000  1.0 -0.1604106815
N  N142  1  0.10840000  0.98070000  0.58333000  1.0 -0.1604106815
N  N143  1  0.48070000  0.39160000  0.08333000  1.0 -0.1604106815
N  N144  1  0.51930000  0.60840000  0.08333000  1.0 -0.1604106815
N  N145  1  0.59220000  0.60470000  0.99380000  1.0 -0.1868265515
N  N146  1  0.40780000  0.39530000  0.99380000  1.0 -0.1868265515
N  N147  1  0.10470000  0.90780000  0.49380000  1.0 -0.1868265515
N  N148  1  0.89530000  0.09220000  0.49380000  1.0 -0.1868265515
N  N149  1  0.59220000  0.39530000  0.00620000  1.0 -0.1868265515
N  N150  1  0.40780000  0.60470000  0.00620000  1.0 -0.1868265515
N  N151  1  0.10470000  0.09220000  0.50620000  1.0 -0.1868265515
N  N152  1  0.89530000  0.90780000  0.50620000  1.0 -0.1868265515
N  N153  1  0.90780000  0.89530000  0.50620000  1.0 -0.1868265515
N  N154  1  0.09220000  0.10470000  0.50620000  1.0 -0.1868265515
N  N155  1  0.39530000  0.59220000  0.00620000  1.0 -0.1868265515
N  N156  1  0.60470000  0.40780000  0.00620000  1.0 -0.1868265515
N  N157  1  0.90780000  0.10470000  0.49380000  1.0 -0.1868265515
N  N158  1  0.09220000  0.89530000  0.49380000  1.0 -0.1868265515
N  N159  1  0.39530000  0.40780000  0.99380000  1.0 -0.1868265515
N  N160  1  0.60470000  0.59220000  0.99380000  1.0 -0.1868265515
O  O1  1  0.55064000  0.67987000  0.55311000  1.0 -0.5696102177
O  O2  1  0.44936000  0.32013000  0.55311000  1.0 -0.5696102177
O  O3  1  0.17987000  0.94936000  0.05311000  1.0 -0.5696102177
O  O4  1  0.82013000  0.05064000  0.05311000  1.0 -0.5696102177
O  O5  1  0.55064000  0.32013000  0.44689000  1.0 -0.5696102177
O  O6  1  0.44936000  0.67987000  0.44689000  1.0 -0.5696102177
O  O7  1  0.17987000  0.05064000  0.94689000  1.0 -0.5696102177
O  O8  1  0.82013000  0.94936000  0.94689000  1.0 -0.5696102177
O  O9  1  0.94936000  0.82013000  0.94689000  1.0 -0.5696102177
O  O10  1  0.05064000  0.17987000  0.94689000  1.0 -0.5696102177
O  O11  1  0.32013000  0.55064000  0.44689000  1.0 -0.5696102177
O  O12  1  0.67987000  0.44936000  0.44689000  1.0 -0.5696102177
O  O13  1  0.94936000  0.17987000  0.05311000  1.0 -0.5696102177
O  O14  1  0.05064000  0.82013000  0.05311000  1.0 -0.5696102177
O  O15  1  0.32013000  0.44936000  0.55311000  1.0 -0.5696102177
O  O16  1  0.67987000  0.55064000  0.55311000  1.0 -0.5696102177
O  O17  1  0.55146000  0.73218000  0.46846000  1.0 -0.5061818679
O  O18  1  0.44854000  0.26782000  0.46846000  1.0 -0.5061818679
O  O19  1  0.23218000  0.94854000  0.96846000  1.0 -0.5061818679
O  O20  1  0.76782000  0.05146000  0.96846000  1.0 -0.5061818679
O  O21  1  0.55146000  0.26782000  0.53154000  1.0 -0.5061818679
O  O22  1  0.44854000  0.73218000  0.53154000  1.0 -0.5061818679
O  O23  1  0.23218000  0.05146000  0.03154000  1.0 -0.5061818679
O  O24  1  0.76782000  0.94854000  0.03154000  1.0 -0.5061818679
O  O25  1  0.94854000  0.76782000  0.03154000  1.0 -0.5061818679
O  O26  1  0.05146000  0.23218000  0.03154000  1.0 -0.5061818679
O  O27  1  0.26782000  0.55146000  0.53154000  1.0 -0.5061818679
O  O28  1  0.73218000  0.44854000  0.53154000  1.0 -0.5061818679
O  O29  1  0.94854000  0.23218000  0.96846000  1.0 -0.5061818679
O  O30  1  0.05146000  0.76782000  0.96846000  1.0 -0.5061818679
O  O31  1  0.26782000  0.44854000  0.46846000  1.0 -0.5061818679
O  O32  1  0.73218000  0.55146000  0.46846000  1.0 -0.5061818679
O  O33  1  0.82113000  0.94341000  0.53907000  1.0 -0.5448512455
O  O34  1  0.17887000  0.05659000  0.53907000  1.0 -0.5448512455
O  O35  1  0.44341000  0.67887000  0.03907000  1.0 -0.5455802699
O  O36  1  0.55659000  0.32113000  0.03907000  1.0 -0.5455802699
O  O37  1  0.82113000  0.05659000  0.46093000  1.0 -0.5448512455
O  O38  1  0.17887000  0.94341000  0.46093000  1.0 -0.5455802699
O  O39  1  0.44341000  0.32113000  0.96093000  1.0 -0.5455802699
O  O40  1  0.55659000  0.67887000  0.96093000  1.0 -0.5448512455
O  O41  1  0.67887000  0.55659000  0.96093000  1.0 -0.5448512455
O  O42  1  0.32113000  0.44341000  0.96093000  1.0 -0.5455802699
O  O43  1  0.05659000  0.82113000  0.46093000  1.0 -0.5455802699
O  O44  1  0.94341000  0.17887000  0.46093000  1.0 -0.5448512455
O  O45  1  0.67887000  0.44341000  0.03907000  1.0 -0.5455802699
O  O46  1  0.32113000  0.55659000  0.03907000  1.0 -0.5455802699
O  O47  1  0.05659000  0.17887000  0.53907000  1.0 -0.5448512455
O  O48  1  0.94341000  0.82113000  0.53907000  1.0 -0.5455802699
O  O49  1  0.78120000  0.99814000  0.58709000  1.0 -0.483722849
O  O50  1  0.21880000  0.00186000  0.58709000  1.0 -0.483722849
O  O51  1  0.49814000  0.71880000  0.08709000  1.0 -0.483722849
O  O52  1  0.50186000  0.28120000  0.08709000  1.0 -0.483722849
O  O53  1  0.78120000  0.00186000  0.41291000  1.0 -0.483722849
O  O54  1  0.21880000  0.99814000  0.41291000  1.0 -0.483722849
O  O55  1  0.49814000  0.28120000  0.91291000  1.0 -0.483722849
O  O56  1  0.50186000  0.71880000  0.91291000  1.0 -0.483722849
O  O57  1  0.71880000  0.50186000  0.91291000  1.0 -0.483722849
O  O58  1  0.28120000  0.49814000  0.91291000  1.0 -0.483722849
O  O59  1  0.00186000  0.78120000  0.41291000  1.0 -0.483722849
O  O60  1  0.99814000  0.21880000  0.41291000  1.0 -0.483722849
O  O61  1  0.71880000  0.49814000  0.08709000  1.0 -0.483722849
O  O62  1  0.28120000  0.50186000  0.08709000  1.0 -0.483722849
O  O63  1  0.00186000  0.21880000  0.58709000  1.0 -0.483722849
O  O64  1  0.99814000  0.78120000  0.58709000  1.0 -0.483722849
