# DDEC6 charges by PACMAN v1.1 (https://github.com/mtap-research/PACMAN-charge/)
data_JITPEL_ASR_pacman
_symmetry_space_group_name_H-M   'P 1'
_cell_length_a   27.00870000
_cell_length_b   27.00870000
_cell_length_c   27.00870000
_cell_angle_alpha   90.00000000
_cell_angle_beta   90.00000000
_cell_angle_gamma   90.00000000
_symmetry_Int_Tables_number   1
_chemical_formula_structural   Eu2In3H36C93N9O28
_chemical_formula_sum   'Eu8 In12 H144 C372 N36 O112'
_cell_volume   19702.03303155
_cell_formula_units_Z   4
loop_
 _symmetry_equiv_pos_site_id
 _symmetry_equiv_pos_as_xyz
  1  'x, y, z'
loop_
 _atom_site_type_symbol
 _atom_site_label
 _atom_site_symmetry_multiplicity
 _atom_site_fract_x
 _atom_site_fract_y
 _atom_site_fract_z
 _atom_site_occupancy
 _atom_site_charge
Eu  Eu1  1  0.44832000  0.94832000  0.55168000  1.0 2.1376523956
Eu  Eu2  1  0.55168000  0.44832000  0.94832000  1.0 2.1376523956
Eu  Eu3  1  0.94832000  0.55168000  0.44832000  1.0 2.1376523956
Eu  Eu4  1  0.05168000  0.05168000  0.05168000  1.0 2.1376523956
Eu  Eu5  1  0.58986000  0.08986000  0.41014000  1.0 1.6675474628
Eu  Eu6  1  0.41014000  0.58986000  0.08986000  1.0 1.6675474628
Eu  Eu7  1  0.08986000  0.41014000  0.58986000  1.0 1.6675474628
Eu  Eu8  1  0.91014000  0.91014000  0.91014000  1.0 1.6675474628
In  In1  1  0.47247000  0.00567000  0.42895000  1.0 1.404237686
In  In2  1  0.42895000  0.47247000  0.00567000  1.0 1.404237686
In  In3  1  0.00567000  0.42895000  0.47247000  1.0 1.404237686
In  In4  1  0.49433000  0.57105000  0.97247000  1.0 1.404237686
In  In5  1  0.92895000  0.02753000  0.99433000  1.0 1.404237686
In  In6  1  0.99433000  0.92895000  0.02753000  1.0 1.404237686
In  In7  1  0.07105000  0.52753000  0.50567000  1.0 1.404237686
In  In8  1  0.57105000  0.97247000  0.49433000  1.0 1.404237686
In  In9  1  0.50567000  0.07105000  0.52753000  1.0 1.404237686
In  In10  1  0.97247000  0.49433000  0.57105000  1.0 1.404237686
In  In11  1  0.52753000  0.50567000  0.07105000  1.0 1.404237686
In  In12  1  0.02753000  0.99433000  0.92895000  1.0 1.404237686
H  H1  1  0.37380000  0.02490000  0.68220000  1.0 0.1217736476
H  H2  1  0.68220000  0.37380000  0.02490000  1.0 0.1217736476
H  H3  1  0.02490000  0.68220000  0.37380000  1.0 0.1217736476
H  H4  1  0.47510000  0.31780000  0.87380000  1.0 0.1217736476
H  H5  1  0.18220000  0.12620000  0.97510000  1.0 0.1217736476
H  H6  1  0.97510000  0.18220000  0.12620000  1.0 0.1217736476
H  H7  1  0.81780000  0.62620000  0.52490000  1.0 0.1217736476
H  H8  1  0.31780000  0.87380000  0.47510000  1.0 0.1217736476
H  H9  1  0.52490000  0.81780000  0.62620000  1.0 0.1217736476
H  H10  1  0.87380000  0.47510000  0.31780000  1.0 0.1217736476
H  H11  1  0.62620000  0.52490000  0.81780000  1.0 0.1217736476
H  H12  1  0.12620000  0.97510000  0.18220000  1.0 0.1217736476
H  H13  1  0.46120000  0.14150000  0.66790000  1.0 0.1288254808
H  H14  1  0.66790000  0.46120000  0.14150000  1.0 0.1288254808
H  H15  1  0.14150000  0.66790000  0.46120000  1.0 0.1288254808
H  H16  1  0.35850000  0.33210000  0.96120000  1.0 0.1288254808
H  H17  1  0.16790000  0.03880000  0.85850000  1.0 0.1288254808
H  H18  1  0.85850000  0.16790000  0.03880000  1.0 0.1288254808
H  H19  1  0.83210000  0.53880000  0.64150000  1.0 0.1288254808
H  H20  1  0.33210000  0.96120000  0.35850000  1.0 0.1288254808
H  H21  1  0.64150000  0.83210000  0.53880000  1.0 0.1288254808
H  H22  1  0.96120000  0.35850000  0.33210000  1.0 0.1288254808
H  H23  1  0.53880000  0.64150000  0.83210000  1.0 0.1288254808
H  H24  1  0.03880000  0.85850000  0.16790000  1.0 0.1288254808
H  H25  1  0.42680000  0.17720000  0.73710000  1.0 0.1217736476
H  H26  1  0.73710000  0.42680000  0.17720000  1.0 0.1217736476
H  H27  1  0.17720000  0.73710000  0.42680000  1.0 0.1217736476
H  H28  1  0.32280000  0.26290000  0.92680000  1.0 0.1217736476
H  H29  1  0.23710000  0.07320000  0.82280000  1.0 0.1217736476
H  H30  1  0.82280000  0.23710000  0.07320000  1.0 0.1217736476
H  H31  1  0.76290000  0.57320000  0.67720000  1.0 0.1217736476
H  H32  1  0.26290000  0.92680000  0.32280000  1.0 0.1217736476
H  H33  1  0.67720000  0.76290000  0.57320000  1.0 0.1217736476
H  H34  1  0.92680000  0.32280000  0.26290000  1.0 0.1217736476
H  H35  1  0.57320000  0.67720000  0.76290000  1.0 0.1217736476
H  H36  1  0.07320000  0.82280000  0.23710000  1.0 0.1217736476
H  H37  1  0.33730000  0.05880000  0.75030000  1.0 0.1288254808
H  H38  1  0.75030000  0.33730000  0.05880000  1.0 0.1288254808
H  H39  1  0.05880000  0.75030000  0.33730000  1.0 0.1288254808
H  H40  1  0.44120000  0.24970000  0.83730000  1.0 0.1288254808
H  H41  1  0.25030000  0.16270000  0.94120000  1.0 0.1288254808
H  H42  1  0.94120000  0.25030000  0.16270000  1.0 0.1288254808
H  H43  1  0.74970000  0.66270000  0.55880000  1.0 0.1288254808
H  H44  1  0.24970000  0.83730000  0.44120000  1.0 0.1288254808
H  H45  1  0.55880000  0.74970000  0.66270000  1.0 0.1288254808
H  H46  1  0.83730000  0.44120000  0.24970000  1.0 0.1288254808
H  H47  1  0.66270000  0.55880000  0.74970000  1.0 0.1288254808
H  H48  1  0.16270000  0.94120000  0.25030000  1.0 0.1288254808
H  H49  1  0.41340000  0.20290000  0.48840000  1.0 0.1217736476
H  H50  1  0.48840000  0.41340000  0.20290000  1.0 0.1217736476
H  H51  1  0.20290000  0.48840000  0.41340000  1.0 0.1217736476
H  H52  1  0.29710000  0.51160000  0.91340000  1.0 0.1217736476
H  H53  1  0.98840000  0.08660000  0.79710000  1.0 0.1217736476
H  H54  1  0.79710000  0.98840000  0.08660000  1.0 0.1217736476
H  H55  1  0.01160000  0.58660000  0.70290000  1.0 0.1217736476
H  H56  1  0.51160000  0.91340000  0.29710000  1.0 0.1217736476
H  H57  1  0.70290000  0.01160000  0.58660000  1.0 0.1217736476
H  H58  1  0.91340000  0.29710000  0.51160000  1.0 0.1217736476
H  H59  1  0.58660000  0.70290000  0.01160000  1.0 0.1217736476
H  H60  1  0.08660000  0.79710000  0.98840000  1.0 0.1217736476
H  H61  1  0.37620000  0.27360000  0.46400000  1.0 0.1217736476
H  H62  1  0.46400000  0.37620000  0.27360000  1.0 0.1217736476
H  H63  1  0.27360000  0.46400000  0.37620000  1.0 0.1217736476
H  H64  1  0.22640000  0.53600000  0.87620000  1.0 0.1217736476
H  H65  1  0.96400000  0.12380000  0.72640000  1.0 0.1217736476
H  H66  1  0.72640000  0.96400000  0.12380000  1.0 0.1217736476
H  H67  1  0.03600000  0.62380000  0.77360000  1.0 0.1217736476
H  H68  1  0.53600000  0.87620000  0.22640000  1.0 0.1217736476
H  H69  1  0.77360000  0.03600000  0.62380000  1.0 0.1217736476
H  H70  1  0.87620000  0.22640000  0.53600000  1.0 0.1217736476
H  H71  1  0.62380000  0.77360000  0.03600000  1.0 0.1217736476
H  H72  1  0.12380000  0.72640000  0.96400000  1.0 0.1217736476
H  H73  1  0.52620000  0.22690000  0.39660000  1.0 0.1217736476
H  H74  1  0.39660000  0.52620000  0.22690000  1.0 0.1217736476
H  H75  1  0.22690000  0.39660000  0.52620000  1.0 0.1217736476
H  H76  1  0.27310000  0.60340000  0.02620000  1.0 0.1217736476
H  H77  1  0.89660000  0.97380000  0.77310000  1.0 0.1217736476
H  H78  1  0.77310000  0.89660000  0.97380000  1.0 0.1217736476
H  H79  1  0.10340000  0.47380000  0.72690000  1.0 0.1217736476
H  H80  1  0.60340000  0.02620000  0.27310000  1.0 0.1217736476
H  H81  1  0.72690000  0.10340000  0.47380000  1.0 0.1217736476
H  H82  1  0.02620000  0.27310000  0.60340000  1.0 0.1217736476
H  H83  1  0.47380000  0.72690000  0.10340000  1.0 0.1217736476
H  H84  1  0.97380000  0.77310000  0.89660000  1.0 0.1217736476
H  H85  1  0.48240000  0.29070000  0.35910000  1.0 0.1217736476
H  H86  1  0.35910000  0.48240000  0.29070000  1.0 0.1217736476
H  H87  1  0.29070000  0.35910000  0.48240000  1.0 0.1217736476
H  H88  1  0.20930000  0.64090000  0.98240000  1.0 0.1217736476
H  H89  1  0.85910000  0.01760000  0.70930000  1.0 0.1217736476
H  H90  1  0.70930000  0.85910000  0.01760000  1.0 0.1217736476
H  H91  1  0.14090000  0.51760000  0.79070000  1.0 0.1217736476
H  H92  1  0.64090000  0.98240000  0.20930000  1.0 0.1217736476
H  H93  1  0.79070000  0.14090000  0.51760000  1.0 0.1217736476
H  H94  1  0.98240000  0.20930000  0.64090000  1.0 0.1217736476
H  H95  1  0.51760000  0.79070000  0.14090000  1.0 0.1217736476
H  H96  1  0.01760000  0.70930000  0.85910000  1.0 0.1217736476
H  H97  1  0.47680000  0.18030000  0.31150000  1.0 0.1288254808
H  H98  1  0.31150000  0.47680000  0.18030000  1.0 0.1288254808
H  H99  1  0.18030000  0.31150000  0.47680000  1.0 0.1288254808
H  H100  1  0.31970000  0.68850000  0.97680000  1.0 0.1288254808
H  H101  1  0.81150000  0.02320000  0.81970000  1.0 0.1288254808
H  H102  1  0.81970000  0.81150000  0.02320000  1.0 0.1288254808
H  H103  1  0.18850000  0.52320000  0.68030000  1.0 0.1288254808
H  H104  1  0.68850000  0.97680000  0.31970000  1.0 0.1288254808
H  H105  1  0.68030000  0.18850000  0.52320000  1.0 0.1288254808
H  H106  1  0.97680000  0.31970000  0.68850000  1.0 0.1288254808
H  H107  1  0.52320000  0.68030000  0.18850000  1.0 0.1288254808
H  H108  1  0.02320000  0.81970000  0.81150000  1.0 0.1288254808
H  H109  1  0.43140000  0.24940000  0.30140000  1.0 0.1217736476
H  H110  1  0.30140000  0.43140000  0.24940000  1.0 0.1217736476
H  H111  1  0.24940000  0.30140000  0.43140000  1.0 0.1217736476
H  H112  1  0.25060000  0.69860000  0.93140000  1.0 0.1217736476
H  H113  1  0.80140000  0.06860000  0.75060000  1.0 0.1217736476
H  H114  1  0.75060000  0.80140000  0.06860000  1.0 0.1217736476
H  H115  1  0.19860000  0.56860000  0.74940000  1.0 0.1217736476
H  H116  1  0.69860000  0.93140000  0.25060000  1.0 0.1217736476
H  H117  1  0.74940000  0.19860000  0.56860000  1.0 0.1217736476
H  H118  1  0.93140000  0.25060000  0.69860000  1.0 0.1217736476
H  H119  1  0.56860000  0.74940000  0.19860000  1.0 0.1217736476
H  H120  1  0.06860000  0.75060000  0.80140000  1.0 0.1217736476
H  H121  1  0.27770000  0.20510000  0.39290000  1.0 0.1288254808
H  H122  1  0.39290000  0.27770000  0.20510000  1.0 0.1288254808
H  H123  1  0.20510000  0.39290000  0.27770000  1.0 0.1288254808
H  H124  1  0.29490000  0.60710000  0.77770000  1.0 0.1288254808
H  H125  1  0.89290000  0.22230000  0.79490000  1.0 0.1288254808
H  H126  1  0.79490000  0.89290000  0.22230000  1.0 0.1288254808
H  H127  1  0.10710000  0.72230000  0.70510000  1.0 0.1288254808
H  H128  1  0.60710000  0.77770000  0.29490000  1.0 0.1288254808
H  H129  1  0.70510000  0.10710000  0.72230000  1.0 0.1288254808
H  H130  1  0.77770000  0.29490000  0.60710000  1.0 0.1288254808
H  H131  1  0.72230000  0.70510000  0.10710000  1.0 0.1288254808
H  H132  1  0.22230000  0.79490000  0.89290000  1.0 0.1288254808
H  H133  1  0.30860000  0.13370000  0.42880000  1.0 0.1217736476
H  H134  1  0.42880000  0.30860000  0.13370000  1.0 0.1217736476
H  H135  1  0.13370000  0.42880000  0.30860000  1.0 0.1217736476
H  H136  1  0.36630000  0.57120000  0.80860000  1.0 0.1217736476
H  H137  1  0.92880000  0.19140000  0.86630000  1.0 0.1288254808
H  H138  1  0.86630000  0.92880000  0.19140000  1.0 0.1217736476
H  H139  1  0.07120000  0.69140000  0.63370000  1.0 0.1217736476
H  H140  1  0.57120000  0.80860000  0.36630000  1.0 0.1217736476
H  H141  1  0.63370000  0.07120000  0.69140000  1.0 0.1217736476
H  H142  1  0.80860000  0.36630000  0.57120000  1.0 0.1217736476
H  H143  1  0.69140000  0.63370000  0.07120000  1.0 0.1217736476
H  H144  1  0.19140000  0.86630000  0.92880000  1.0 0.1217736476
C  C1  1  0.44140000  0.05990000  0.61950000  1.0 0.6077720656
C  C2  1  0.61950000  0.44140000  0.05990000  1.0 0.6077720656
C  C3  1  0.05990000  0.61950000  0.44140000  1.0 0.6077720656
C  C4  1  0.44010000  0.38050000  0.94140000  1.0 0.6077720656
C  C5  1  0.11950000  0.05860000  0.94010000  1.0 0.6077720656
C  C6  1  0.94010000  0.11950000  0.05860000  1.0 0.6077720656
C  C7  1  0.88050000  0.55860000  0.55990000  1.0 0.6077720656
C  C8  1  0.38050000  0.94140000  0.44010000  1.0 0.6077720656
C  C9  1  0.55990000  0.88050000  0.55860000  1.0 0.6077720656
C  C10  1  0.94140000  0.44010000  0.38050000  1.0 0.6077720656
C  C11  1  0.55860000  0.55990000  0.88050000  1.0 0.6077720656
C  C12  1  0.05860000  0.94010000  0.11950000  1.0 0.6077720656
C  C13  1  0.42070000  0.08120000  0.66666667  1.0 -0.0226102893
C  C14  1  0.66666667  0.42070000  0.08120000  1.0 -0.0226102893
C  C15  1  0.08120000  0.66666667  0.42070000  1.0 -0.0226102893
C  C16  1  0.41880000  0.33333333  0.92070000  1.0 -0.0226102893
C  C17  1  0.16667000  0.07930000  0.91880000  1.0 -0.0226102893
C  C18  1  0.91880000  0.16667000  0.07930000  1.0 -0.0226102893
C  C19  1  0.83333000  0.57930000  0.58120000  1.0 -0.0226102893
C  C20  1  0.33333333  0.92070000  0.41880000  1.0 -0.0226102893
C  C21  1  0.58120000  0.83333000  0.57930000  1.0 -0.0226102893
C  C22  1  0.92070000  0.41880000  0.33333333  1.0 -0.0226102893
C  C23  1  0.57930000  0.58120000  0.83333000  1.0 -0.0226102893
C  C24  1  0.07930000  0.91880000  0.16667000  1.0 -0.0226102893
C  C25  1  0.38420000  0.05620000  0.69320000  1.0 -0.087309477
C  C26  1  0.69320000  0.38420000  0.05620000  1.0 -0.087309477
C  C27  1  0.05620000  0.69320000  0.38420000  1.0 -0.087309477
C  C28  1  0.44380000  0.30680000  0.88420000  1.0 -0.087309477
C  C29  1  0.19320000  0.11580000  0.94380000  1.0 -0.087309477
C  C30  1  0.94380000  0.19320000  0.11580000  1.0 -0.087309477
C  C31  1  0.80680000  0.61580000  0.55620000  1.0 -0.087309477
C  C32  1  0.30680000  0.88420000  0.44380000  1.0 -0.087309477
C  C33  1  0.55620000  0.80680000  0.61580000  1.0 -0.087309477
C  C34  1  0.88420000  0.44380000  0.30680000  1.0 -0.087309477
C  C35  1  0.61580000  0.55620000  0.80680000  1.0 -0.087309477
C  C36  1  0.11580000  0.94380000  0.19320000  1.0 -0.087309477
C  C37  1  0.43580000  0.12450000  0.68460000  1.0 -0.1002666534
C  C38  1  0.68460000  0.43580000  0.12450000  1.0 -0.1002666534
C  C39  1  0.12450000  0.68460000  0.43580000  1.0 -0.1002666534
C  C40  1  0.37550000  0.31540000  0.93580000  1.0 -0.1002666534
C  C41  1  0.18460000  0.06420000  0.87550000  1.0 -0.1002666534
C  C42  1  0.87550000  0.18460000  0.06420000  1.0 -0.1002666534
C  C43  1  0.81540000  0.56420000  0.62450000  1.0 -0.1002666534
C  C44  1  0.31540000  0.93580000  0.37550000  1.0 -0.1002666534
C  C45  1  0.62450000  0.81540000  0.56420000  1.0 -0.1002666534
C  C46  1  0.93580000  0.37550000  0.31540000  1.0 -0.1002666534
C  C47  1  0.56420000  0.62450000  0.81540000  1.0 -0.1002666534
C  C48  1  0.06420000  0.87550000  0.18460000  1.0 -0.1002666534
C  C49  1  0.41610000  0.14570000  0.72660000  1.0 -0.1085355424
C  C50  1  0.72660000  0.41610000  0.14570000  1.0 -0.1085355424
C  C51  1  0.14570000  0.72660000  0.41610000  1.0 -0.1085355424
C  C52  1  0.35430000  0.27340000  0.91610000  1.0 -0.1085355424
C  C53  1  0.22660000  0.08390000  0.85430000  1.0 -0.1085355424
C  C54  1  0.85430000  0.22660000  0.08390000  1.0 -0.1085355424
C  C55  1  0.77340000  0.58390000  0.64570000  1.0 -0.1085355424
C  C56  1  0.27340000  0.91610000  0.35430000  1.0 -0.1085355424
C  C57  1  0.64570000  0.77340000  0.58390000  1.0 -0.1085355424
C  C58  1  0.91610000  0.35430000  0.27340000  1.0 -0.1085355424
C  C59  1  0.58390000  0.64570000  0.77340000  1.0 -0.1085355424
C  C60  1  0.08390000  0.85430000  0.22660000  1.0 -0.1085355424
C  C61  1  0.35590000  0.14260000  0.79910000  1.0 0.3600614651
C  C62  1  0.79910000  0.35590000  0.14260000  1.0 0.3600614651
C  C63  1  0.14260000  0.79910000  0.35590000  1.0 0.3600614651
C  C64  1  0.35740000  0.20090000  0.85590000  1.0 0.3600614651
C  C65  1  0.29910000  0.14410000  0.85740000  1.0 0.3600614651
C  C66  1  0.85740000  0.29910000  0.14410000  1.0 0.3600614651
C  C67  1  0.70090000  0.64410000  0.64260000  1.0 0.3600614651
C  C68  1  0.20090000  0.85590000  0.35740000  1.0 0.3600614651
C  C69  1  0.64260000  0.70090000  0.64410000  1.0 0.3600614651
C  C70  1  0.85590000  0.35740000  0.20090000  1.0 0.3600614651
C  C71  1  0.64410000  0.64260000  0.70090000  1.0 0.3600614651
C  C72  1  0.14410000  0.85740000  0.29910000  1.0 0.3600614651
C  C73  1  0.36330000  0.07560000  0.73450000  1.0 -0.1085355424
C  C74  1  0.73450000  0.36330000  0.07560000  1.0 -0.1085355424
C  C75  1  0.07560000  0.73450000  0.36330000  1.0 -0.1085355424
C  C76  1  0.42440000  0.26550000  0.86330000  1.0 -0.1085355424
C  C77  1  0.23450000  0.13670000  0.92440000  1.0 -0.1085355424
C  C78  1  0.92440000  0.23450000  0.13670000  1.0 -0.1085355424
C  C79  1  0.76550000  0.63670000  0.57560000  1.0 -0.1085355424
C  C80  1  0.26550000  0.86330000  0.42440000  1.0 -0.1085355424
C  C81  1  0.57560000  0.76550000  0.63670000  1.0 -0.1085355424
C  C82  1  0.86330000  0.42440000  0.26550000  1.0 -0.1085355424
C  C83  1  0.63670000  0.57560000  0.76550000  1.0 -0.1085355424
C  C84  1  0.13670000  0.92440000  0.23450000  1.0 -0.1085355424
C  C85  1  0.38030000  0.12020000  0.75340000  1.0 0.0378820321
C  C86  1  0.75340000  0.38030000  0.12020000  1.0 0.0378820321
C  C87  1  0.12020000  0.75340000  0.38030000  1.0 0.0378820321
C  C88  1  0.37980000  0.24660000  0.88030000  1.0 0.0378820321
C  C89  1  0.25340000  0.11970000  0.87980000  1.0 0.0378820321
C  C90  1  0.87980000  0.25340000  0.11970000  1.0 0.0378820321
C  C91  1  0.74660000  0.61970000  0.62020000  1.0 0.0378820321
C  C92  1  0.24660000  0.88030000  0.37980000  1.0 0.0378820321
C  C93  1  0.62020000  0.74660000  0.61970000  1.0 0.0378820321
C  C94  1  0.88030000  0.37980000  0.24660000  1.0 0.0378820321
C  C95  1  0.61970000  0.62020000  0.74660000  1.0 0.0378820321
C  C96  1  0.11970000  0.87980000  0.25340000  1.0 0.0378820321
C  C97  1  0.42870000  0.22260000  0.46420000  1.0 -0.1002666534
C  C98  1  0.46420000  0.42870000  0.22260000  1.0 -0.1002666534
C  C99  1  0.22260000  0.46420000  0.42870000  1.0 -0.1002666534
C  C100  1  0.27740000  0.53580000  0.92870000  1.0 -0.1002666534
C  C101  1  0.96420000  0.07130000  0.77740000  1.0 -0.1002666534
C  C102  1  0.77740000  0.96420000  0.07130000  1.0 -0.1002666534
C  C103  1  0.03580000  0.57130000  0.72260000  1.0 -0.1002666534
C  C104  1  0.53580000  0.92870000  0.27740000  1.0 -0.1002666534
C  C105  1  0.72260000  0.03580000  0.57130000  1.0 -0.1002666534
C  C106  1  0.92870000  0.27740000  0.53580000  1.0 -0.1002666534
C  C107  1  0.57130000  0.72260000  0.03580000  1.0 -0.1002666534
C  C108  1  0.07130000  0.77740000  0.96420000  1.0 -0.1002666534
C  C109  1  0.47490000  0.20770000  0.44410000  1.0 -0.0267539884
C  C110  1  0.44410000  0.47490000  0.20770000  1.0 -0.0267539884
C  C111  1  0.20770000  0.44410000  0.47490000  1.0 -0.0267539884
C  C112  1  0.29230000  0.55590000  0.97490000  1.0 -0.0267539884
C  C113  1  0.94410000  0.02510000  0.79230000  1.0 -0.0267539884
C  C114  1  0.79230000  0.94410000  0.02510000  1.0 -0.0267539884
C  C115  1  0.05590000  0.52510000  0.70770000  1.0 -0.0267539884
C  C116  1  0.55590000  0.97490000  0.29230000  1.0 -0.0267539884
C  C117  1  0.70770000  0.05590000  0.52510000  1.0 -0.0267539884
C  C118  1  0.97490000  0.29230000  0.55590000  1.0 -0.0267539884
C  C119  1  0.52510000  0.70770000  0.05590000  1.0 -0.0267539884
C  C120  1  0.02510000  0.79230000  0.94410000  1.0 -0.0267539884
C  C121  1  0.40640000  0.26450000  0.44920000  1.0 -0.1337016452
C  C122  1  0.44920000  0.40640000  0.26450000  1.0 -0.1337016452
C  C123  1  0.26450000  0.44920000  0.40640000  1.0 -0.1337016452
C  C124  1  0.23550000  0.55080000  0.90640000  1.0 -0.1337016452
C  C125  1  0.94920000  0.09360000  0.73550000  1.0 -0.1337016452
C  C126  1  0.73550000  0.94920000  0.09360000  1.0 -0.1337016452
C  C127  1  0.05080000  0.59360000  0.76450000  1.0 -0.1337016452
C  C128  1  0.55080000  0.90640000  0.23550000  1.0 -0.1337016452
C  C129  1  0.76450000  0.05080000  0.59360000  1.0 -0.1337016452
C  C130  1  0.90640000  0.23550000  0.55080000  1.0 -0.1337016452
C  C131  1  0.59360000  0.76450000  0.05080000  1.0 -0.1337016452
C  C132  1  0.09360000  0.73550000  0.94920000  1.0 -0.1337016452
C  C133  1  0.49880000  0.16120000  0.46300000  1.0 0.5039513095
C  C134  1  0.46300000  0.49880000  0.16120000  1.0 0.5039513095
C  C135  1  0.16120000  0.46300000  0.49880000  1.0 0.5039513095
C  C136  1  0.33880000  0.53700000  0.99880000  1.0 0.5039513095
C  C137  1  0.96300000  0.00120000  0.83880000  1.0 0.5039513095
C  C138  1  0.83880000  0.96300000  0.00120000  1.0 0.5039513095
C  C139  1  0.03700000  0.50120000  0.66120000  1.0 0.5039513095
C  C140  1  0.53700000  0.99880000  0.33880000  1.0 0.5039513095
C  C141  1  0.66120000  0.03700000  0.50120000  1.0 0.5039513095
C  C142  1  0.99880000  0.33880000  0.53700000  1.0 0.5039513095
C  C143  1  0.50120000  0.66120000  0.03700000  1.0 0.5039513095
C  C144  1  0.00120000  0.83880000  0.96300000  1.0 0.5039513095
C  C145  1  0.42670000  0.29520000  0.41210000  1.0 0.0378820321
C  C146  1  0.41210000  0.42670000  0.29520000  1.0 0.0378820321
C  C147  1  0.29520000  0.41210000  0.42670000  1.0 0.0378820321
C  C148  1  0.20480000  0.58790000  0.92670000  1.0 0.0378820321
C  C149  1  0.91210000  0.07330000  0.70480000  1.0 0.0378820321
C  C150  1  0.70480000  0.91210000  0.07330000  1.0 0.0378820321
C  C151  1  0.08790000  0.57330000  0.79520000  1.0 0.0378820321
C  C152  1  0.58790000  0.92670000  0.20480000  1.0 0.0378820321
C  C153  1  0.79520000  0.08790000  0.57330000  1.0 0.0378820321
C  C154  1  0.92670000  0.20480000  0.58790000  1.0 0.0378820321
C  C155  1  0.57330000  0.79520000  0.08790000  1.0 0.0378820321
C  C156  1  0.07330000  0.70480000  0.91210000  1.0 0.0378820321
C  C157  1  0.49460000  0.23520000  0.40850000  1.0 -0.1085355424
C  C158  1  0.40850000  0.49460000  0.23520000  1.0 -0.1085355424
C  C159  1  0.23520000  0.40850000  0.49460000  1.0 -0.1085355424
C  C160  1  0.26480000  0.59150000  0.99460000  1.0 -0.1085355424
C  C161  1  0.90850000  0.00540000  0.76480000  1.0 -0.1085355424
C  C162  1  0.76480000  0.90850000  0.00540000  1.0 -0.1085355424
C  C163  1  0.09150000  0.50540000  0.73520000  1.0 -0.1085355424
C  C164  1  0.59150000  0.99460000  0.26480000  1.0 -0.1085355424
C  C165  1  0.73520000  0.09150000  0.50540000  1.0 -0.1085355424
C  C166  1  0.99460000  0.26480000  0.59150000  1.0 -0.1085355424
C  C167  1  0.50540000  0.73520000  0.09150000  1.0 -0.1085355424
C  C168  1  0.00540000  0.76480000  0.90850000  1.0 -0.1085355424
C  C169  1  0.40210000  0.34150000  0.39550000  1.0 0.3380456265
C  C170  1  0.39550000  0.40210000  0.34150000  1.0 0.3380456265
C  C171  1  0.34150000  0.39550000  0.40210000  1.0 0.3380456265
C  C172  1  0.15850000  0.60450000  0.90210000  1.0 0.3380456265
C  C173  1  0.89550000  0.09790000  0.65850000  1.0 0.3380456265
C  C174  1  0.65850000  0.89550000  0.09790000  1.0 0.3380456265
C  C175  1  0.10450000  0.59790000  0.84150000  1.0 0.3380456265
C  C176  1  0.60450000  0.90210000  0.15850000  1.0 0.3380456265
C  C177  1  0.84150000  0.10450000  0.59790000  1.0 0.3380456265
C  C178  1  0.90210000  0.15850000  0.60450000  1.0 0.3380456265
C  C179  1  0.59790000  0.84150000  0.10450000  1.0 0.3380456265
C  C180  1  0.09790000  0.65850000  0.89550000  1.0 0.3380456265
C  C181  1  0.47040000  0.27590000  0.38820000  1.0 -0.1337016452
C  C182  1  0.38820000  0.47040000  0.27590000  1.0 -0.1337016452
C  C183  1  0.27590000  0.38820000  0.47040000  1.0 -0.1337016452
C  C184  1  0.22410000  0.61180000  0.97040000  1.0 -0.1337016452
C  C185  1  0.88820000  0.02960000  0.72410000  1.0 -0.1337016452
C  C186  1  0.72410000  0.88820000  0.02960000  1.0 -0.1337016452
C  C187  1  0.11180000  0.52960000  0.77590000  1.0 -0.1337016452
C  C188  1  0.61180000  0.97040000  0.22410000  1.0 -0.1337016452
C  C189  1  0.77590000  0.11180000  0.52960000  1.0 -0.1337016452
C  C190  1  0.97040000  0.22410000  0.61180000  1.0 -0.1337016452
C  C191  1  0.52960000  0.77590000  0.11180000  1.0 -0.1337016452
C  C192  1  0.02960000  0.72410000  0.88820000  1.0 -0.1337016452
C  C193  1  0.36950000  0.23110000  0.34030000  1.0 -0.0101612628
C  C194  1  0.34030000  0.36950000  0.23110000  1.0 -0.0101612628
C  C195  1  0.23110000  0.34030000  0.36950000  1.0 -0.0101612628
C  C196  1  0.26890000  0.65970000  0.86950000  1.0 -0.0101612628
C  C197  1  0.84030000  0.13050000  0.76890000  1.0 -0.0101612628
C  C198  1  0.76890000  0.84030000  0.13050000  1.0 -0.0101612628
C  C199  1  0.15970000  0.63050000  0.73110000  1.0 -0.0101612628
C  C200  1  0.65970000  0.86950000  0.26890000  1.0 -0.0101612628
C  C201  1  0.73110000  0.15970000  0.63050000  1.0 -0.0101612628
C  C202  1  0.86950000  0.26890000  0.65970000  1.0 -0.0101612628
C  C203  1  0.63050000  0.73110000  0.15970000  1.0 -0.0101612628
C  C204  1  0.13050000  0.76890000  0.84030000  1.0 -0.0101612628
C  C205  1  0.34620000  0.19530000  0.37080000  1.0 0.0731270149
C  C206  1  0.37080000  0.34620000  0.19530000  1.0 0.0731270149
C  C207  1  0.19530000  0.37080000  0.34620000  1.0 0.0731270149
C  C208  1  0.30470000  0.62920000  0.84620000  1.0 0.0731270149
C  C209  1  0.87080000  0.15380000  0.80470000  1.0 0.0731270149
C  C210  1  0.80470000  0.87080000  0.15380000  1.0 0.0731270149
C  C211  1  0.12920000  0.65380000  0.69530000  1.0 0.0731270149
C  C212  1  0.62920000  0.84620000  0.30470000  1.0 0.0731270149
C  C213  1  0.69530000  0.12920000  0.65380000  1.0 0.0731270149
C  C214  1  0.84620000  0.30470000  0.62920000  1.0 0.0731270149
C  C215  1  0.65380000  0.69530000  0.12920000  1.0 0.0731270149
C  C216  1  0.15380000  0.80470000  0.87080000  1.0 0.0731270149
C  C217  1  0.42740000  0.14960000  0.35930000  1.0 -0.0101612628
C  C218  1  0.35930000  0.42740000  0.14960000  1.0 -0.0101612628
C  C219  1  0.14960000  0.35930000  0.42740000  1.0 -0.0101612628
C  C220  1  0.35040000  0.64070000  0.92740000  1.0 -0.0101612628
C  C221  1  0.85930000  0.07260000  0.85040000  1.0 -0.0101612628
C  C222  1  0.85040000  0.85930000  0.07260000  1.0 -0.0101612628
C  C223  1  0.14070000  0.57260000  0.64960000  1.0 -0.0101612628
C  C224  1  0.64070000  0.92740000  0.35040000  1.0 -0.0101612628
C  C225  1  0.64960000  0.14070000  0.57260000  1.0 -0.0101612628
C  C226  1  0.92740000  0.35040000  0.64070000  1.0 -0.0101612628
C  C227  1  0.57260000  0.64960000  0.14070000  1.0 -0.0101612628
C  C228  1  0.07260000  0.85040000  0.85930000  1.0 -0.0101612628
C  C229  1  0.44610000  0.18430000  0.32750000  1.0 -0.1337016452
C  C230  1  0.32750000  0.44610000  0.18430000  1.0 -0.1337016452
C  C231  1  0.18430000  0.32750000  0.44610000  1.0 -0.1337016452
C  C232  1  0.31570000  0.67250000  0.94610000  1.0 -0.1337016452
C  C233  1  0.82750000  0.05390000  0.81570000  1.0 -0.1337016452
C  C234  1  0.81570000  0.82750000  0.05390000  1.0 -0.1337016452
C  C235  1  0.17250000  0.55390000  0.68430000  1.0 -0.1337016452
C  C236  1  0.67250000  0.94610000  0.31570000  1.0 -0.1337016452
C  C237  1  0.68430000  0.17250000  0.55390000  1.0 -0.1337016452
C  C238  1  0.94610000  0.31570000  0.67250000  1.0 -0.1337016452
C  C239  1  0.55390000  0.68430000  0.17250000  1.0 -0.1337016452
C  C240  1  0.05390000  0.81570000  0.82750000  1.0 -0.1337016452
C  C241  1  0.41820000  0.22370000  0.32080000  1.0 -0.1173067307
C  C242  1  0.32080000  0.41820000  0.22370000  1.0 -0.1173067307
C  C243  1  0.22370000  0.32080000  0.41820000  1.0 -0.1173067307
C  C244  1  0.27630000  0.67920000  0.91820000  1.0 -0.1173067307
C  C245  1  0.82080000  0.08180000  0.77630000  1.0 -0.1173067307
C  C246  1  0.77630000  0.82080000  0.08180000  1.0 -0.1173067307
C  C247  1  0.17920000  0.58180000  0.72370000  1.0 -0.1173067307
C  C248  1  0.67920000  0.91820000  0.27630000  1.0 -0.1173067307
C  C249  1  0.72370000  0.17920000  0.58180000  1.0 -0.1173067307
C  C250  1  0.91820000  0.27630000  0.67920000  1.0 -0.1173067307
C  C251  1  0.58180000  0.72370000  0.17920000  1.0 -0.1173067307
C  C252  1  0.08180000  0.77630000  0.82080000  1.0 -0.1173067307
C  C253  1  0.46110000  0.10600000  0.37280000  1.0 0.1602034007
C  C254  1  0.37280000  0.46110000  0.10600000  1.0 0.1602034007
C  C255  1  0.10600000  0.37280000  0.46110000  1.0 0.1602034007
C  C256  1  0.39400000  0.62720000  0.96110000  1.0 0.1602034007
C  C257  1  0.87280000  0.03890000  0.89400000  1.0 0.1602034007
C  C258  1  0.89400000  0.87280000  0.03890000  1.0 0.1602034007
C  C259  1  0.12720000  0.53890000  0.60600000  1.0 0.1602034007
C  C260  1  0.62720000  0.96110000  0.39400000  1.0 0.1602034007
C  C261  1  0.60600000  0.12720000  0.53890000  1.0 0.1602034007
C  C262  1  0.96110000  0.39400000  0.62720000  1.0 0.1602034007
C  C263  1  0.53890000  0.60600000  0.12720000  1.0 0.1602034007
C  C264  1  0.03890000  0.89400000  0.87280000  1.0 0.1602034007
C  C265  1  0.37930000  0.15250000  0.38110000  1.0 0.0491391944
C  C266  1  0.38110000  0.37930000  0.15250000  1.0 0.0491391944
C  C267  1  0.15250000  0.38110000  0.37930000  1.0 0.0491391944
C  C268  1  0.34750000  0.61890000  0.87930000  1.0 0.0491391944
C  C269  1  0.88110000  0.12070000  0.84750000  1.0 0.0491391944
C  C270  1  0.84750000  0.88110000  0.12070000  1.0 0.0491391944
C  C271  1  0.11890000  0.62070000  0.65250000  1.0 0.0491391944
C  C272  1  0.61890000  0.87930000  0.34750000  1.0 0.0491391944
C  C273  1  0.65250000  0.11890000  0.62070000  1.0 0.0491391944
C  C274  1  0.87930000  0.34750000  0.61890000  1.0 0.0491391944
C  C275  1  0.62070000  0.65250000  0.11890000  1.0 0.0491391944
C  C276  1  0.12070000  0.84750000  0.88110000  1.0 0.0491391944
C  C277  1  0.31970000  0.25750000  0.31780000  1.0 0.3380456265
C  C278  1  0.31780000  0.31970000  0.25750000  1.0 0.3380456265
C  C279  1  0.25750000  0.31780000  0.31970000  1.0 0.3380456265
C  C280  1  0.24250000  0.68220000  0.81970000  1.0 0.3380456265
C  C281  1  0.81780000  0.18030000  0.74250000  1.0 0.3380456265
C  C282  1  0.74250000  0.81780000  0.18030000  1.0 0.3380456265
C  C283  1  0.18220000  0.68030000  0.75750000  1.0 0.3380456265
C  C284  1  0.68220000  0.81970000  0.24250000  1.0 0.3380456265
C  C285  1  0.75750000  0.18220000  0.68030000  1.0 0.3380456265
C  C286  1  0.81970000  0.24250000  0.68220000  1.0 0.3380456265
C  C287  1  0.68030000  0.75750000  0.18220000  1.0 0.3380456265
C  C288  1  0.18030000  0.74250000  0.81780000  1.0 0.3380456265
C  C289  1  0.39480000  0.08410000  0.41390000  1.0 0.3664870395
C  C290  1  0.41390000  0.39480000  0.08410000  1.0 0.3600614651
C  C291  1  0.08410000  0.41390000  0.39480000  1.0 0.3600614651
C  C292  1  0.41590000  0.58610000  0.89480000  1.0 0.3600614651
C  C293  1  0.91390000  0.10520000  0.91590000  1.0 0.3664870395
C  C294  1  0.91590000  0.91390000  0.10520000  1.0 0.3600614651
C  C295  1  0.08610000  0.60520000  0.58410000  1.0 0.3600614651
C  C296  1  0.58610000  0.89480000  0.41590000  1.0 0.3600614651
C  C297  1  0.58410000  0.08610000  0.60520000  1.0 0.3664870395
C  C298  1  0.89480000  0.41590000  0.58610000  1.0 0.3664870395
C  C299  1  0.60520000  0.58410000  0.08610000  1.0 0.3600614651
C  C300  1  0.10520000  0.91590000  0.91390000  1.0 0.3600614651
C  C301  1  0.39520000  0.14720000  0.34700000  1.0 0.0077249304
C  C302  1  0.34700000  0.39520000  0.14720000  1.0 0.0077249304
C  C303  1  0.14720000  0.34700000  0.39520000  1.0 0.0077249304
C  C304  1  0.35280000  0.65300000  0.89520000  1.0 0.0077249304
C  C305  1  0.84700000  0.10480000  0.85280000  1.0 0.0077249304
C  C306  1  0.85280000  0.84700000  0.10480000  1.0 0.0077249304
C  C307  1  0.15300000  0.60480000  0.64720000  1.0 0.0077249304
C  C308  1  0.65300000  0.89520000  0.35280000  1.0 0.0077249304
C  C309  1  0.64720000  0.15300000  0.60480000  1.0 0.0077249304
C  C310  1  0.89520000  0.35280000  0.65300000  1.0 0.0077249304
C  C311  1  0.60480000  0.64720000  0.15300000  1.0 0.0077249304
C  C312  1  0.10480000  0.85280000  0.84700000  1.0 0.0077249304
C  C313  1  0.37480000  0.19130000  0.32470000  1.0 0.0378820321
C  C314  1  0.32470000  0.37480000  0.19130000  1.0 0.0378820321
C  C315  1  0.19130000  0.32470000  0.37480000  1.0 0.0378820321
C  C316  1  0.30870000  0.67530000  0.87480000  1.0 0.0378820321
C  C317  1  0.82470000  0.12520000  0.80870000  1.0 0.0378820321
C  C318  1  0.80870000  0.82470000  0.12520000  1.0 0.0378820321
C  C319  1  0.17530000  0.62520000  0.69130000  1.0 0.0378820321
C  C320  1  0.67530000  0.87480000  0.30870000  1.0 0.0378820321
C  C321  1  0.69130000  0.17530000  0.62520000  1.0 0.0378820321
C  C322  1  0.87480000  0.30870000  0.67530000  1.0 0.0378820321
C  C323  1  0.62520000  0.69130000  0.17530000  1.0 0.0378820321
C  C324  1  0.12520000  0.80870000  0.82470000  1.0 0.0378820321
C  C325  1  0.30590000  0.18930000  0.38000000  1.0 -0.1173067307
C  C326  1  0.38000000  0.30590000  0.18930000  1.0 -0.1173067307
C  C327  1  0.18930000  0.38000000  0.30590000  1.0 -0.1173067307
C  C328  1  0.31070000  0.62000000  0.80590000  1.0 -0.1173067307
C  C329  1  0.88000000  0.19410000  0.81070000  1.0 -0.1173067307
C  C330  1  0.81070000  0.88000000  0.19410000  1.0 -0.1173067307
C  C331  1  0.12000000  0.69410000  0.68930000  1.0 -0.1173067307
C  C332  1  0.62000000  0.80590000  0.31070000  1.0 -0.1173067307
C  C333  1  0.68930000  0.12000000  0.69410000  1.0 -0.1173067307
C  C334  1  0.80590000  0.31070000  0.62000000  1.0 -0.1173067307
C  C335  1  0.69410000  0.68930000  0.12000000  1.0 -0.1173067307
C  C336  1  0.19410000  0.81070000  0.88000000  1.0 -0.1173067307
C  C337  1  0.32590000  0.14830000  0.40230000  1.0 -0.0561571634
C  C338  1  0.40230000  0.32590000  0.14830000  1.0 -0.0561571634
C  C339  1  0.14830000  0.40230000  0.32590000  1.0 -0.0561571634
C  C340  1  0.35170000  0.59770000  0.82590000  1.0 -0.0561571634
C  C341  1  0.90230000  0.17410000  0.85170000  1.0 -0.0561571634
C  C342  1  0.85170000  0.90230000  0.17410000  1.0 -0.0561571634
C  C343  1  0.09770000  0.67410000  0.64830000  1.0 -0.0561571634
C  C344  1  0.59770000  0.82590000  0.35170000  1.0 -0.0561571634
C  C345  1  0.64830000  0.09770000  0.67410000  1.0 -0.0561571634
C  C346  1  0.82590000  0.35170000  0.59770000  1.0 -0.0561571634
C  C347  1  0.67410000  0.64830000  0.09770000  1.0 -0.0561571634
C  C348  1  0.17410000  0.85170000  0.90230000  1.0 -0.0561571634
C  C349  1  0.37070000  0.12700000  0.38730000  1.0 -0.0267539884
C  C350  1  0.38730000  0.37070000  0.12700000  1.0 -0.0267539884
C  C351  1  0.12700000  0.38730000  0.37070000  1.0 -0.0267539884
C  C352  1  0.37300000  0.61270000  0.87070000  1.0 -0.0267539884
C  C353  1  0.88730000  0.12930000  0.87300000  1.0 -0.0267539884
C  C354  1  0.87300000  0.88730000  0.12930000  1.0 -0.0226102893
C  C355  1  0.11270000  0.62930000  0.62700000  1.0 -0.0267539884
C  C356  1  0.61270000  0.87070000  0.37300000  1.0 -0.0267539884
C  C357  1  0.62700000  0.11270000  0.62930000  1.0 -0.0267539884
C  C358  1  0.87070000  0.37300000  0.61270000  1.0 -0.0267539884
C  C359  1  0.62930000  0.62700000  0.11270000  1.0 -0.0267539884
C  C360  1  0.12930000  0.87300000  0.88730000  1.0 -0.0267539884
C  C361  1  0.32920000  0.20640000  0.33770000  1.0 -0.0226102893
C  C362  1  0.33770000  0.32920000  0.20640000  1.0 -0.0226102893
C  C363  1  0.20640000  0.33770000  0.32920000  1.0 -0.0226102893
C  C364  1  0.29360000  0.66230000  0.82920000  1.0 -0.0226102893
C  C365  1  0.83770000  0.17080000  0.79360000  1.0 -0.0226102893
C  C366  1  0.79360000  0.83770000  0.17080000  1.0 -0.0226102893
C  C367  1  0.16230000  0.67080000  0.70640000  1.0 -0.0226102893
C  C368  1  0.66230000  0.82920000  0.29360000  1.0 -0.0226102893
C  C369  1  0.70640000  0.16230000  0.67080000  1.0 -0.0226102893
C  C370  1  0.82920000  0.29360000  0.66230000  1.0 -0.0226102893
C  C371  1  0.67080000  0.70640000  0.16230000  1.0 -0.0226102893
C  C372  1  0.17080000  0.79360000  0.83770000  1.0 -0.0226102893
N  N1  1  0.31710000  0.12200000  0.81710000  1.0 -0.4239472937
N  N2  1  0.81710000  0.31710000  0.12200000  1.0 -0.4239472937
N  N3  1  0.12200000  0.81710000  0.31710000  1.0 -0.4239472937
N  N4  1  0.37800000  0.18290000  0.81710000  1.0 -0.4239472937
N  N5  1  0.31710000  0.18290000  0.87800000  1.0 -0.4239472937
N  N6  1  0.87800000  0.31710000  0.18290000  1.0 -0.4239472937
N  N7  1  0.68290000  0.68290000  0.62200000  1.0 -0.4239472937
N  N8  1  0.18290000  0.81710000  0.37800000  1.0 -0.4239472937
N  N9  1  0.62200000  0.68290000  0.68290000  1.0 -0.4239472937
N  N10  1  0.81710000  0.37800000  0.18290000  1.0 -0.4239472937
N  N11  1  0.68290000  0.62200000  0.68290000  1.0 -0.4239472937
N  N12  1  0.18290000  0.87800000  0.31710000  1.0 -0.4239472937
N  N13  1  0.42010000  0.36290000  0.35550000  1.0 -0.3681029097
N  N14  1  0.35550000  0.42010000  0.36290000  1.0 -0.3681029097
N  N15  1  0.36290000  0.35550000  0.42010000  1.0 -0.3681029097
N  N16  1  0.13710000  0.64450000  0.92010000  1.0 -0.3681029097
N  N17  1  0.85550000  0.07990000  0.63710000  1.0 -0.3681029097
N  N18  1  0.63710000  0.85550000  0.07990000  1.0 -0.3681029097
N  N19  1  0.14450000  0.57990000  0.86290000  1.0 -0.3681029097
N  N20  1  0.64450000  0.92010000  0.13710000  1.0 -0.3681029097
N  N21  1  0.86290000  0.14450000  0.57990000  1.0 -0.3681029097
N  N22  1  0.92010000  0.13710000  0.64450000  1.0 -0.3681029097
N  N23  1  0.57990000  0.86290000  0.14450000  1.0 -0.3681029097
N  N24  1  0.07990000  0.63710000  0.85550000  1.0 -0.3681029097
N  N25  1  0.34110000  0.27930000  0.27580000  1.0 -0.5033214679
N  N26  1  0.27580000  0.34110000  0.27930000  1.0 -0.5033214679
N  N27  1  0.27930000  0.27580000  0.34110000  1.0 -0.5033214679
N  N28  1  0.22070000  0.72420000  0.84110000  1.0 -0.5033214679
N  N29  1  0.77580000  0.15890000  0.72070000  1.0 -0.5033214679
N  N30  1  0.72070000  0.77580000  0.15890000  1.0 -0.5033214679
N  N31  1  0.22420000  0.65890000  0.77930000  1.0 -0.5033214679
N  N32  1  0.72420000  0.84110000  0.22070000  1.0 -0.5033214679
N  N33  1  0.77930000  0.22420000  0.65890000  1.0 -0.5033214679
N  N34  1  0.84110000  0.22070000  0.72420000  1.0 -0.5033214679
N  N35  1  0.65890000  0.77930000  0.22420000  1.0 -0.5033214679
N  N36  1  0.15890000  0.72070000  0.77580000  1.0 -0.5033214679
O  O1  1  0.53785000  0.03785000  0.46215000  1.0 -0.9444624201
O  O2  1  0.46215000  0.53785000  0.03785000  1.0 -0.9450203196
O  O3  1  0.03785000  0.46215000  0.53785000  1.0 -0.9450203196
O  O4  1  0.96215000  0.96215000  0.96215000  1.0 -0.9450203196
O  O5  1  0.49817000  0.94437000  0.47352000  1.0 -0.8736079749
O  O6  1  0.47352000  0.49817000  0.94437000  1.0 -0.8736079749
O  O7  1  0.94437000  0.47352000  0.49817000  1.0 -0.8736079749
O  O8  1  0.55563000  0.52648000  0.99817000  1.0 -0.8736079749
O  O9  1  0.97352000  0.00183000  0.05563000  1.0 -0.8736079749
O  O10  1  0.05563000  0.97352000  0.00183000  1.0 -0.8736079749
O  O11  1  0.02648000  0.50183000  0.44437000  1.0 -0.8736079749
O  O12  1  0.52648000  0.99817000  0.55563000  1.0 -0.8736079749
O  O13  1  0.44437000  0.02648000  0.50183000  1.0 -0.8736079749
O  O14  1  0.99817000  0.55563000  0.52648000  1.0 -0.8736079749
O  O15  1  0.50183000  0.44437000  0.02648000  1.0 -0.8736079749
O  O16  1  0.00183000  0.05563000  0.97352000  1.0 -0.8736079749
O  O17  1  0.43719000  0.06770000  0.39684000  1.0 -0.460416408
O  O18  1  0.39684000  0.43719000  0.06770000  1.0 -0.460416408
O  O19  1  0.06770000  0.39684000  0.43719000  1.0 -0.460416408
O  O20  1  0.43230000  0.60316000  0.93719000  1.0 -0.460416408
O  O21  1  0.89684000  0.06281000  0.93230000  1.0 -0.460416408
O  O22  1  0.93230000  0.89684000  0.06281000  1.0 -0.460416408
O  O23  1  0.10316000  0.56281000  0.56770000  1.0 -0.460416408
O  O24  1  0.60316000  0.93719000  0.43230000  1.0 -0.460416408
O  O25  1  0.56770000  0.10316000  0.56281000  1.0 -0.460416408
O  O26  1  0.93719000  0.43230000  0.60316000  1.0 -0.460416408
O  O27  1  0.56281000  0.56770000  0.10316000  1.0 -0.460416408
O  O28  1  0.06281000  0.93230000  0.89684000  1.0 -0.460416408
O  O29  1  0.46520000  0.09124000  0.59224000  1.0 -0.5301854279
O  O30  1  0.59224000  0.46520000  0.09124000  1.0 -0.5301854279
O  O31  1  0.09124000  0.59224000  0.46520000  1.0 -0.5301854279
O  O32  1  0.40876000  0.40776000  0.96520000  1.0 -0.5301854279
O  O33  1  0.09224000  0.03480000  0.90876000  1.0 -0.5301854279
O  O34  1  0.90876000  0.09224000  0.03480000  1.0 -0.5301854279
O  O35  1  0.90776000  0.53480000  0.59124000  1.0 -0.5301854279
O  O36  1  0.40776000  0.96520000  0.40876000  1.0 -0.5301854279
O  O37  1  0.59124000  0.90776000  0.53480000  1.0 -0.5301854279
O  O38  1  0.96520000  0.40876000  0.40776000  1.0 -0.5301854279
O  O39  1  0.53480000  0.59124000  0.90776000  1.0 -0.5301854279
O  O40  1  0.03480000  0.90876000  0.09224000  1.0 -0.5301854279
O  O41  1  0.43500000  0.01613000  0.61088000  1.0 -0.6105511204
O  O42  1  0.61088000  0.43500000  0.01613000  1.0 -0.6105511204
O  O43  1  0.01613000  0.61088000  0.43500000  1.0 -0.6105511204
O  O44  1  0.48387000  0.38912000  0.93500000  1.0 -0.6105511204
O  O45  1  0.11088000  0.06500000  0.98387000  1.0 -0.6105511204
O  O46  1  0.98387000  0.11088000  0.06500000  1.0 -0.6105511204
O  O47  1  0.88912000  0.56500000  0.51613000  1.0 -0.6105511204
O  O48  1  0.38912000  0.93500000  0.48387000  1.0 -0.6105511204
O  O49  1  0.51613000  0.88912000  0.56500000  1.0 -0.6105511204
O  O50  1  0.93500000  0.48387000  0.38912000  1.0 -0.6105511204
O  O51  1  0.56500000  0.51613000  0.88912000  1.0 -0.6105511204
O  O52  1  0.06500000  0.98387000  0.11088000  1.0 -0.6105511204
O  O53  1  0.47931000  0.13919000  0.49690000  1.0 -0.4454548325
O  O54  1  0.49690000  0.47931000  0.13919000  1.0 -0.4454548325
O  O55  1  0.13919000  0.49690000  0.47931000  1.0 -0.4454548325
O  O56  1  0.36081000  0.50310000  0.97931000  1.0 -0.4454548325
O  O57  1  0.99690000  0.02069000  0.86081000  1.0 -0.4454548325
O  O58  1  0.86081000  0.99690000  0.02069000  1.0 -0.4454548325
O  O59  1  0.00310000  0.52069000  0.63919000  1.0 -0.4454548325
O  O60  1  0.50310000  0.97931000  0.36081000  1.0 -0.4454548325
O  O61  1  0.63919000  0.00310000  0.52069000  1.0 -0.4454548325
O  O62  1  0.97931000  0.36081000  0.50310000  1.0 -0.4454548325
O  O63  1  0.52069000  0.63919000  0.00310000  1.0 -0.4454548325
O  O64  1  0.02069000  0.86081000  0.99690000  1.0 -0.4454548325
O  O65  1  0.54540000  0.15420000  0.45120000  1.0 -0.2855249535
O  O66  1  0.45120000  0.54540000  0.15420000  1.0 -0.2855249535
O  O67  1  0.15420000  0.45120000  0.54540000  1.0 -0.2855249535
O  O68  1  0.34580000  0.54880000  0.04540000  1.0 -0.2855249535
O  O69  1  0.95120000  0.95460000  0.84580000  1.0 -0.2855249535
O  O70  1  0.84580000  0.95120000  0.95460000  1.0 -0.2855249535
O  O71  1  0.04880000  0.45460000  0.65420000  1.0 -0.2855249535
O  O72  1  0.54880000  0.04540000  0.34580000  1.0 -0.2855249535
O  O73  1  0.65420000  0.04880000  0.45460000  1.0 -0.2855249535
O  O74  1  0.04540000  0.34580000  0.54880000  1.0 -0.2855249535
O  O75  1  0.45460000  0.65420000  0.04880000  1.0 -0.2855249535
O  O76  1  0.95460000  0.84580000  0.95120000  1.0 -0.2855249535
O  O77  1  0.50430000  0.11770000  0.37500000  1.0 -0.3232492821
O  O78  1  0.37500000  0.50430000  0.11770000  1.0 -0.3232492821
O  O79  1  0.11770000  0.37500000  0.50430000  1.0 -0.3232492821
O  O80  1  0.38230000  0.62500000  0.00430000  1.0 -0.3232492821
O  O81  1  0.87500000  0.99570000  0.88230000  1.0 -0.3232492821
O  O82  1  0.88230000  0.87500000  0.99570000  1.0 -0.3232492821
O  O83  1  0.12500000  0.49570000  0.61770000  1.0 -0.3232492821
O  O84  1  0.62500000  0.00430000  0.38230000  1.0 -0.3232492821
O  O85  1  0.61770000  0.12500000  0.49570000  1.0 -0.3232492821
O  O86  1  0.00430000  0.38230000  0.62500000  1.0 -0.3232492821
O  O87  1  0.49570000  0.61770000  0.12500000  1.0 -0.3232492821
O  O88  1  0.99570000  0.88230000  0.87500000  1.0 -0.3232492821
O  O89  1  0.52980000  0.13980000  0.42650000  1.0 -0.1173067307
O  O90  1  0.42650000  0.52980000  0.13980000  1.0 -0.1173067307
O  O91  1  0.13980000  0.42650000  0.52980000  1.0 -0.1173067307
O  O92  1  0.36020000  0.57350000  0.02980000  1.0 -0.1173067307
O  O93  1  0.92650000  0.97020000  0.86020000  1.0 -0.1173067307
O  O94  1  0.86020000  0.92650000  0.97020000  1.0 -0.1173067307
O  O95  1  0.07350000  0.47020000  0.63980000  1.0 -0.1173067307
O  O96  1  0.57350000  0.02980000  0.36020000  1.0 -0.1173067307
O  O97  1  0.63980000  0.07350000  0.47020000  1.0 -0.1173067307
O  O98  1  0.02980000  0.36020000  0.57350000  1.0 -0.1173067307
O  O99  1  0.47020000  0.63980000  0.07350000  1.0 -0.1173067307
O  O100  1  0.97020000  0.86020000  0.92650000  1.0 -0.1173067307
O  O101  1  0.37080000  0.06780000  0.45250000  1.0 -0.3959770219
O  O102  1  0.45250000  0.37080000  0.06780000  1.0 -0.3959770219
O  O103  1  0.06780000  0.45250000  0.37080000  1.0 -0.3959770219
O  O104  1  0.43220000  0.54750000  0.87080000  1.0 -0.3959770219
O  O105  1  0.95250000  0.12920000  0.93220000  1.0 -0.3959770219
O  O106  1  0.93220000  0.95250000  0.12920000  1.0 -0.3959770219
O  O107  1  0.04750000  0.62920000  0.56780000  1.0 -0.3959770219
O  O108  1  0.54750000  0.87080000  0.43220000  1.0 -0.3959770219
O  O109  1  0.56780000  0.04750000  0.62920000  1.0 -0.3959770219
O  O110  1  0.87080000  0.43220000  0.54750000  1.0 -0.3959770219
O  O111  1  0.62920000  0.56780000  0.04750000  1.0 -0.3959770219
O  O112  1  0.12920000  0.93220000  0.95250000  1.0 -0.3959770219
