# DDEC6 charges by PACMAN v1.1 (https://github.com/mtap-research/PACMAN-charge/)
data_JITPIP_ASR_pacman
_symmetry_space_group_name_H-M   'P 1'
_cell_length_a   29.70910000
_cell_length_b   29.70910000
_cell_length_c   29.70910000
_cell_angle_alpha   107.29300000
_cell_angle_beta   107.29300000
_cell_angle_gamma   113.92100000
_symmetry_Int_Tables_number   1
_chemical_formula_structural   Y3Cd10H92C192(N12O31)2
_chemical_formula_sum   'Y6 Cd20 H184 C384 N48 O124'
_cell_volume   20093.87577734
_cell_formula_units_Z   2
loop_
 _symmetry_equiv_pos_site_id
 _symmetry_equiv_pos_as_xyz
  1  'x, y, z'
loop_
 _atom_site_type_symbol
 _atom_site_label
 _atom_site_symmetry_multiplicity
 _atom_site_fract_x
 _atom_site_fract_y
 _atom_site_fract_z
 _atom_site_occupancy
 _atom_site_charge
Y  Y1  1  0.61489000  0.88511000  0.50000000  1.0 1.8314186543
Y  Y2  1  0.11489000  0.61489000  0.72978000  1.0 1.8314186543
Y  Y3  1  0.38511000  0.11489000  0.50000000  1.0 1.8314186543
Y  Y4  1  0.88511000  0.38511000  0.27022000  1.0 1.8314186543
Y  Y5  1  0.75000000  0.75000000  0.00000000  1.0 1.8406515032
Y  Y6  1  0.25000000  0.25000000  0.00000000  1.0 1.8406515032
Cd  Cd1  1  0.41421000  0.91421000  0.50000000  1.0 1.2114173169
Cd  Cd2  1  0.91421000  0.41421000  0.50000000  1.0 1.2114173169
Cd  Cd3  1  0.08579000  0.58579000  0.50000000  1.0 1.2114173169
Cd  Cd4  1  0.58579000  0.08579000  0.50000000  1.0 1.2114173169
Cd  Cd5  1  0.57760000  0.00073000  0.57833000  1.0 1.2032609492
Cd  Cd6  1  0.99927000  0.57760000  0.57687000  1.0 1.2114173169
Cd  Cd7  1  0.07760000  0.49927000  0.57687000  1.0 1.2032609492
Cd  Cd8  1  0.42240000  0.99927000  0.42167000  1.0 1.2032609492
Cd  Cd9  1  0.49927000  0.92240000  0.42167000  1.0 1.2032609492
Cd  Cd10  1  0.50073000  0.07760000  0.57833000  1.0 1.2032609492
Cd  Cd11  1  0.00073000  0.42240000  0.42313000  1.0 1.2114173169
Cd  Cd12  1  0.92240000  0.50073000  0.42313000  1.0 1.2114173169
Cd  Cd13  1  0.69088000  0.80912000  0.50000000  1.0 1.1473716408
Cd  Cd14  1  0.19088000  0.69088000  0.88176000  1.0 1.1473716408
Cd  Cd15  1  0.30912000  0.19088000  0.50000000  1.0 1.1473716408
Cd  Cd16  1  0.80912000  0.30912000  0.11824000  1.0 1.1473716408
Cd  Cd17  1  0.63826000  0.63826000  0.00000000  1.0 0.9107504696
Cd  Cd18  1  0.86174000  0.86174000  0.00000000  1.0 0.9107504696
Cd  Cd19  1  0.36174000  0.36174000  0.00000000  1.0 0.9107504696
Cd  Cd20  1  0.13826000  0.13826000  0.00000000  1.0 0.9107504696
H  H1  1  0.64980000  0.97670000  0.58510000  1.0 0.3255218699
H  H2  1  0.06470000  0.64980000  0.67310000  1.0 0.3255218699
H  H3  1  0.10840000  0.52330000  0.67310000  1.0 0.3255218699
H  H4  1  0.39160000  0.06470000  0.41490000  1.0 0.3255218699
H  H5  1  0.52330000  0.85020000  0.41490000  1.0 0.3255218699
H  H6  1  0.43530000  0.10840000  0.58510000  1.0 0.3255218699
H  H7  1  0.97670000  0.39160000  0.32690000  1.0 0.3255218699
H  H8  1  0.85020000  0.43530000  0.32690000  1.0 0.3255218699
H  H9  1  0.35020000  0.02330000  0.41490000  1.0 0.3255218699
H  H10  1  0.93530000  0.35020000  0.32690000  1.0 0.3255218699
H  H11  1  0.89160000  0.47670000  0.32690000  1.0 0.3255218699
H  H12  1  0.60840000  0.93530000  0.58510000  1.0 0.3255218699
H  H13  1  0.47670000  0.14980000  0.58510000  1.0 0.3255218699
H  H14  1  0.56470000  0.89160000  0.41490000  1.0 0.3255218699
H  H15  1  0.02330000  0.60840000  0.67310000  1.0 0.3255218699
H  H16  1  0.14980000  0.56470000  0.67310000  1.0 0.3255218699
H  H17  1  0.39570000  0.89570000  0.39960000  1.0 0.3712417431
H  H18  1  0.99610000  0.39570000  0.50000000  1.0 0.3712417431
H  H19  1  0.00390000  0.60430000  0.50000000  1.0 0.3712417431
H  H20  1  0.49610000  0.99610000  0.60040000  1.0 0.3712417431
H  H21  1  0.60430000  0.10430000  0.60040000  1.0 0.3712417431
H  H22  1  0.50390000  0.00390000  0.39960000  1.0 0.3712417431
H  H23  1  0.89570000  0.49610000  0.50000000  1.0 0.3712417431
H  H24  1  0.10430000  0.50390000  0.50000000  1.0 0.3712417431
H  H25  1  0.65490000  0.70900000  0.85630000  1.0 0.1228607131
H  H26  1  0.79860000  0.65490000  0.94590000  1.0 0.1228607131
H  H27  1  0.64730000  0.79100000  0.94590000  1.0 0.1228607131
H  H28  1  0.85270000  0.79860000  0.14370000  1.0 0.1228607131
H  H29  1  0.79100000  0.84510000  0.14370000  1.0 0.1228607131
H  H30  1  0.70140000  0.64730000  0.85630000  1.0 0.1228607131
H  H31  1  0.70900000  0.85270000  0.05410000  1.0 0.1290708626
H  H32  1  0.84510000  0.70140000  0.05410000  1.0 0.1290708626
H  H33  1  0.34510000  0.29100000  0.14370000  1.0 0.1228607131
H  H34  1  0.20140000  0.34510000  0.05410000  1.0 0.1228607131
H  H35  1  0.35270000  0.20900000  0.05410000  1.0 0.1290708626
H  H36  1  0.14730000  0.20140000  0.85630000  1.0 0.1228607131
H  H37  1  0.20900000  0.15490000  0.85630000  1.0 0.1228607131
H  H38  1  0.29860000  0.35270000  0.14370000  1.0 0.1290708626
H  H39  1  0.29100000  0.14730000  0.94590000  1.0 0.1228607131
H  H40  1  0.15490000  0.29860000  0.94590000  1.0 0.1290708626
H  H41  1  0.60670000  0.70480000  0.77610000  1.0 0.1228607131
H  H42  1  0.83060000  0.60670000  0.90190000  1.0 0.1228607131
H  H43  1  0.57130000  0.79520000  0.90190000  1.0 0.1228607131
H  H44  1  0.92870000  0.83060000  0.22390000  1.0 0.1228607131
H  H45  1  0.79520000  0.89330000  0.22390000  1.0 0.1228607131
H  H46  1  0.66940000  0.57130000  0.77610000  1.0 0.1228607131
H  H47  1  0.70480000  0.92870000  0.09810000  1.0 0.1228607131
H  H48  1  0.89330000  0.66940000  0.09810000  1.0 0.1228607131
H  H49  1  0.39330000  0.29520000  0.22390000  1.0 0.1228607131
H  H50  1  0.16940000  0.39330000  0.09810000  1.0 0.1228607131
H  H51  1  0.42870000  0.20480000  0.09810000  1.0 0.1228607131
H  H52  1  0.07130000  0.16940000  0.77610000  1.0 0.1228607131
H  H53  1  0.20480000  0.10670000  0.77610000  1.0 0.1228607131
H  H54  1  0.33060000  0.42870000  0.22390000  1.0 0.1228607131
H  H55  1  0.29520000  0.07130000  0.90190000  1.0 0.1228607131
H  H56  1  0.10670000  0.33060000  0.90190000  1.0 0.1228607131
H  H57  1  0.46230000  0.63340000  0.77630000  1.0 0.1132841682
H  H58  1  0.68600000  0.46230000  0.82890000  1.0 0.1132841682
H  H59  1  0.64290000  0.86660000  0.82890000  1.0 0.1132841682
H  H60  1  0.85710000  0.68600000  0.22370000  1.0 0.1132841682
H  H61  1  0.86660000  0.03770000  0.22370000  1.0 0.1132841682
H  H62  1  0.81400000  0.64290000  0.77630000  1.0 0.1132841682
H  H63  1  0.63340000  0.85710000  0.17110000  1.0 0.1132841682
H  H64  1  0.03770000  0.81400000  0.17110000  1.0 0.1132841682
H  H65  1  0.53770000  0.36660000  0.22370000  1.0 0.1132841682
H  H66  1  0.31400000  0.53770000  0.17110000  1.0 0.1132841682
H  H67  1  0.35710000  0.13340000  0.17110000  1.0 0.1132841682
H  H68  1  0.14290000  0.31400000  0.77630000  1.0 0.1132841682
H  H69  1  0.13340000  0.96230000  0.77630000  1.0 0.1132841682
H  H70  1  0.18600000  0.35710000  0.22370000  1.0 0.1132841682
H  H71  1  0.36660000  0.14290000  0.82890000  1.0 0.1132841682
H  H72  1  0.96230000  0.18600000  0.82890000  1.0 0.1132841682
H  H73  1  0.50610000  0.63050000  0.85660000  1.0 0.1290708626
H  H74  1  0.64950000  0.50610000  0.87560000  1.0 0.1290708626
H  H75  1  0.72610000  0.86950000  0.87560000  1.0 0.1290708626
H  H76  1  0.77390000  0.64950000  0.14340000  1.0 0.1290708626
H  H77  1  0.86950000  0.99390000  0.14340000  1.0 0.1290708626
H  H78  1  0.85050000  0.72610000  0.85660000  1.0 0.1290708626
H  H79  1  0.63050000  0.77390000  0.12440000  1.0 0.1290708626
H  H80  1  0.99390000  0.85050000  0.12440000  1.0 0.1290708626
H  H81  1  0.49390000  0.36950000  0.14340000  1.0 0.1290708626
H  H82  1  0.35050000  0.49390000  0.12440000  1.0 0.1290708626
H  H83  1  0.27390000  0.13050000  0.12440000  1.0 0.1290708626
H  H84  1  0.22610000  0.35050000  0.85660000  1.0 0.1290708626
H  H85  1  0.13050000  0.00610000  0.85660000  1.0 0.1290708626
H  H86  1  0.14950000  0.27390000  0.14340000  1.0 0.1290708626
H  H87  1  0.36950000  0.22610000  0.87560000  1.0 0.1290708626
H  H88  1  0.00610000  0.14950000  0.87560000  1.0 0.1290708626
H  H89  1  0.49290000  0.76520000  0.60950000  1.0 0.1417237756
H  H90  1  0.88340000  0.49290000  0.72770000  1.0 0.1417237756
H  H91  1  0.34430000  0.73480000  0.72770000  1.0 0.1417237756
H  H92  1  0.15570000  0.88340000  0.39050000  1.0 0.1417237756
H  H93  1  0.73480000  0.00710000  0.39050000  1.0 0.1417237756
H  H94  1  0.61660000  0.34430000  0.60950000  1.0 0.1417237756
H  H95  1  0.76520000  0.15570000  0.27230000  1.0 0.1417237756
H  H96  1  0.00710000  0.61660000  0.27230000  1.0 0.1417237756
H  H97  1  0.50710000  0.23480000  0.39050000  1.0 0.1417237756
H  H98  1  0.11660000  0.50710000  0.27230000  1.0 0.1417237756
H  H99  1  0.65570000  0.26520000  0.27230000  1.0 0.1417237756
H  H100  1  0.84430000  0.11660000  0.60950000  1.0 0.1417237756
H  H101  1  0.26520000  0.99290000  0.60950000  1.0 0.1417237756
H  H102  1  0.38340000  0.65570000  0.39050000  1.0 0.1417237756
H  H103  1  0.23480000  0.84430000  0.72770000  1.0 0.1417237756
H  H104  1  0.99290000  0.38340000  0.72770000  1.0 0.1417237756
H  H105  1  0.61060000  0.74380000  0.68440000  1.0 0.1417237756
H  H106  1  0.92620000  0.61060000  0.86680000  1.0 0.1417237756
H  H107  1  0.44060000  0.75620000  0.86680000  1.0 0.1417237756
H  H108  1  0.05940000  0.92620000  0.31560000  1.0 0.1417237756
H  H109  1  0.75620000  0.88940000  0.31560000  1.0 0.1417237756
H  H110  1  0.57380000  0.44060000  0.68440000  1.0 0.1417237756
H  H111  1  0.74380000  0.05940000  0.13320000  1.0 0.1417237756
H  H112  1  0.88940000  0.57380000  0.13320000  1.0 0.1417237756
H  H113  1  0.38940000  0.25620000  0.31560000  1.0 0.1417237756
H  H114  1  0.07380000  0.38940000  0.13320000  1.0 0.1417237756
H  H115  1  0.55940000  0.24380000  0.13320000  1.0 0.1417237756
H  H116  1  0.94060000  0.07380000  0.68440000  1.0 0.1417237756
H  H117  1  0.24380000  0.11060000  0.68440000  1.0 0.1417237756
H  H118  1  0.42620000  0.55940000  0.31560000  1.0 0.1417237756
H  H119  1  0.25620000  0.94060000  0.86680000  1.0 0.1417237756
H  H120  1  0.11060000  0.42620000  0.86680000  1.0 0.1417237756
H  H121  1  0.27280000  0.66690000  0.57590000  1.0 0.1290708626
H  H122  1  0.69690000  0.27280000  0.60590000  1.0 0.1290708626
H  H123  1  0.40900000  0.83310000  0.60590000  1.0 0.1290708626
H  H124  1  0.09100000  0.69690000  0.42410000  1.0 0.1290708626
H  H125  1  0.83310000  0.22720000  0.42410000  1.0 0.1290708626
H  H126  1  0.80310000  0.40900000  0.57590000  1.0 0.1290708626
H  H127  1  0.66690000  0.09100000  0.39410000  1.0 0.1290708626
H  H128  1  0.22720000  0.80310000  0.39410000  1.0 0.1290708626
H  H129  1  0.72720000  0.33310000  0.42410000  1.0 0.1290708626
H  H130  1  0.30310000  0.72720000  0.39410000  1.0 0.1290708626
H  H131  1  0.59100000  0.16690000  0.39410000  1.0 0.1290708626
H  H132  1  0.90900000  0.30310000  0.57590000  1.0 0.1290708626
H  H133  1  0.16690000  0.77280000  0.57590000  1.0 0.1290708626
H  H134  1  0.19690000  0.59100000  0.42410000  1.0 0.1290708626
H  H135  1  0.33310000  0.90900000  0.60590000  1.0 0.1290708626
H  H136  1  0.77280000  0.19690000  0.60590000  1.0 0.1290708626
H  H137  1  0.36780000  0.69390000  0.60370000  1.0 0.1132841682
H  H138  1  0.76410000  0.36780000  0.67390000  1.0 0.1132841682
H  H139  1  0.40980000  0.80610000  0.67390000  1.0 0.1132841682
H  H140  1  0.09020000  0.76410000  0.39630000  1.0 0.1132841682
H  H141  1  0.80610000  0.13220000  0.39630000  1.0 0.1132841682
H  H142  1  0.73590000  0.40980000  0.60370000  1.0 0.1132841682
H  H143  1  0.69390000  0.09020000  0.32610000  1.0 0.1132841682
H  H144  1  0.13220000  0.73590000  0.32610000  1.0 0.1132841682
H  H145  1  0.63220000  0.30610000  0.39630000  1.0 0.1132841682
H  H146  1  0.23590000  0.63220000  0.32610000  1.0 0.1132841682
H  H147  1  0.59020000  0.19390000  0.32610000  1.0 0.1132841682
H  H148  1  0.90980000  0.23590000  0.60370000  1.0 0.1132841682
H  H149  1  0.19390000  0.86780000  0.60370000  1.0 0.1132841682
H  H150  1  0.26410000  0.59020000  0.39630000  1.0 0.1132841682
H  H151  1  0.30610000  0.90980000  0.67390000  1.0 0.1132841682
H  H152  1  0.86780000  0.26410000  0.67390000  1.0 0.1132841682
H  H153  1  0.35000000  0.61120000  0.68700000  1.0 0.1290708626
H  H154  1  0.66300000  0.35000000  0.73880000  1.0 0.1290708626
H  H155  1  0.57580000  0.88880000  0.73880000  1.0 0.1290708626
H  H156  1  0.92420000  0.66300000  0.31300000  1.0 0.1290708626
H  H157  1  0.88880000  0.15000000  0.31300000  1.0 0.1290708626
H  H158  1  0.83700000  0.57580000  0.68700000  1.0 0.1290708626
H  H159  1  0.61120000  0.92420000  0.26120000  1.0 0.1290708626
H  H160  1  0.15000000  0.83700000  0.26120000  1.0 0.1290708626
H  H161  1  0.65000000  0.38880000  0.31300000  1.0 0.1290708626
H  H162  1  0.33700000  0.65000000  0.26120000  1.0 0.1290708626
H  H163  1  0.42420000  0.11120000  0.26120000  1.0 0.1290708626
H  H164  1  0.07580000  0.33700000  0.68700000  1.0 0.1290708626
H  H165  1  0.11120000  0.85000000  0.68700000  1.0 0.1290708626
H  H166  1  0.16300000  0.42420000  0.31300000  1.0 0.1290708626
H  H167  1  0.38880000  0.07580000  0.73880000  1.0 0.1290708626
H  H168  1  0.85000000  0.16300000  0.73880000  1.0 0.1290708626
H  H169  1  0.25930000  0.57060000  0.64630000  1.0 0.1228607131
H  H170  1  0.61300000  0.25930000  0.68870000  1.0 0.1228607131
H  H171  1  0.57570000  0.92940000  0.68870000  1.0 0.1228607131
H  H172  1  0.92430000  0.61300000  0.35370000  1.0 0.1228607131
H  H173  1  0.92940000  0.24070000  0.35370000  1.0 0.1228607131
H  H174  1  0.88700000  0.57570000  0.64630000  1.0 0.1228607131
H  H175  1  0.57060000  0.92430000  0.31130000  1.0 0.1228607131
H  H176  1  0.24070000  0.88700000  0.31130000  1.0 0.1228607131
H  H177  1  0.74070000  0.42940000  0.35370000  1.0 0.1228607131
H  H178  1  0.38700000  0.74070000  0.31130000  1.0 0.1228607131
H  H179  1  0.42430000  0.07060000  0.31130000  1.0 0.1228607131
H  H180  1  0.07570000  0.38700000  0.64630000  1.0 0.1228607131
H  H181  1  0.07060000  0.75930000  0.64630000  1.0 0.1228607131
H  H182  1  0.11300000  0.42430000  0.35370000  1.0 0.1228607131
H  H183  1  0.42940000  0.07570000  0.68870000  1.0 0.1228607131
H  H184  1  0.75930000  0.11300000  0.68870000  1.0 0.1228607131
C  C1  1  0.60740000  0.65770000  0.91190000  1.0 0.5592941022
C  C2  1  0.69550000  0.60740000  0.94970000  1.0 0.5592941022
C  C3  1  0.75420000  0.84230000  0.94970000  1.0 0.5592941022
C  C4  1  0.74580000  0.69550000  0.08810000  1.0 0.5592941022
C  C5  1  0.84230000  0.89260000  0.08810000  1.0 0.5592941022
C  C6  1  0.80450000  0.75420000  0.91190000  1.0 0.5592941022
C  C7  1  0.65770000  0.74580000  0.05030000  1.0 0.5592941022
C  C8  1  0.89260000  0.80450000  0.05030000  1.0 0.5592941022
C  C9  1  0.39260000  0.34230000  0.08810000  1.0 0.5592941022
C  C10  1  0.30450000  0.39260000  0.05030000  1.0 0.5592941022
C  C11  1  0.24580000  0.15770000  0.05030000  1.0 0.5592941022
C  C12  1  0.25420000  0.30450000  0.91190000  1.0 0.5592941022
C  C13  1  0.15770000  0.10740000  0.91190000  1.0 0.5592941022
C  C14  1  0.19550000  0.24580000  0.08810000  1.0 0.5592941022
C  C15  1  0.34230000  0.25420000  0.94970000  1.0 0.5592941022
C  C16  1  0.10740000  0.19550000  0.94970000  1.0 0.5592941022
C  C17  1  0.58190000  0.66050000  0.85960000  1.0 0.0187299803
C  C18  1  0.72230000  0.58190000  0.92140000  1.0 0.0187299803
C  C19  1  0.69910000  0.83950000  0.92140000  1.0 0.0187299803
C  C20  1  0.80090000  0.72230000  0.14040000  1.0 0.0187299803
C  C21  1  0.83950000  0.91810000  0.14040000  1.0 0.0187299803
C  C22  1  0.77770000  0.69910000  0.85960000  1.0 0.0187299803
C  C23  1  0.66050000  0.80090000  0.07860000  1.0 0.0187299803
C  C24  1  0.91810000  0.77770000  0.07860000  1.0 0.0187299803
C  C25  1  0.41810000  0.33950000  0.14040000  1.0 0.0187299803
C  C26  1  0.27770000  0.41810000  0.07860000  1.0 0.0187299803
C  C27  1  0.30090000  0.16050000  0.07860000  1.0 0.0187299803
C  C28  1  0.19910000  0.27770000  0.85960000  1.0 0.0187299803
C  C29  1  0.16050000  0.08190000  0.85960000  1.0 0.0187299803
C  C30  1  0.22230000  0.30090000  0.14040000  1.0 0.0187299803
C  C31  1  0.33950000  0.19910000  0.92140000  1.0 0.0187299803
C  C32  1  0.08190000  0.22230000  0.92140000  1.0 0.0187299803
C  C33  1  0.61610000  0.69100000  0.83930000  1.0 -0.0895601518
C  C34  1  0.77680000  0.61610000  0.92510000  1.0 -0.0895601518
C  C35  1  0.64830000  0.80900000  0.92510000  1.0 -0.0895601518
C  C36  1  0.85170000  0.77680000  0.16070000  1.0 -0.0895601518
C  C37  1  0.80900000  0.88390000  0.16070000  1.0 -0.0895601518
C  C38  1  0.72320000  0.64830000  0.83930000  1.0 -0.0895601518
C  C39  1  0.69100000  0.85170000  0.07490000  1.0 -0.0895601518
C  C40  1  0.88390000  0.72320000  0.07490000  1.0 -0.0895601518
C  C41  1  0.38390000  0.30900000  0.16070000  1.0 -0.0895601518
C  C42  1  0.22320000  0.38390000  0.07490000  1.0 -0.0895601518
C  C43  1  0.35170000  0.19100000  0.07490000  1.0 -0.0895601518
C  C44  1  0.14830000  0.22320000  0.83930000  1.0 -0.0895601518
C  C45  1  0.19100000  0.11610000  0.83930000  1.0 -0.0895601518
C  C46  1  0.27680000  0.35170000  0.16070000  1.0 -0.0895601518
C  C47  1  0.30900000  0.14830000  0.92510000  1.0 -0.0895601518
C  C48  1  0.11610000  0.27680000  0.92510000  1.0 -0.0895601518
C  C49  1  0.58680000  0.69130000  0.79290000  1.0 -0.0895601518
C  C50  1  0.79390000  0.58680000  0.89550000  1.0 -0.0895601518
C  C51  1  0.60160000  0.80870000  0.89550000  1.0 -0.0895601518
C  C52  1  0.89840000  0.79390000  0.20710000  1.0 -0.0895601518
C  C53  1  0.80870000  0.91320000  0.20710000  1.0 -0.0895601518
C  C54  1  0.70610000  0.60160000  0.79290000  1.0 -0.0895601518
C  C55  1  0.69130000  0.89840000  0.10450000  1.0 -0.0895601518
C  C56  1  0.91320000  0.70610000  0.10450000  1.0 -0.0895601518
C  C57  1  0.41320000  0.30870000  0.20710000  1.0 -0.0895601518
C  C58  1  0.20610000  0.41320000  0.10450000  1.0 -0.0895601518
C  C59  1  0.39840000  0.19130000  0.10450000  1.0 -0.0895601518
C  C60  1  0.10160000  0.20610000  0.79290000  1.0 -0.0895601518
C  C61  1  0.19130000  0.08680000  0.79290000  1.0 -0.0895601518
C  C62  1  0.29390000  0.39840000  0.20710000  1.0 -0.0895601518
C  C63  1  0.30870000  0.10160000  0.89550000  1.0 -0.0895601518
C  C64  1  0.08680000  0.29390000  0.89550000  1.0 -0.0895601518
C  C65  1  0.53410000  0.67440000  0.77150000  1.0 0.0105224587
C  C66  1  0.76260000  0.53410000  0.85970000  1.0 0.0105224587
C  C67  1  0.59710000  0.82560000  0.85970000  1.0 0.0105224587
C  C68  1  0.90290000  0.76260000  0.22850000  1.0 0.0105224587
C  C69  1  0.82560000  0.96590000  0.22850000  1.0 0.0105224587
C  C70  1  0.73740000  0.59710000  0.77150000  1.0 0.0105224587
C  C71  1  0.67440000  0.90290000  0.14030000  1.0 0.0105224587
C  C72  1  0.96590000  0.73740000  0.14030000  1.0 0.0105224587
C  C73  1  0.46590000  0.32560000  0.22850000  1.0 0.0105224587
C  C74  1  0.23740000  0.46590000  0.14030000  1.0 0.0105224587
C  C75  1  0.40290000  0.17440000  0.14030000  1.0 0.0105224587
C  C76  1  0.09710000  0.23740000  0.77150000  1.0 0.0105224587
C  C77  1  0.17440000  0.03410000  0.77150000  1.0 0.0105224587
C  C78  1  0.26260000  0.40290000  0.22850000  1.0 0.0105224587
C  C79  1  0.32560000  0.09710000  0.85970000  1.0 0.0105224587
C  C80  1  0.03410000  0.26260000  0.85970000  1.0 0.0105224587
C  C81  1  0.50060000  0.64800000  0.79280000  1.0 -0.0978751361
C  C82  1  0.70780000  0.50060000  0.85260000  1.0 -0.0978751361
C  C83  1  0.64480000  0.85200000  0.85260000  1.0 -0.0978751361
C  C84  1  0.85520000  0.70780000  0.20720000  1.0 -0.0978751361
C  C85  1  0.85200000  0.99940000  0.20720000  1.0 -0.0978751361
C  C86  1  0.79220000  0.64480000  0.79280000  1.0 -0.0978751361
C  C87  1  0.64800000  0.85520000  0.14740000  1.0 -0.0978751361
C  C88  1  0.99940000  0.79220000  0.14740000  1.0 -0.0978751361
C  C89  1  0.49940000  0.35200000  0.20720000  1.0 -0.0978751361
C  C90  1  0.29220000  0.49940000  0.14740000  1.0 -0.0978751361
C  C91  1  0.35520000  0.14800000  0.14740000  1.0 -0.0978751361
C  C92  1  0.14480000  0.29220000  0.79280000  1.0 -0.0978751361
C  C93  1  0.14800000  0.00060000  0.79280000  1.0 -0.0978751361
C  C94  1  0.20780000  0.35520000  0.20720000  1.0 -0.0978751361
C  C95  1  0.35200000  0.14480000  0.85260000  1.0 -0.0978751361
C  C96  1  0.00060000  0.20780000  0.85260000  1.0 -0.0978751361
C  C97  1  0.52640000  0.64390000  0.84010000  1.0 -0.1307805312
C  C98  1  0.68630000  0.52640000  0.88250000  1.0 -0.1307805312
C  C99  1  0.69620000  0.85610000  0.88250000  1.0 -0.1307805312
C  C100  1  0.80380000  0.68630000  0.15990000  1.0 -0.1307805312
C  C101  1  0.85610000  0.97360000  0.15990000  1.0 -0.1307805312
C  C102  1  0.81370000  0.69620000  0.84010000  1.0 -0.1307805312
C  C103  1  0.64390000  0.80380000  0.11750000  1.0 -0.1307805312
C  C104  1  0.97360000  0.81370000  0.11750000  1.0 -0.1307805312
C  C105  1  0.47360000  0.35610000  0.15990000  1.0 -0.1307805312
C  C106  1  0.31370000  0.47360000  0.11750000  1.0 -0.1307805312
C  C107  1  0.30380000  0.14390000  0.11750000  1.0 -0.1307805312
C  C108  1  0.19620000  0.31370000  0.84010000  1.0 -0.1307805312
C  C109  1  0.14390000  0.02640000  0.84010000  1.0 -0.1307805312
C  C110  1  0.18630000  0.30380000  0.15990000  1.0 -0.1307805312
C  C111  1  0.35610000  0.19620000  0.88250000  1.0 -0.1307805312
C  C112  1  0.02640000  0.18630000  0.88250000  1.0 -0.1307805312
C  C113  1  0.63120000  0.81420000  0.56880000  1.0 0.6405357927
C  C114  1  0.06240000  0.63120000  0.81700000  1.0 0.6405357927
C  C115  1  0.25460000  0.68580000  0.81700000  1.0 0.6405357927
C  C116  1  0.24540000  0.06240000  0.43120000  1.0 0.6405357927
C  C117  1  0.68580000  0.86880000  0.43120000  1.0 0.6405357927
C  C118  1  0.43760000  0.25460000  0.56880000  1.0 0.6405357927
C  C119  1  0.81420000  0.24540000  0.18300000  1.0 0.6405357927
C  C120  1  0.86880000  0.43760000  0.18300000  1.0 0.6405357927
C  C121  1  0.36880000  0.18580000  0.43120000  1.0 0.6405357927
C  C122  1  0.93760000  0.36880000  0.18300000  1.0 0.6405357927
C  C123  1  0.74540000  0.31420000  0.18300000  1.0 0.6405357927
C  C124  1  0.75460000  0.93760000  0.56880000  1.0 0.6405357927
C  C125  1  0.31420000  0.13120000  0.56880000  1.0 0.6405357927
C  C126  1  0.56240000  0.74540000  0.43120000  1.0 0.6405357927
C  C127  1  0.18580000  0.75460000  0.81700000  1.0 0.6405357927
C  C128  1  0.13120000  0.56240000  0.81700000  1.0 0.6405357927
C  C129  1  0.60240000  0.79080000  0.59760000  1.0 -0.0592923026
C  C130  1  0.00480000  0.60240000  0.81160000  1.0 -0.0592923026
C  C131  1  0.30680000  0.70920000  0.81160000  1.0 -0.0592923026
C  C132  1  0.19320000  0.00480000  0.40240000  1.0 -0.0592923026
C  C133  1  0.70920000  0.89760000  0.40240000  1.0 -0.0592923026
C  C134  1  0.49520000  0.30680000  0.59760000  1.0 -0.0592923026
C  C135  1  0.79080000  0.19320000  0.18840000  1.0 -0.0592923026
C  C136  1  0.89760000  0.49520000  0.18840000  1.0 -0.0592923026
C  C137  1  0.39760000  0.20920000  0.40240000  1.0 -0.0592923026
C  C138  1  0.99520000  0.39760000  0.18840000  1.0 -0.0592923026
C  C139  1  0.69320000  0.29080000  0.18840000  1.0 -0.0592923026
C  C140  1  0.80680000  0.99520000  0.59760000  1.0 -0.0592923026
C  C141  1  0.29080000  0.10240000  0.59760000  1.0 -0.0592923026
C  C142  1  0.50480000  0.69320000  0.40240000  1.0 -0.0592923026
C  C143  1  0.20920000  0.80680000  0.81160000  1.0 -0.0592923026
C  C144  1  0.10240000  0.50480000  0.81160000  1.0 -0.0592923026
C  C145  1  0.55420000  0.78880000  0.59180000  1.0 -0.0742763445
C  C146  1  0.96240000  0.55420000  0.76540000  1.0 -0.075782995
C  C147  1  0.30300000  0.71120000  0.76540000  1.0 -0.075782995
C  C148  1  0.19700000  0.96240000  0.40820000  1.0 -0.075782995
C  C149  1  0.71120000  0.94580000  0.40820000  1.0 -0.075782995
C  C150  1  0.53760000  0.30300000  0.59180000  1.0 -0.075782995
C  C151  1  0.78880000  0.19700000  0.23460000  1.0 -0.075782995
C  C152  1  0.94580000  0.53760000  0.23460000  1.0 -0.075782995
C  C153  1  0.44580000  0.21120000  0.40820000  1.0 -0.075782995
C  C154  1  0.03760000  0.44580000  0.23460000  1.0 -0.0742763445
C  C155  1  0.69700000  0.28880000  0.23460000  1.0 -0.075782995
C  C156  1  0.80300000  0.03760000  0.59180000  1.0 -0.075782995
C  C157  1  0.28880000  0.05420000  0.59180000  1.0 -0.075782995
C  C158  1  0.46240000  0.69700000  0.40820000  1.0 -0.075782995
C  C159  1  0.21120000  0.80300000  0.76540000  1.0 -0.075782995
C  C160  1  0.05420000  0.46240000  0.76540000  1.0 -0.075782995
C  C161  1  0.52620000  0.76670000  0.61530000  1.0 -0.1361199819
C  C162  1  0.91090000  0.52620000  0.75950000  1.0 -0.1361199819
C  C163  1  0.34860000  0.73330000  0.75950000  1.0 -0.1361199819
C  C164  1  0.15140000  0.91090000  0.38470000  1.0 -0.1361199819
C  C165  1  0.73330000  0.97380000  0.38470000  1.0 -0.1361199819
C  C166  1  0.58910000  0.34860000  0.61530000  1.0 -0.1361199819
C  C167  1  0.76670000  0.15140000  0.24050000  1.0 -0.1361199819
C  C168  1  0.97380000  0.58910000  0.24050000  1.0 -0.1361199819
C  C169  1  0.47380000  0.23330000  0.38470000  1.0 -0.1361199819
C  C170  1  0.08910000  0.47380000  0.24050000  1.0 -0.1361199819
C  C171  1  0.65140000  0.26670000  0.24050000  1.0 -0.1361199819
C  C172  1  0.84860000  0.08910000  0.61530000  1.0 -0.1361199819
C  C173  1  0.26670000  0.02620000  0.61530000  1.0 -0.1361199819
C  C174  1  0.41090000  0.65140000  0.38470000  1.0 -0.1361199819
C  C175  1  0.23330000  0.84860000  0.75950000  1.0 -0.1361199819
C  C176  1  0.02620000  0.41090000  0.75950000  1.0 -0.1361199819
C  C177  1  0.54390000  0.74600000  0.64730000  1.0 0.0105224587
C  C178  1  0.89660000  0.54390000  0.79790000  1.0 0.0105224587
C  C179  1  0.40130000  0.75400000  0.79790000  1.0 0.0105224587
C  C180  1  0.09870000  0.89660000  0.35270000  1.0 0.0105224587
C  C181  1  0.75400000  0.95610000  0.35270000  1.0 0.0105224587
C  C182  1  0.60340000  0.40130000  0.64730000  1.0 0.0105224587
C  C183  1  0.74600000  0.09870000  0.20210000  1.0 0.0105224587
C  C184  1  0.95610000  0.60340000  0.20210000  1.0 0.0105224587
C  C185  1  0.45610000  0.25400000  0.35270000  1.0 0.0105224587
C  C186  1  0.10340000  0.45610000  0.20210000  1.0 0.0105224587
C  C187  1  0.59870000  0.24600000  0.20210000  1.0 0.0105224587
C  C188  1  0.90130000  0.10340000  0.64730000  1.0 0.0105224587
C  C189  1  0.24600000  0.04390000  0.64730000  1.0 0.0105224587
C  C190  1  0.39660000  0.59870000  0.35270000  1.0 0.0105224587
C  C191  1  0.25400000  0.90130000  0.79790000  1.0 0.0105224587
C  C192  1  0.04390000  0.39660000  0.79790000  1.0 0.0105224587
C  C193  1  0.59340000  0.75040000  0.65760000  1.0 -0.1307805312
C  C194  1  0.93580000  0.59340000  0.84300000  1.0 -0.1307805312
C  C195  1  0.40720000  0.74960000  0.84300000  1.0 -0.1307805312
C  C196  1  0.09280000  0.93580000  0.34240000  1.0 -0.1307805312
C  C197  1  0.74960000  0.90660000  0.34240000  1.0 -0.1307805312
C  C198  1  0.56420000  0.40720000  0.65760000  1.0 -0.1307805312
C  C199  1  0.75040000  0.09280000  0.15700000  1.0 -0.1307805312
C  C200  1  0.90660000  0.56420000  0.15700000  1.0 -0.1307805312
C  C201  1  0.40660000  0.24960000  0.34240000  1.0 -0.1307805312
C  C202  1  0.06420000  0.40660000  0.15700000  1.0 -0.1307805312
C  C203  1  0.59280000  0.25040000  0.15700000  1.0 -0.1307805312
C  C204  1  0.90720000  0.06420000  0.65760000  1.0 -0.1307805312
C  C205  1  0.25040000  0.09340000  0.65760000  1.0 -0.1307805312
C  C206  1  0.43580000  0.59280000  0.34240000  1.0 -0.1307805312
C  C207  1  0.24960000  0.90720000  0.84300000  1.0 -0.1307805312
C  C208  1  0.09340000  0.43580000  0.84300000  1.0 -0.1307805312
C  C209  1  0.62080000  0.76700000  0.62320000  1.0 0.0432625789
C  C210  1  0.99760000  0.62080000  0.85380000  1.0 0.0482767686
C  C211  1  0.35620000  0.73300000  0.85380000  1.0 0.0482767686
C  C212  1  0.14380000  0.99760000  0.37680000  1.0 0.0482767686
C  C213  1  0.73300000  0.87920000  0.37680000  1.0 0.0482767686
C  C214  1  0.50240000  0.35620000  0.62320000  1.0 0.0482767686
C  C215  1  0.76700000  0.14380000  0.14620000  1.0 0.0482767686
C  C216  1  0.87920000  0.50240000  0.14620000  1.0 0.0482767686
C  C217  1  0.37920000  0.23300000  0.37680000  1.0 0.0482767686
C  C218  1  0.00240000  0.37920000  0.14620000  1.0 0.0482767686
C  C219  1  0.64380000  0.26700000  0.14620000  1.0 0.0482767686
C  C220  1  0.85620000  0.00240000  0.62320000  1.0 0.0482767686
C  C221  1  0.26700000  0.12080000  0.62320000  1.0 0.0482767686
C  C222  1  0.49760000  0.64380000  0.37680000  1.0 0.0482767686
C  C223  1  0.23300000  0.85620000  0.85380000  1.0 0.0432625789
C  C224  1  0.12080000  0.49760000  0.85380000  1.0 0.0482767686
C  C225  1  0.19311000  0.59592000  0.58803000  1.0 0.5592941022
C  C226  1  0.60508000  0.19311000  0.59719000  1.0 0.5652383902
C  C227  1  0.49211000  0.90408000  0.59719000  1.0 0.5652383902
C  C228  1  0.00789000  0.60508000  0.41197000  1.0 0.5592941022
C  C229  1  0.90408000  0.30689000  0.41197000  1.0 0.5652383902
C  C230  1  0.89492000  0.49211000  0.58803000  1.0 0.5652383902
C  C231  1  0.59592000  0.00789000  0.40281000  1.0 0.5652383902
C  C232  1  0.30689000  0.89492000  0.40281000  1.0 0.5652383902
C  C233  1  0.80689000  0.40408000  0.41197000  1.0 0.5652383902
C  C234  1  0.39492000  0.80689000  0.40281000  1.0 0.5652383902
C  C235  1  0.50789000  0.09592000  0.40281000  1.0 0.5652383902
C  C236  1  0.99211000  0.39492000  0.58803000  1.0 0.5652383902
C  C237  1  0.09592000  0.69311000  0.58803000  1.0 0.5652383902
C  C238  1  0.10508000  0.50789000  0.41197000  1.0 0.5652383902
C  C239  1  0.40408000  0.99211000  0.59719000  1.0 0.5652383902
C  C240  1  0.69311000  0.10508000  0.59719000  1.0 0.5652383902
C  C241  1  0.25487000  0.61741000  0.61050000  1.0 -0.0120223971
C  C242  1  0.64437000  0.25487000  0.63746000  1.0 -0.0120223971
C  C243  1  0.49309000  0.88259000  0.63746000  1.0 -0.0120223971
C  C244  1  0.00691000  0.64437000  0.38950000  1.0 -0.0120223971
C  C245  1  0.88259000  0.24513000  0.38950000  1.0 -0.0120223971
C  C246  1  0.85563000  0.49309000  0.61050000  1.0 -0.0120223971
C  C247  1  0.61741000  0.00691000  0.36254000  1.0 -0.0120223971
C  C248  1  0.24513000  0.85563000  0.36254000  1.0 -0.0120223971
C  C249  1  0.74513000  0.38259000  0.38950000  1.0 -0.0120223971
C  C250  1  0.35563000  0.74513000  0.36254000  1.0 -0.0120223971
C  C251  1  0.50691000  0.11741000  0.36254000  1.0 -0.0120223971
C  C252  1  0.99309000  0.35563000  0.61050000  1.0 -0.0120223971
C  C253  1  0.11741000  0.75487000  0.61050000  1.0 -0.0120223971
C  C254  1  0.14437000  0.50691000  0.38950000  1.0 -0.0120223971
C  C255  1  0.38259000  0.99309000  0.63746000  1.0 -0.0120223971
C  C256  1  0.75487000  0.14437000  0.63746000  1.0 -0.0120223971
C  C257  1  0.28838000  0.65406000  0.59698000  1.0 -0.1156511294
C  C258  1  0.69140000  0.28838000  0.63432000  1.0 -0.1156511294
C  C259  1  0.44292000  0.84594000  0.63432000  1.0 -0.1156511294
C  C260  1  0.05708000  0.69140000  0.40302000  1.0 -0.1156511294
C  C261  1  0.84594000  0.21162000  0.40302000  1.0 -0.1156511294
C  C262  1  0.80860000  0.44292000  0.59698000  1.0 -0.1156511294
C  C263  1  0.65406000  0.05708000  0.36568000  1.0 -0.1156511294
C  C264  1  0.21162000  0.80860000  0.36568000  1.0 -0.1156511294
C  C265  1  0.71162000  0.34594000  0.40302000  1.0 -0.1156511294
C  C266  1  0.30860000  0.71162000  0.36568000  1.0 -0.1156511294
C  C267  1  0.55708000  0.15406000  0.36568000  1.0 -0.1156511294
C  C268  1  0.94292000  0.30860000  0.59698000  1.0 -0.1156511294
C  C269  1  0.15406000  0.78838000  0.59698000  1.0 -0.1156511294
C  C270  1  0.19140000  0.55708000  0.40302000  1.0 -0.1156511294
C  C271  1  0.34594000  0.94292000  0.63432000  1.0 -0.1156511294
C  C272  1  0.78838000  0.19140000  0.63432000  1.0 -0.1156511294
C  C273  1  0.34588000  0.67220000  0.61488000  1.0 -0.1087673186
C  C274  1  0.73100000  0.34588000  0.67368000  1.0 -0.1087673186
C  C275  1  0.44268000  0.82780000  0.67368000  1.0 -0.1087673186
C  C276  1  0.05732000  0.73100000  0.38512000  1.0 -0.1087673186
C  C277  1  0.82780000  0.15412000  0.38512000  1.0 -0.1087673186
C  C278  1  0.76900000  0.44268000  0.61488000  1.0 -0.1087673186
C  C279  1  0.67220000  0.05732000  0.32632000  1.0 -0.1087673186
C  C280  1  0.15412000  0.76900000  0.32632000  1.0 -0.1087673186
C  C281  1  0.65412000  0.32780000  0.38512000  1.0 -0.1087673186
C  C282  1  0.26900000  0.65412000  0.32632000  1.0 -0.1087673186
C  C283  1  0.55732000  0.17220000  0.32632000  1.0 -0.1087673186
C  C284  1  0.94268000  0.26900000  0.61488000  1.0 -0.1087673186
C  C285  1  0.17220000  0.84588000  0.61488000  1.0 -0.1087673186
C  C286  1  0.23100000  0.55732000  0.38512000  1.0 -0.1087673186
C  C287  1  0.32780000  0.94268000  0.67368000  1.0 -0.1087673186
C  C288  1  0.84588000  0.23100000  0.67368000  1.0 -0.1087673186
C  C289  1  0.36805000  0.65404000  0.65221000  1.0 0.0187299803
C  C290  1  0.71584000  0.36805000  0.71401000  1.0 0.0187299803
C  C291  1  0.49817000  0.84596000  0.71401000  1.0 0.0187299803
C  C292  1  0.00183000  0.71584000  0.34779000  1.0 0.0187299803
C  C293  1  0.84596000  0.13195000  0.34779000  1.0 0.0187299803
C  C294  1  0.78416000  0.49817000  0.65221000  1.0 0.0187299803
C  C295  1  0.65404000  0.00183000  0.28599000  1.0 0.0187299803
C  C296  1  0.13195000  0.78416000  0.28599000  1.0 0.0187299803
C  C297  1  0.63195000  0.34596000  0.34779000  1.0 0.0187299803
C  C298  1  0.28416000  0.63195000  0.28599000  1.0 0.0187299803
C  C299  1  0.50183000  0.15404000  0.28599000  1.0 0.0187299803
C  C300  1  0.99817000  0.28416000  0.65221000  1.0 0.0187299803
C  C301  1  0.15404000  0.86805000  0.65221000  1.0 0.0187299803
C  C302  1  0.21584000  0.50183000  0.34779000  1.0 0.0187299803
C  C303  1  0.34596000  0.99817000  0.71401000  1.0 0.0187299803
C  C304  1  0.86805000  0.21584000  0.71401000  1.0 0.0187299803
C  C305  1  0.33470000  0.62090000  0.66220000  1.0 -0.0895601518
C  C306  1  0.67250000  0.33470000  0.71380000  1.0 -0.0895601518
C  C307  1  0.54130000  0.87910000  0.71380000  1.0 -0.0895601518
C  C308  1  0.95870000  0.67250000  0.33780000  1.0 -0.0895601518
C  C309  1  0.87910000  0.16530000  0.33780000  1.0 -0.0895601518
C  C310  1  0.82750000  0.54130000  0.66220000  1.0 -0.0895601518
C  C311  1  0.62090000  0.95870000  0.28620000  1.0 -0.0895601518
C  C312  1  0.16530000  0.82750000  0.28620000  1.0 -0.0895601518
C  C313  1  0.66530000  0.37910000  0.33780000  1.0 -0.0895601518
C  C314  1  0.32750000  0.66530000  0.28620000  1.0 -0.0895601518
C  C315  1  0.45870000  0.12090000  0.28620000  1.0 -0.0895601518
C  C316  1  0.04130000  0.32750000  0.66220000  1.0 -0.0895601518
C  C317  1  0.12090000  0.83470000  0.66220000  1.0 -0.0895601518
C  C318  1  0.17250000  0.45870000  0.33780000  1.0 -0.0895601518
C  C319  1  0.37910000  0.04130000  0.71380000  1.0 -0.0895601518
C  C320  1  0.83470000  0.17250000  0.71380000  1.0 -0.0895601518
C  C321  1  0.28100000  0.59930000  0.64090000  1.0 -0.1087673186
C  C322  1  0.64010000  0.28100000  0.68170000  1.0 -0.1087673186
C  C323  1  0.54160000  0.90070000  0.68170000  1.0 -0.1087673186
C  C324  1  0.95840000  0.64010000  0.35910000  1.0 -0.1087673186
C  C325  1  0.90070000  0.21900000  0.35910000  1.0 -0.1087673186
C  C326  1  0.85990000  0.54160000  0.64090000  1.0 -0.1087673186
C  C327  1  0.59930000  0.95840000  0.31830000  1.0 -0.1087673186
C  C328  1  0.21900000  0.85990000  0.31830000  1.0 -0.1087673186
C  C329  1  0.71900000  0.40070000  0.35910000  1.0 -0.1087673186
C  C330  1  0.35990000  0.71900000  0.31830000  1.0 -0.1087673186
C  C331  1  0.45840000  0.09930000  0.31830000  1.0 -0.1087673186
C  C332  1  0.04160000  0.35990000  0.64090000  1.0 -0.1087673186
C  C333  1  0.09930000  0.78100000  0.64090000  1.0 -0.1087673186
C  C334  1  0.14010000  0.45840000  0.35910000  1.0 -0.1087673186
C  C335  1  0.40070000  0.04160000  0.68170000  1.0 -0.1087673186
C  C336  1  0.78100000  0.14010000  0.68170000  1.0 -0.1087673186
C  C337  1  0.50420000  0.68600000  0.73100000  1.0 0.3757068853
C  C338  1  0.77320000  0.50420000  0.81820000  1.0 0.3757068853
C  C339  1  0.54500000  0.81400000  0.81820000  1.0 0.3757068853
C  C340  1  0.95500000  0.77320000  0.26900000  1.0 0.3757068853
C  C341  1  0.81400000  0.99580000  0.26900000  1.0 0.3757068853
C  C342  1  0.72680000  0.54500000  0.73100000  1.0 0.3757068853
C  C343  1  0.68600000  0.95500000  0.18180000  1.0 0.3757068853
C  C344  1  0.99580000  0.72680000  0.18180000  1.0 0.3757068853
C  C345  1  0.49580000  0.31400000  0.26900000  1.0 0.3757068853
C  C346  1  0.22680000  0.49580000  0.18180000  1.0 0.3757068853
C  C347  1  0.45500000  0.18600000  0.18180000  1.0 0.3757068853
C  C348  1  0.04500000  0.22680000  0.73100000  1.0 0.3757068853
C  C349  1  0.18600000  0.00420000  0.73100000  1.0 0.3757068853
C  C350  1  0.27320000  0.45500000  0.26900000  1.0 0.3757068853
C  C351  1  0.31400000  0.04500000  0.81820000  1.0 0.3757068853
C  C352  1  0.00420000  0.27320000  0.81820000  1.0 0.3757068853
C  C353  1  0.51210000  0.71590000  0.66740000  1.0 0.3533648802
C  C354  1  0.84470000  0.51210000  0.79620000  1.0 0.3533648802
C  C355  1  0.45150000  0.78410000  0.79620000  1.0 0.3533648802
C  C356  1  0.04850000  0.84470000  0.33260000  1.0 0.3533648802
C  C357  1  0.78410000  0.98790000  0.33260000  1.0 0.355022183
C  C358  1  0.65530000  0.45150000  0.66740000  1.0 0.3533648802
C  C359  1  0.71590000  0.04850000  0.20380000  1.0 0.3533648802
C  C360  1  0.98790000  0.65530000  0.20380000  1.0 0.3533648802
C  C361  1  0.48790000  0.28410000  0.33260000  1.0 0.3533648802
C  C362  1  0.15530000  0.48790000  0.20380000  1.0 0.355022183
C  C363  1  0.54850000  0.21590000  0.20380000  1.0 0.3533648802
C  C364  1  0.95150000  0.15530000  0.66740000  1.0 0.3533648802
C  C365  1  0.21590000  0.01210000  0.66740000  1.0 0.3533648802
C  C366  1  0.34470000  0.54850000  0.33260000  1.0 0.3533648802
C  C367  1  0.28410000  0.95150000  0.79620000  1.0 0.3533648802
C  C368  1  0.01210000  0.34470000  0.79620000  1.0 0.3533648802
C  C369  1  0.42676000  0.67376000  0.66780000  1.0 0.3712417431
C  C370  1  0.75896000  0.42676000  0.75300000  1.0 0.3712417431
C  C371  1  0.49404000  0.82624000  0.75300000  1.0 0.3712417431
C  C372  1  0.00596000  0.75896000  0.33220000  1.0 0.3712417431
C  C373  1  0.82624000  0.07324000  0.33220000  1.0 0.3712417431
C  C374  1  0.74104000  0.49404000  0.66780000  1.0 0.3712417431
C  C375  1  0.67376000  0.00596000  0.24700000  1.0 0.3712417431
C  C376  1  0.07324000  0.74104000  0.24700000  1.0 0.3712417431
C  C377  1  0.57324000  0.32624000  0.33220000  1.0 0.3712417431
C  C378  1  0.24104000  0.57324000  0.24700000  1.0 0.3712417431
C  C379  1  0.50596000  0.17376000  0.24700000  1.0 0.3712417431
C  C380  1  0.99404000  0.24104000  0.66780000  1.0 0.3712417431
C  C381  1  0.17376000  0.92676000  0.66780000  1.0 0.3712417431
C  C382  1  0.25896000  0.50596000  0.33220000  1.0 0.3712417431
C  C383  1  0.32624000  0.99404000  0.75300000  1.0 0.3712417431
C  C384  1  0.92676000  0.25896000  0.75300000  1.0 0.3712417431
N  N1  1  0.45105000  0.66528000  0.71037000  1.0 -0.4058423877
N  N2  1  0.74068000  0.45105000  0.78577000  1.0 -0.4058423877
N  N3  1  0.54509000  0.83472000  0.78577000  1.0 -0.4058423877
N  N4  1  0.95491000  0.74068000  0.28963000  1.0 -0.4058423877
N  N5  1  0.83472000  0.04895000  0.28963000  1.0 -0.4058423877
N  N6  1  0.75932000  0.54509000  0.71037000  1.0 -0.4058423877
N  N7  1  0.66528000  0.95491000  0.21423000  1.0 -0.4058423877
N  N8  1  0.04895000  0.75932000  0.21423000  1.0 -0.4058423877
N  N9  1  0.54895000  0.33472000  0.28963000  1.0 -0.4058423877
N  N10  1  0.25932000  0.54895000  0.21423000  1.0 -0.4058423877
N  N11  1  0.45491000  0.16528000  0.21423000  1.0 -0.4058423877
N  N12  1  0.04509000  0.25932000  0.71037000  1.0 -0.4058423877
N  N13  1  0.16528000  0.95105000  0.71037000  1.0 -0.4058423877
N  N14  1  0.24068000  0.45491000  0.28963000  1.0 -0.4058423877
N  N15  1  0.33472000  0.04509000  0.78577000  1.0 -0.4058423877
N  N16  1  0.95105000  0.24068000  0.78577000  1.0 -0.4058423877
N  N17  1  0.53582000  0.70680000  0.70824000  1.0 -0.431946674
N  N18  1  0.82758000  0.53582000  0.82902000  1.0 -0.431946674
N  N19  1  0.50144000  0.79320000  0.82902000  1.0 -0.431946674
N  N20  1  0.99856000  0.82758000  0.29176000  1.0 -0.431946674
N  N21  1  0.79320000  0.96418000  0.29176000  1.0 -0.431946674
N  N22  1  0.67242000  0.50144000  0.70824000  1.0 -0.431946674
N  N23  1  0.70680000  0.99856000  0.17098000  1.0 -0.431946674
N  N24  1  0.96418000  0.67242000  0.17098000  1.0 -0.431946674
N  N25  1  0.46418000  0.29320000  0.29176000  1.0 -0.431946674
N  N26  1  0.17242000  0.46418000  0.17098000  1.0 -0.431946674
N  N27  1  0.49856000  0.20680000  0.17098000  1.0 -0.431946674
N  N28  1  0.00144000  0.17242000  0.70824000  1.0 -0.431946674
N  N29  1  0.20680000  0.03582000  0.70824000  1.0 -0.431946674
N  N30  1  0.32758000  0.49856000  0.29176000  1.0 -0.431946674
N  N31  1  0.29320000  0.00144000  0.82902000  1.0 -0.431946674
N  N32  1  0.03582000  0.32758000  0.82902000  1.0 -0.431946674
N  N33  1  0.46032000  0.70622000  0.65272000  1.0 -0.3941364155
N  N34  1  0.80760000  0.46032000  0.75410000  1.0 -0.3941364155
N  N35  1  0.44650000  0.79378000  0.75410000  1.0 -0.3941364155
N  N36  1  0.05350000  0.80760000  0.34728000  1.0 -0.3941364155
N  N37  1  0.79378000  0.03968000  0.34728000  1.0 -0.3941364155
N  N38  1  0.69240000  0.44650000  0.65272000  1.0 -0.3941364155
N  N39  1  0.70622000  0.05350000  0.24590000  1.0 -0.3941364155
N  N40  1  0.03968000  0.69240000  0.24590000  1.0 -0.3941364155
N  N41  1  0.53968000  0.29378000  0.34728000  1.0 -0.3941364155
N  N42  1  0.19240000  0.53968000  0.24590000  1.0 -0.3941364155
N  N43  1  0.55350000  0.20622000  0.24590000  1.0 -0.3941364155
N  N44  1  0.94650000  0.19240000  0.65272000  1.0 -0.3941364155
N  N45  1  0.20622000  0.96032000  0.65272000  1.0 -0.3941364155
N  N46  1  0.30760000  0.55350000  0.34728000  1.0 -0.3941364155
N  N47  1  0.29378000  0.94650000  0.75410000  1.0 -0.3941364155
N  N48  1  0.96032000  0.30760000  0.75410000  1.0 -0.3941364155
O  O1  1  0.66442000  0.68326000  0.92568000  1.0 -0.6933028788
O  O2  1  0.73874000  0.66442000  0.98116000  1.0 -0.6933028788
O  O3  1  0.74242000  0.81674000  0.98116000  1.0 -0.6933028788
O  O4  1  0.75758000  0.73874000  0.07432000  1.0 -0.6933028788
O  O5  1  0.81674000  0.83558000  0.07432000  1.0 -0.6933028788
O  O6  1  0.76126000  0.74242000  0.92568000  1.0 -0.6933028788
O  O7  1  0.68326000  0.75758000  0.01884000  1.0 -0.6933028788
O  O8  1  0.83558000  0.76126000  0.01884000  1.0 -0.6933028788
O  O9  1  0.33558000  0.31674000  0.07432000  1.0 -0.6933028788
O  O10  1  0.26126000  0.33558000  0.01884000  1.0 -0.6933028788
O  O11  1  0.25758000  0.18326000  0.01884000  1.0 -0.6933028788
O  O12  1  0.24242000  0.26126000  0.92568000  1.0 -0.6933028788
O  O13  1  0.18326000  0.16442000  0.92568000  1.0 -0.6933028788
O  O14  1  0.23874000  0.25758000  0.07432000  1.0 -0.6933028788
O  O15  1  0.31674000  0.24242000  0.98116000  1.0 -0.6933028788
O  O16  1  0.16442000  0.23874000  0.98116000  1.0 -0.6933028788
O  O17  1  0.58247000  0.62870000  0.92217000  1.0 -0.3739102479
O  O18  1  0.66030000  0.58247000  0.95377000  1.0 -0.3739102479
O  O19  1  0.79347000  0.87130000  0.95377000  1.0 -0.3739102479
O  O20  1  0.70653000  0.66030000  0.07783000  1.0 -0.3739102479
O  O21  1  0.87130000  0.91753000  0.07783000  1.0 -0.3739102479
O  O22  1  0.83970000  0.79347000  0.92217000  1.0 -0.3739102479
O  O23  1  0.62870000  0.70653000  0.04623000  1.0 -0.3739102479
O  O24  1  0.91753000  0.83970000  0.04623000  1.0 -0.3739102479
O  O25  1  0.41753000  0.37130000  0.07783000  1.0 -0.3739102479
O  O26  1  0.33970000  0.41753000  0.04623000  1.0 -0.3739102479
O  O27  1  0.20653000  0.12870000  0.04623000  1.0 -0.3739102479
O  O28  1  0.29347000  0.33970000  0.92217000  1.0 -0.3739102479
O  O29  1  0.12870000  0.08247000  0.92217000  1.0 -0.3739102479
O  O30  1  0.16030000  0.20653000  0.07783000  1.0 -0.3739102479
O  O31  1  0.37130000  0.29347000  0.95377000  1.0 -0.3739102479
O  O32  1  0.08247000  0.16030000  0.95377000  1.0 -0.3739102479
O  O33  1  0.66760000  0.80430000  0.56930000  1.0 -0.5069772169
O  O34  1  0.09830000  0.66760000  0.86330000  1.0 -0.5069772169
O  O35  1  0.26500000  0.69570000  0.86330000  1.0 -0.5069772169
O  O36  1  0.23500000  0.09830000  0.43070000  1.0 -0.5069772169
O  O37  1  0.69570000  0.83240000  0.43070000  1.0 -0.5069772169
O  O38  1  0.40170000  0.26500000  0.56930000  1.0 -0.5069772169
O  O39  1  0.80430000  0.23500000  0.13670000  1.0 -0.5069772169
O  O40  1  0.83240000  0.40170000  0.13670000  1.0 -0.5069772169
O  O41  1  0.33240000  0.19570000  0.43070000  1.0 -0.5069772169
O  O42  1  0.90170000  0.33240000  0.13670000  1.0 -0.5069772169
O  O43  1  0.73500000  0.30430000  0.13670000  1.0 -0.5069772169
O  O44  1  0.76500000  0.90170000  0.56930000  1.0 -0.5069772169
O  O45  1  0.30430000  0.16760000  0.56930000  1.0 -0.5069772169
O  O46  1  0.59830000  0.73500000  0.43070000  1.0 -0.5069772169
O  O47  1  0.19570000  0.76500000  0.86330000  1.0 -0.5069772169
O  O48  1  0.16760000  0.59830000  0.86330000  1.0 -0.5069772169
O  O49  1  0.62042000  0.84742000  0.55340000  1.0 -0.6471224293
O  O50  1  0.06702000  0.62042000  0.77300000  1.0 -0.6471224293
O  O51  1  0.20598000  0.65258000  0.77300000  1.0 -0.6471224293
O  O52  1  0.29402000  0.06702000  0.44660000  1.0 -0.6471224293
O  O53  1  0.65258000  0.87958000  0.44660000  1.0 -0.6471224293
O  O54  1  0.43298000  0.20598000  0.55340000  1.0 -0.6471224293
O  O55  1  0.84742000  0.29402000  0.22700000  1.0 -0.6471224293
O  O56  1  0.87958000  0.43298000  0.22700000  1.0 -0.6471224293
O  O57  1  0.37958000  0.15258000  0.44660000  1.0 -0.6471224293
O  O58  1  0.93298000  0.37958000  0.22700000  1.0 -0.6471224293
O  O59  1  0.79402000  0.34742000  0.22700000  1.0 -0.6471224293
O  O60  1  0.70598000  0.93298000  0.55340000  1.0 -0.6471224293
O  O61  1  0.34742000  0.12042000  0.55340000  1.0 -0.6471224293
O  O62  1  0.56702000  0.79402000  0.44660000  1.0 -0.6471224293
O  O63  1  0.15258000  0.70598000  0.77300000  1.0 -0.6471224293
O  O64  1  0.12042000  0.56702000  0.77300000  1.0 -0.6471224293
O  O65  1  0.16848000  0.56610000  0.60448000  1.0 -0.5335054264
O  O66  1  0.56400000  0.16848000  0.60238000  1.0 -0.5335054264
O  O67  1  0.53838000  0.93390000  0.60238000  1.0 -0.5335054264
O  O68  1  0.96162000  0.56400000  0.39552000  1.0 -0.5335054264
O  O69  1  0.93390000  0.33152000  0.39552000  1.0 -0.5335054264
O  O70  1  0.93600000  0.53838000  0.60448000  1.0 -0.5335054264
O  O71  1  0.56610000  0.96162000  0.39762000  1.0 -0.5335054264
O  O72  1  0.33152000  0.93600000  0.39762000  1.0 -0.5335054264
O  O73  1  0.83152000  0.43390000  0.39552000  1.0 -0.5335054264
O  O74  1  0.43600000  0.83152000  0.39762000  1.0 -0.5335054264
O  O75  1  0.46162000  0.06610000  0.39762000  1.0 -0.5335054264
O  O76  1  0.03838000  0.43600000  0.60448000  1.0 -0.5335054264
O  O77  1  0.06610000  0.66848000  0.60448000  1.0 -0.5335054264
O  O78  1  0.06400000  0.46162000  0.39552000  1.0 -0.5335054264
O  O79  1  0.43390000  0.03838000  0.60238000  1.0 -0.5335054264
O  O80  1  0.66848000  0.06400000  0.60238000  1.0 -0.5335054264
O  O81  1  0.17354000  0.61100000  0.55764000  1.0 -0.4919480324
O  O82  1  0.61590000  0.17354000  0.56254000  1.0 -0.4919480324
O  O83  1  0.44664000  0.88900000  0.56254000  1.0 -0.4919480324
O  O84  1  0.05336000  0.61590000  0.44236000  1.0 -0.4919480324
O  O85  1  0.88900000  0.32646000  0.44236000  1.0 -0.4919480324
O  O86  1  0.88410000  0.44664000  0.55764000  1.0 -0.4919480324
O  O87  1  0.61100000  0.05336000  0.43746000  1.0 -0.4919480324
O  O88  1  0.32646000  0.88410000  0.43746000  1.0 -0.4919480324
O  O89  1  0.82646000  0.38900000  0.44236000  1.0 -0.4919480324
O  O90  1  0.38410000  0.82646000  0.43746000  1.0 -0.4919480324
O  O91  1  0.55336000  0.11100000  0.43746000  1.0 -0.4919480324
O  O92  1  0.94664000  0.38410000  0.55764000  1.0 -0.4919480324
O  O93  1  0.11100000  0.67354000  0.55764000  1.0 -0.4919480324
O  O94  1  0.11590000  0.55336000  0.44236000  1.0 -0.4919480324
O  O95  1  0.38900000  0.94664000  0.56254000  1.0 -0.4919480324
O  O96  1  0.67354000  0.11590000  0.56254000  1.0 -0.4919480324
O  O97  1  0.61505000  0.95132000  0.56637000  1.0 -0.707409808
O  O98  1  0.04868000  0.61505000  0.66373000  1.0 -0.707409808
O  O99  1  0.11505000  0.54868000  0.66373000  1.0 -0.707409808
O  O100  1  0.38495000  0.04868000  0.43363000  1.0 -0.707409808
O  O101  1  0.54868000  0.88495000  0.43363000  1.0 -0.707409808
O  O102  1  0.45132000  0.11505000  0.56637000  1.0 -0.707409808
O  O103  1  0.95132000  0.38495000  0.33627000  1.0 -0.707409808
O  O104  1  0.88495000  0.45132000  0.33627000  1.0 -0.707409808
O  O105  1  0.49887000  0.92417000  0.50000000  1.0 -0.5518281669
O  O106  1  0.99887000  0.49887000  0.57470000  1.0 -0.5518281669
O  O107  1  0.07583000  0.57583000  0.57470000  1.0 -0.55568992
O  O108  1  0.42417000  0.99887000  0.50000000  1.0 -0.5518281669
O  O109  1  0.57583000  0.00113000  0.50000000  1.0 -0.5518281669
O  O110  1  0.50113000  0.07583000  0.50000000  1.0 -0.55568992
O  O111  1  0.92417000  0.42417000  0.42530000  1.0 -0.55568992
O  O112  1  0.00113000  0.50113000  0.42530000  1.0 -0.5518281669
O  O113  1  0.42909000  0.92909000  0.43182000  1.0 -0.7711625934
O  O114  1  0.99727000  0.42909000  0.50000000  1.0 -0.7711625934
O  O115  1  0.00273000  0.57091000  0.50000000  1.0 -0.7711625934
O  O116  1  0.49727000  0.99727000  0.56818000  1.0 -0.7711625934
O  O117  1  0.57091000  0.07091000  0.56818000  1.0 -0.7711625934
O  O118  1  0.50273000  0.00273000  0.43182000  1.0 -0.7711625934
O  O119  1  0.92909000  0.49727000  0.50000000  1.0 -0.7711625934
O  O120  1  0.07091000  0.50273000  0.50000000  1.0 -0.7711625934
O  O121  1  0.66310000  0.83690000  0.50000000  1.0 -0.4777109414
O  O122  1  0.16310000  0.66310000  0.82620000  1.0 -0.4777109414
O  O123  1  0.33690000  0.16310000  0.50000000  1.0 -0.4777109414
O  O124  1  0.83690000  0.33690000  0.17380000  1.0 -0.4777109414
