# DDEC6 charges by PACMAN v1.1 (https://github.com/mtap-research/PACMAN-charge/)
data_JITQEI_ion_pacman
_symmetry_space_group_name_H-M   'P 1'
_cell_length_a   13.65200000
_cell_length_b   13.65200000
_cell_length_c   40.64800000
_cell_angle_alpha   90.00000000
_cell_angle_beta   90.00000000
_cell_angle_gamma   120.00000000
_symmetry_Int_Tables_number   1
_chemical_formula_structural   Cu3H48C72(NO)16
_chemical_formula_sum   'Cu9 H144 C216 N48 O48'
_cell_volume   6560.88420468
_cell_formula_units_Z   3
loop_
 _symmetry_equiv_pos_site_id
 _symmetry_equiv_pos_as_xyz
  1  'x, y, z'
loop_
 _atom_site_type_symbol
 _atom_site_label
 _atom_site_symmetry_multiplicity
 _atom_site_fract_x
 _atom_site_fract_y
 _atom_site_fract_z
 _atom_site_occupancy
 _atom_site_charge
Cu  Cu1  1  0.95251000  0.95251000  0.00000000  1.0 0.5972989917
Cu  Cu2  1  0.04749000  0.00000000  0.33333333  1.0 0.5972989917
Cu  Cu3  1  0.00000000  0.04749000  0.66666667  1.0 0.5972989917
Cu  Cu4  1  0.41237000  0.70942000  0.57060000  1.0 0.5972989917
Cu  Cu5  1  0.29058000  0.70295000  0.90393000  1.0 0.5972989917
Cu  Cu6  1  0.29705000  0.58763000  0.23727000  1.0 0.5972989917
Cu  Cu7  1  0.70942000  0.41237000  0.42940000  1.0 0.5972989917
Cu  Cu8  1  0.58763000  0.29705000  0.76273000  1.0 0.5972989917
Cu  Cu9  1  0.70295000  0.29058000  0.09607000  1.0 0.5972989917
H  H1  1  0.04270000  0.19300000  0.02090000  1.0 0.1121153668
H  H2  1  0.80700000  0.84970000  0.35423000  1.0 0.1121153668
H  H3  1  0.19300000  0.04270000  0.97910000  1.0 0.1121153668
H  H4  1  0.15030000  0.95730000  0.68757000  1.0 0.1121153668
H  H5  1  0.95730000  0.15030000  0.31243000  1.0 0.1121153668
H  H6  1  0.84970000  0.80700000  0.64577000  1.0 0.1121153668
H  H7  1  0.20420000  0.36340000  0.01680000  1.0 0.1360168268
H  H8  1  0.63660000  0.84080000  0.35013000  1.0 0.1360168268
H  H9  1  0.36340000  0.20420000  0.98320000  1.0 0.1360168268
H  H10  1  0.15920000  0.79580000  0.68347000  1.0 0.1360168268
H  H11  1  0.79580000  0.15920000  0.31653000  1.0 0.1360168268
H  H12  1  0.84080000  0.63660000  0.64987000  1.0 0.1360168268
H  H13  1  0.57410000  0.66290000  0.95790000  1.0 0.1298630028
H  H14  1  0.33710000  0.91120000  0.29123000  1.0 0.1298630028
H  H15  1  0.66290000  0.57410000  0.04210000  1.0 0.1298630028
H  H16  1  0.08880000  0.42590000  0.62457000  1.0 0.1298630028
H  H17  1  0.42590000  0.08880000  0.37543000  1.0 0.1298630028
H  H18  1  0.91120000  0.33710000  0.70877000  1.0 0.1298630028
H  H19  1  0.74030000  0.83760000  0.96150000  1.0 0.1121153668
H  H20  1  0.16240000  0.90270000  0.29483000  1.0 0.1121153668
H  H21  1  0.83760000  0.74030000  0.03850000  1.0 0.1121153668
H  H22  1  0.09730000  0.25970000  0.62817000  1.0 0.1121153668
H  H23  1  0.25970000  0.09730000  0.37183000  1.0 0.1121153668
H  H24  1  0.90270000  0.16240000  0.70517000  1.0 0.1121153668
H  H25  1  0.96510000  0.10620000  0.94800000  1.0 0.1121153668
H  H26  1  0.89380000  0.85890000  0.28133000  1.0 0.1121153668
H  H27  1  0.10620000  0.96510000  0.05200000  1.0 0.1121153668
H  H28  1  0.14110000  0.03490000  0.61467000  1.0 0.1121153668
H  H29  1  0.03490000  0.14110000  0.38533000  1.0 0.1121153668
H  H30  1  0.85890000  0.89380000  0.71867000  1.0 0.1121153668
H  H31  1  0.98940000  0.13160000  0.89240000  1.0 0.1360168268
H  H32  1  0.86840000  0.85780000  0.22573000  1.0 0.1360168268
H  H33  1  0.13160000  0.98940000  0.10760000  1.0 0.1360168268
H  H34  1  0.14220000  0.01060000  0.55907000  1.0 0.1360168268
H  H35  1  0.01060000  0.14220000  0.44093000  1.0 0.1360168268
H  H36  1  0.85780000  0.86840000  0.77427000  1.0 0.1360168268
H  H37  1  0.95810000  0.82350000  0.88610000  1.0 0.1298630028
H  H38  1  0.17650000  0.13460000  0.21943000  1.0 0.1298630028
H  H39  1  0.82350000  0.95810000  0.11390000  1.0 0.1298630028
H  H40  1  0.86540000  0.04190000  0.55277000  1.0 0.1298630028
H  H41  1  0.04190000  0.86540000  0.44723000  1.0 0.1298630028
H  H42  1  0.13460000  0.17650000  0.78057000  1.0 0.1298630028
H  H43  1  0.94730000  0.81510000  0.94330000  1.0 0.1121153668
H  H44  1  0.18490000  0.13220000  0.27663000  1.0 0.1121153668
H  H45  1  0.81510000  0.94730000  0.05670000  1.0 0.1121153668
H  H46  1  0.86780000  0.05270000  0.60997000  1.0 0.1121153668
H  H47  1  0.05270000  0.86780000  0.39003000  1.0 0.1121153668
H  H48  1  0.13220000  0.18490000  0.72337000  1.0 0.1121153668
H  H49  1  0.31090000  0.84130000  0.59500000  1.0 0.1121153668
H  H50  1  0.15870000  0.46960000  0.92833000  1.0 0.1121153668
H  H51  1  0.53040000  0.68910000  0.26167000  1.0 0.1121153668
H  H52  1  0.14390000  0.84230000  0.59350000  1.0 0.1298630028
H  H53  1  0.15770000  0.30160000  0.92683000  1.0 0.1298630028
H  H54  1  0.69840000  0.85610000  0.26017000  1.0 0.1298630028
H  H55  1  0.00370000  0.54700000  0.54550000  1.0 0.1498143892
H  H56  1  0.45300000  0.45670000  0.87883000  1.0 0.1498143892
H  H57  1  0.54330000  0.99630000  0.21217000  1.0 0.1498143892
H  H58  1  0.17730000  0.56050000  0.54810000  1.0 0.1121153668
H  H59  1  0.43950000  0.61680000  0.88143000  1.0 0.1121153668
H  H60  1  0.38320000  0.82270000  0.21477000  1.0 0.1121153668
H  H61  1  0.62880000  0.81860000  0.53470000  1.0 0.1121153668
H  H62  1  0.18140000  0.81020000  0.86803000  1.0 0.1121153668
H  H63  1  0.18980000  0.37120000  0.20137000  1.0 0.1121153668
H  H64  1  0.79270000  0.81410000  0.53000000  1.0 0.1298630028
H  H65  1  0.18590000  0.97860000  0.86333000  1.0 0.1298630028
H  H66  1  0.02140000  0.20730000  0.19667000  1.0 0.1298630028
H  H67  1  0.69000000  0.59860000  0.60690000  1.0 0.1298630028
H  H68  1  0.40140000  0.09140000  0.94023000  1.0 0.1298630028
H  H69  1  0.90860000  0.31000000  0.27357000  1.0 0.1298630028
H  H70  1  0.52100000  0.59690000  0.60540000  1.0 0.1008340285
H  H71  1  0.40310000  0.92410000  0.93873000  1.0 0.1008340285
H  H72  1  0.07590000  0.47900000  0.27207000  1.0 0.1008340285
H  H73  1  0.33730000  0.46520000  0.29130000  1.0 0.1173561939
H  H74  1  0.53480000  0.87210000  0.62463000  1.0 0.1173561939
H  H75  1  0.12790000  0.66270000  0.95797000  1.0 0.1173561939
H  H76  1  0.36730000  0.47780000  0.34750000  1.0 0.1498143892
H  H77  1  0.52220000  0.88950000  0.68083000  1.0 0.1498143892
H  H78  1  0.11050000  0.63270000  0.01417000  1.0 0.1498143892
H  H79  1  0.29690000  0.72460000  0.34880000  1.0 0.1498143892
H  H80  1  0.27540000  0.57230000  0.68213000  1.0 0.1498143892
H  H81  1  0.42770000  0.70310000  0.01547000  1.0 0.1498143892
H  H82  1  0.27630000  0.71190000  0.29280000  1.0 0.1008340285
H  H83  1  0.28810000  0.56440000  0.62613000  1.0 0.1008340285
H  H84  1  0.43560000  0.72370000  0.95947000  1.0 0.1008340285
H  H85  1  0.42700000  0.55380000  0.52080000  1.0 0.1008340285
H  H86  1  0.44620000  0.87320000  0.85413000  1.0 0.1008340285
H  H87  1  0.12680000  0.57300000  0.18747000  1.0 0.1008340285
H  H88  1  0.42060000  0.52740000  0.46460000  1.0 0.1360168268
H  H89  1  0.47260000  0.89320000  0.79793000  1.0 0.1360168268
H  H90  1  0.10680000  0.57940000  0.13127000  1.0 0.1360168268
H  H91  1  0.34590000  0.77210000  0.45510000  1.0 0.1360168268
H  H92  1  0.22790000  0.57380000  0.78843000  1.0 0.1360168268
H  H93  1  0.42620000  0.65410000  0.12177000  1.0 0.1360168268
H  H94  1  0.36770000  0.80200000  0.50960000  1.0 0.1173561939
H  H95  1  0.19800000  0.56570000  0.84293000  1.0 0.1173561939
H  H96  1  0.43430000  0.63230000  0.17627000  1.0 0.1173561939
H  H97  1  0.84130000  0.31090000  0.40500000  1.0 0.1121153668
H  H98  1  0.68910000  0.53040000  0.73833000  1.0 0.1121153668
H  H99  1  0.46960000  0.15870000  0.07167000  1.0 0.1121153668
H  H100  1  0.84230000  0.14390000  0.40650000  1.0 0.1298630028
H  H101  1  0.85610000  0.69840000  0.73983000  1.0 0.1298630028
H  H102  1  0.30160000  0.15770000  0.07317000  1.0 0.1298630028
H  H103  1  0.54700000  0.00370000  0.45450000  1.0 0.1498143892
H  H104  1  0.99630000  0.54330000  0.78783000  1.0 0.1498143892
H  H105  1  0.45670000  0.45300000  0.12117000  1.0 0.1498143892
H  H106  1  0.56050000  0.17730000  0.45190000  1.0 0.1121153668
H  H107  1  0.82270000  0.38320000  0.78523000  1.0 0.1121153668
H  H108  1  0.61680000  0.43950000  0.11857000  1.0 0.1121153668
H  H109  1  0.81860000  0.62880000  0.46530000  1.0 0.1121153668
H  H110  1  0.37120000  0.18980000  0.79863000  1.0 0.1121153668
H  H111  1  0.81020000  0.18140000  0.13197000  1.0 0.1121153668
H  H112  1  0.81410000  0.79270000  0.47000000  1.0 0.1298630028
H  H113  1  0.20730000  0.02140000  0.80333000  1.0 0.1298630028
H  H114  1  0.97860000  0.18590000  0.13667000  1.0 0.1298630028
H  H115  1  0.59860000  0.69000000  0.39310000  1.0 0.1298630028
H  H116  1  0.31000000  0.90860000  0.72643000  1.0 0.1298630028
H  H117  1  0.09140000  0.40140000  0.05977000  1.0 0.1298630028
H  H118  1  0.59690000  0.52100000  0.39460000  1.0 0.1008340285
H  H119  1  0.47900000  0.07590000  0.72793000  1.0 0.1008340285
H  H120  1  0.92410000  0.40310000  0.06127000  1.0 0.1008340285
H  H121  1  0.46520000  0.33730000  0.70870000  1.0 0.1173561939
H  H122  1  0.66270000  0.12790000  0.04203000  1.0 0.1173561939
H  H123  1  0.87210000  0.53480000  0.37537000  1.0 0.1173561939
H  H124  1  0.47780000  0.36730000  0.65250000  1.0 0.1498143892
H  H125  1  0.63270000  0.11050000  0.98583000  1.0 0.1498143892
H  H126  1  0.88950000  0.52220000  0.31917000  1.0 0.1498143892
H  H127  1  0.72460000  0.29690000  0.65120000  1.0 0.1498143892
H  H128  1  0.70310000  0.42770000  0.98453000  1.0 0.1498143892
H  H129  1  0.57230000  0.27540000  0.31787000  1.0 0.1498143892
H  H130  1  0.71190000  0.27630000  0.70720000  1.0 0.1008340285
H  H131  1  0.72370000  0.43560000  0.04053000  1.0 0.1008340285
H  H132  1  0.56440000  0.28810000  0.37387000  1.0 0.1008340285
H  H133  1  0.55380000  0.42700000  0.47920000  1.0 0.1008340285
H  H134  1  0.57300000  0.12680000  0.81253000  1.0 0.1008340285
H  H135  1  0.87320000  0.44620000  0.14587000  1.0 0.1008340285
H  H136  1  0.52740000  0.42060000  0.53540000  1.0 0.1360168268
H  H137  1  0.57940000  0.10680000  0.86873000  1.0 0.1360168268
H  H138  1  0.89320000  0.47260000  0.20207000  1.0 0.1360168268
H  H139  1  0.77210000  0.34590000  0.54490000  1.0 0.1360168268
H  H140  1  0.65410000  0.42620000  0.87823000  1.0 0.1360168268
H  H141  1  0.57380000  0.22790000  0.21157000  1.0 0.1360168268
H  H142  1  0.80200000  0.36770000  0.49040000  1.0 0.1173561939
H  H143  1  0.63230000  0.43430000  0.82373000  1.0 0.1173561939
H  H144  1  0.56570000  0.19800000  0.15707000  1.0 0.1173561939
C  C1  1  0.10720000  0.19710000  0.01180000  1.0 0.0624567567
C  C2  1  0.80290000  0.91010000  0.34513000  1.0 0.0624567567
C  C3  1  0.19710000  0.10720000  0.98820000  1.0 0.0624567567
C  C4  1  0.08990000  0.89280000  0.67847000  1.0 0.0624567567
C  C5  1  0.89280000  0.08990000  0.32153000  1.0 0.0624567567
C  C6  1  0.91010000  0.80290000  0.65487000  1.0 0.0624567567
C  C7  1  0.20440000  0.29800000  0.01060000  1.0 -0.1821119147
C  C8  1  0.70200000  0.90640000  0.34393000  1.0 -0.1821119147
C  C9  1  0.29800000  0.20440000  0.98940000  1.0 -0.1821119147
C  C10  1  0.09360000  0.79560000  0.67727000  1.0 -0.1821119147
C  C11  1  0.79560000  0.09360000  0.32273000  1.0 -0.1821119147
C  C12  1  0.90640000  0.70200000  0.65607000  1.0 -0.1821119147
C  C13  1  0.30460000  0.30460000  0.00000000  1.0 0.1615779993
C  C14  1  0.69540000  0.00000000  0.33333333  1.0 0.1615779993
C  C15  1  0.00000000  0.69540000  0.66666667  1.0 0.1615779993
C  C16  1  0.41310000  0.41310000  0.00000000  1.0 -0.1093856432
C  C17  1  0.58690000  0.00000000  0.33333333  1.0 -0.1093856432
C  C18  1  0.00000000  0.58690000  0.66666667  1.0 -0.1093856432
C  C19  1  0.49710000  0.49710000  0.00000000  1.0 -0.0893130671
C  C20  1  0.50290000  0.00000000  0.33333333  1.0 -0.0893130671
C  C21  1  0.00000000  0.50290000  0.66666667  1.0 -0.0893130671
C  C22  1  0.60160000  0.60160000  0.00000000  1.0 0.1675708596
C  C23  1  0.39840000  0.00000000  0.33333333  1.0 0.1675708596
C  C24  1  0.00000000  0.39840000  0.66666667  1.0 0.1675708596
C  C25  1  0.62440000  0.67870000  0.97520000  1.0 -0.1708812691
C  C26  1  0.32130000  0.94570000  0.30853000  1.0 -0.1708812691
C  C27  1  0.67870000  0.62440000  0.02480000  1.0 -0.1708812691
C  C28  1  0.05430000  0.37560000  0.64187000  1.0 -0.1708812691
C  C29  1  0.37560000  0.05430000  0.35813000  1.0 -0.1708812691
C  C30  1  0.94570000  0.32130000  0.69147000  1.0 -0.1708812691
C  C31  1  0.72680000  0.78230000  0.97710000  1.0 0.1008340285
C  C32  1  0.21770000  0.94450000  0.31043000  1.0 0.1008340285
C  C33  1  0.78230000  0.72680000  0.02290000  1.0 0.1008340285
C  C34  1  0.05550000  0.27320000  0.64377000  1.0 0.1008340285
C  C35  1  0.27320000  0.05550000  0.35623000  1.0 0.1008340285
C  C36  1  0.94450000  0.21770000  0.68957000  1.0 0.1008340285
C  C37  1  0.96700000  0.05030000  0.93550000  1.0 0.0687891845
C  C38  1  0.94970000  0.91670000  0.26883000  1.0 0.0687891845
C  C39  1  0.05030000  0.96700000  0.06450000  1.0 0.0687891845
C  C40  1  0.08330000  0.03300000  0.60217000  1.0 0.0687891845
C  C41  1  0.03300000  0.08330000  0.39783000  1.0 0.0687891845
C  C42  1  0.91670000  0.94970000  0.73117000  1.0 0.0687891845
C  C43  1  0.97910000  0.06530000  0.90200000  1.0 -0.1821119147
C  C44  1  0.93470000  0.91380000  0.23533000  1.0 -0.1821119147
C  C45  1  0.06530000  0.97910000  0.09800000  1.0 -0.1821119147
C  C46  1  0.08620000  0.02090000  0.56867000  1.0 -0.1821119147
C  C47  1  0.02090000  0.08620000  0.43133000  1.0 -0.1821119147
C  C48  1  0.91380000  0.93470000  0.76467000  1.0 -0.1821119147
C  C49  1  0.97580000  0.98020000  0.88290000  1.0 0.1615779993
C  C50  1  0.01980000  0.99560000  0.21623000  1.0 0.1615779993
C  C51  1  0.98020000  0.97580000  0.11710000  1.0 0.1615779993
C  C52  1  0.00440000  0.02420000  0.54957000  1.0 0.1615779993
C  C53  1  0.02420000  0.00440000  0.45043000  1.0 0.1615779993
C  C54  1  0.99560000  0.01980000  0.78377000  1.0 0.1615779993
C  C55  1  0.96220000  0.88330000  0.89820000  1.0 -0.1821119147
C  C56  1  0.11670000  0.07890000  0.23153000  1.0 -0.1821119147
C  C57  1  0.88330000  0.96220000  0.10180000  1.0 -0.1821119147
C  C58  1  0.92110000  0.03780000  0.56487000  1.0 -0.1821119147
C  C59  1  0.03780000  0.92110000  0.43513000  1.0 -0.1821119147
C  C60  1  0.07890000  0.11670000  0.76847000  1.0 -0.1821119147
C  C61  1  0.95490000  0.87900000  0.93280000  1.0 0.1008340285
C  C62  1  0.12100000  0.07590000  0.26613000  1.0 0.1008340285
C  C63  1  0.87900000  0.95490000  0.06720000  1.0 0.1008340285
C  C64  1  0.92410000  0.04510000  0.59947000  1.0 0.1008340285
C  C65  1  0.04510000  0.92410000  0.40053000  1.0 0.1008340285
C  C66  1  0.07590000  0.12100000  0.73387000  1.0 0.1008340285
C  C67  1  0.98540000  0.99350000  0.84750000  1.0 -0.0774766451
C  C68  1  0.00650000  0.99190000  0.18083000  1.0 -0.0774766451
C  C69  1  0.99350000  0.98540000  0.15250000  1.0 -0.0774766451
C  C70  1  0.00810000  0.01460000  0.51417000  1.0 -0.0774766451
C  C71  1  0.01460000  0.00810000  0.48583000  1.0 -0.0774766451
C  C72  1  0.99190000  0.00650000  0.81917000  1.0 -0.0774766451
C  C73  1  0.24860000  0.78230000  0.58460000  1.0 0.0624567567
C  C74  1  0.21770000  0.46630000  0.91793000  1.0 0.0624567567
C  C75  1  0.53370000  0.75140000  0.25127000  1.0 0.0624567567
C  C76  1  0.14780000  0.78260000  0.58380000  1.0 -0.1914671829
C  C77  1  0.21740000  0.36520000  0.91713000  1.0 -0.1914671829
C  C78  1  0.63480000  0.85220000  0.25047000  1.0 -0.1914671829
C  C79  1  0.05310000  0.69710000  0.56900000  1.0 0.1823070103
C  C80  1  0.30290000  0.35600000  0.90233000  1.0 0.1823070103
C  C81  1  0.64400000  0.94690000  0.23567000  1.0 0.1823070103
C  C82  1  0.06440000  0.60910000  0.55540000  1.0 -0.1708812691
C  C83  1  0.39090000  0.45530000  0.88873000  1.0 -0.1708812691
C  C84  1  0.54470000  0.93560000  0.22207000  1.0 -0.1708812691
C  C85  1  0.16980000  0.61860000  0.55750000  1.0 0.1008340285
C  C86  1  0.38140000  0.55120000  0.89083000  1.0 0.1008340285
C  C87  1  0.44880000  0.83020000  0.22417000  1.0 0.1008340285
C  C88  1  0.94610000  0.69600000  0.56830000  1.0 -0.1093856432
C  C89  1  0.30400000  0.25010000  0.90163000  1.0 -0.1093856432
C  C90  1  0.74990000  0.05390000  0.23497000  1.0 -0.1093856432
C  C91  1  0.64080000  0.77170000  0.54870000  1.0 0.0624567567
C  C92  1  0.22830000  0.86910000  0.88203000  1.0 0.0624567567
C  C93  1  0.13090000  0.35920000  0.21537000  1.0 0.0624567567
C  C94  1  0.73910000  0.77030000  0.54570000  1.0 -0.1821119147
C  C95  1  0.22970000  0.96880000  0.87903000  1.0 -0.1821119147
C  C96  1  0.03120000  0.26090000  0.21237000  1.0 -0.1821119147
C  C97  1  0.75680000  0.70010000  0.56740000  1.0 0.1615779993
C  C98  1  0.29990000  0.05670000  0.90073000  1.0 0.1615779993
C  C99  1  0.94330000  0.24320000  0.23407000  1.0 0.1615779993
C  C100  1  0.67720000  0.64020000  0.59110000  1.0 -0.1821119147
C  C101  1  0.35980000  0.03700000  0.92443000  1.0 -0.1821119147
C  C102  1  0.96300000  0.32280000  0.25777000  1.0 -0.1821119147
C  C103  1  0.57790000  0.64340000  0.59080000  1.0 0.0929904869
C  C104  1  0.35660000  0.93450000  0.92413000  1.0 0.0929904869
C  C105  1  0.06550000  0.42210000  0.25747000  1.0 0.0929904869
C  C106  1  0.85890000  0.69570000  0.56750000  1.0 -0.0980603455
C  C107  1  0.30430000  0.16320000  0.90083000  1.0 -0.0980603455
C  C108  1  0.83680000  0.14110000  0.23417000  1.0 -0.0980603455
C  C109  1  0.33020000  0.51980000  0.30300000  1.0 0.0929904869
C  C110  1  0.48020000  0.81040000  0.63633000  1.0 0.0929904869
C  C111  1  0.18960000  0.66980000  0.96967000  1.0 0.0929904869
C  C112  1  0.34670000  0.52540000  0.33700000  1.0 -0.1708812691
C  C113  1  0.47460000  0.82130000  0.67033000  1.0 -0.1708812691
C  C114  1  0.17870000  0.65330000  0.00367000  1.0 -0.1708812691
C  C115  1  0.33210000  0.60090000  0.35420000  1.0 0.1615779993
C  C116  1  0.39910000  0.73120000  0.68753000  1.0 0.1615779993
C  C117  1  0.26880000  0.66790000  0.02087000  1.0 0.1615779993
C  C118  1  0.30630000  0.67070000  0.33750000  1.0 -0.1821119147
C  C119  1  0.32930000  0.63560000  0.67083000  1.0 -0.1821119147
C  C120  1  0.36440000  0.69370000  0.00417000  1.0 -0.1821119147
C  C121  1  0.29370000  0.66280000  0.30380000  1.0 0.0624567567
C  C122  1  0.33720000  0.63090000  0.63713000  1.0 0.0624567567
C  C123  1  0.36910000  0.70630000  0.97047000  1.0 0.0624567567
C  C124  1  0.36360000  0.62550000  0.41860000  1.0 -0.0726248569
C  C125  1  0.37450000  0.73810000  0.75193000  1.0 -0.0726248569
C  C126  1  0.26190000  0.63640000  0.08527000  1.0 -0.0726248569
C  C127  1  0.41180000  0.59950000  0.50720000  1.0 0.0624567567
C  C128  1  0.40050000  0.81230000  0.84053000  1.0 0.0624567567
C  C129  1  0.18770000  0.58820000  0.17387000  1.0 0.0624567567
C  C130  1  0.40580000  0.58150000  0.47350000  1.0 -0.1821119147
C  C131  1  0.41850000  0.82430000  0.80683000  1.0 -0.1821119147
C  C132  1  0.17570000  0.59420000  0.14017000  1.0 -0.1821119147
C  C133  1  0.37770000  0.64420000  0.45330000  1.0 0.1675708596
C  C134  1  0.35580000  0.73350000  0.78663000  1.0 0.1675708596
C  C135  1  0.26650000  0.62230000  0.11997000  1.0 0.1675708596
C  C136  1  0.36370000  0.72680000  0.46800000  1.0 -0.1708812691
C  C137  1  0.27320000  0.63690000  0.80133000  1.0 -0.1708812691
C  C138  1  0.36310000  0.63630000  0.13467000  1.0 -0.1708812691
C  C139  1  0.37520000  0.74330000  0.50070000  1.0 0.0769782567
C  C140  1  0.25670000  0.63190000  0.83403000  1.0 0.0769782567
C  C141  1  0.36810000  0.62480000  0.16737000  1.0 0.0769782567
C  C142  1  0.34840000  0.61150000  0.38910000  1.0 -0.0774766451
C  C143  1  0.38850000  0.73690000  0.72243000  1.0 -0.0774766451
C  C144  1  0.26310000  0.65160000  0.05577000  1.0 -0.0774766451
C  C145  1  0.78230000  0.24860000  0.41540000  1.0 0.0624567567
C  C146  1  0.75140000  0.53370000  0.74873000  1.0 0.0624567567
C  C147  1  0.46630000  0.21770000  0.08207000  1.0 0.0624567567
C  C148  1  0.78260000  0.14780000  0.41620000  1.0 -0.1914671829
C  C149  1  0.85220000  0.63480000  0.74953000  1.0 -0.1914671829
C  C150  1  0.36520000  0.21740000  0.08287000  1.0 -0.1914671829
C  C151  1  0.69710000  0.05310000  0.43100000  1.0 0.1823070103
C  C152  1  0.94690000  0.64400000  0.76433000  1.0 0.1823070103
C  C153  1  0.35600000  0.30290000  0.09767000  1.0 0.1823070103
C  C154  1  0.60910000  0.06440000  0.44460000  1.0 -0.1708812691
C  C155  1  0.93560000  0.54470000  0.77793000  1.0 -0.1708812691
C  C156  1  0.45530000  0.39090000  0.11127000  1.0 -0.1708812691
C  C157  1  0.61860000  0.16980000  0.44250000  1.0 0.1008340285
C  C158  1  0.83020000  0.44880000  0.77583000  1.0 0.1008340285
C  C159  1  0.55120000  0.38140000  0.10917000  1.0 0.1008340285
C  C160  1  0.69600000  0.94610000  0.43170000  1.0 -0.1093856432
C  C161  1  0.05390000  0.74990000  0.76503000  1.0 -0.1093856432
C  C162  1  0.25010000  0.30400000  0.09837000  1.0 -0.1093856432
C  C163  1  0.77170000  0.64080000  0.45130000  1.0 0.0624567567
C  C164  1  0.35920000  0.13090000  0.78463000  1.0 0.0624567567
C  C165  1  0.86910000  0.22830000  0.11797000  1.0 0.0624567567
C  C166  1  0.77030000  0.73910000  0.45430000  1.0 -0.1821119147
C  C167  1  0.26090000  0.03120000  0.78763000  1.0 -0.1821119147
C  C168  1  0.96880000  0.22970000  0.12097000  1.0 -0.1821119147
C  C169  1  0.70010000  0.75680000  0.43260000  1.0 0.1615779993
C  C170  1  0.24320000  0.94330000  0.76593000  1.0 0.1615779993
C  C171  1  0.05670000  0.29990000  0.09927000  1.0 0.1615779993
C  C172  1  0.64020000  0.67720000  0.40890000  1.0 -0.1821119147
C  C173  1  0.32280000  0.96300000  0.74223000  1.0 -0.1821119147
C  C174  1  0.03700000  0.35980000  0.07557000  1.0 -0.1821119147
C  C175  1  0.64340000  0.57790000  0.40920000  1.0 0.0929904869
C  C176  1  0.42210000  0.06550000  0.74253000  1.0 0.0929904869
C  C177  1  0.93450000  0.35660000  0.07587000  1.0 0.0929904869
C  C178  1  0.69570000  0.85890000  0.43250000  1.0 -0.0980603455
C  C179  1  0.14110000  0.83680000  0.76583000  1.0 -0.0980603455
C  C180  1  0.16320000  0.30430000  0.09917000  1.0 -0.0980603455
C  C181  1  0.51980000  0.33020000  0.69700000  1.0 0.0929904869
C  C182  1  0.66980000  0.18960000  0.03033000  1.0 0.0929904869
C  C183  1  0.81040000  0.48020000  0.36367000  1.0 0.0929904869
C  C184  1  0.52540000  0.34670000  0.66300000  1.0 -0.1708812691
C  C185  1  0.65330000  0.17870000  0.99633000  1.0 -0.1708812691
C  C186  1  0.82130000  0.47460000  0.32967000  1.0 -0.1708812691
C  C187  1  0.60090000  0.33210000  0.64580000  1.0 0.1615779993
C  C188  1  0.66790000  0.26880000  0.97913000  1.0 0.1615779993
C  C189  1  0.73120000  0.39910000  0.31247000  1.0 0.1615779993
C  C190  1  0.67070000  0.30630000  0.66250000  1.0 -0.1821119147
C  C191  1  0.69370000  0.36440000  0.99583000  1.0 -0.1821119147
C  C192  1  0.63560000  0.32930000  0.32917000  1.0 -0.1821119147
C  C193  1  0.66280000  0.29370000  0.69620000  1.0 0.0624567567
C  C194  1  0.70630000  0.36910000  0.02953000  1.0 0.0624567567
C  C195  1  0.63090000  0.33720000  0.36287000  1.0 0.0624567567
C  C196  1  0.62550000  0.36360000  0.58140000  1.0 -0.0726248569
C  C197  1  0.63640000  0.26190000  0.91473000  1.0 -0.0726248569
C  C198  1  0.73810000  0.37450000  0.24807000  1.0 -0.0726248569
C  C199  1  0.59950000  0.41180000  0.49280000  1.0 0.0624567567
C  C200  1  0.58820000  0.18770000  0.82613000  1.0 0.0624567567
C  C201  1  0.81230000  0.40050000  0.15947000  1.0 0.0624567567
C  C202  1  0.58150000  0.40580000  0.52650000  1.0 -0.1821119147
C  C203  1  0.59420000  0.17570000  0.85983000  1.0 -0.1821119147
C  C204  1  0.82430000  0.41850000  0.19317000  1.0 -0.1821119147
C  C205  1  0.64420000  0.37770000  0.54670000  1.0 0.1675708596
C  C206  1  0.62230000  0.26650000  0.88003000  1.0 0.1675708596
C  C207  1  0.73350000  0.35580000  0.21337000  1.0 0.1675708596
C  C208  1  0.72680000  0.36370000  0.53200000  1.0 -0.1708812691
C  C209  1  0.63630000  0.36310000  0.86533000  1.0 -0.1708812691
C  C210  1  0.63690000  0.27320000  0.19867000  1.0 -0.1708812691
C  C211  1  0.74330000  0.37520000  0.49930000  1.0 0.0769782567
C  C212  1  0.62480000  0.36810000  0.83263000  1.0 0.0769782567
C  C213  1  0.63190000  0.25670000  0.16597000  1.0 0.0769782567
C  C214  1  0.61150000  0.34840000  0.61090000  1.0 -0.0774766451
C  C215  1  0.65160000  0.26310000  0.94423000  1.0 -0.0774766451
C  C216  1  0.73690000  0.38850000  0.27757000  1.0 -0.0774766451
N  N1  1  0.10260000  0.10260000  0.00000000  1.0 -0.2127550705
N  N2  1  0.89740000  0.00000000  0.33333333  1.0 -0.2127550705
N  N3  1  0.00000000  0.89740000  0.66666667  1.0 -0.2127550705
N  N4  1  0.80540000  0.80540000  0.00000000  1.0 -0.220232473
N  N5  1  0.19460000  0.00000000  0.33333333  1.0 -0.220232473
N  N6  1  0.00000000  0.19460000  0.66666667  1.0 -0.220232473
N  N7  1  0.95800000  0.95980000  0.95100000  1.0 -0.2127550705
N  N8  1  0.04020000  0.99820000  0.28433000  1.0 -0.2127550705
N  N9  1  0.95980000  0.95800000  0.04900000  1.0 -0.2127550705
N  N10  1  0.00180000  0.04200000  0.61767000  1.0 -0.2127550705
N  N11  1  0.04200000  0.00180000  0.38233000  1.0 -0.2127550705
N  N12  1  0.99820000  0.04020000  0.71567000  1.0 -0.2127550705
N  N13  1  0.25840000  0.69910000  0.57100000  1.0 -0.2127550705
N  N14  1  0.30090000  0.55930000  0.90433000  1.0 -0.2127550705
N  N15  1  0.44070000  0.74160000  0.23767000  1.0 -0.2127550705
N  N16  1  0.55880000  0.70870000  0.57090000  1.0 -0.220232473
N  N17  1  0.29130000  0.85010000  0.90423000  1.0 -0.220232473
N  N18  1  0.14990000  0.44120000  0.23757000  1.0 -0.220232473
N  N19  1  0.30560000  0.58710000  0.28680000  1.0 -0.2127550705
N  N20  1  0.41290000  0.71850000  0.62013000  1.0 -0.2127550705
N  N21  1  0.28150000  0.69440000  0.95347000  1.0 -0.220232473
N  N22  1  0.39660000  0.68030000  0.52100000  1.0 -0.220232473
N  N23  1  0.31970000  0.71630000  0.85433000  1.0 -0.220232473
N  N24  1  0.28370000  0.60340000  0.18767000  1.0 -0.220232473
N  N25  1  0.69910000  0.25840000  0.42900000  1.0 -0.2127550705
N  N26  1  0.74160000  0.44070000  0.76233000  1.0 -0.2127550705
N  N27  1  0.55930000  0.30090000  0.09567000  1.0 -0.2127550705
N  N28  1  0.70870000  0.55880000  0.42910000  1.0 -0.220232473
N  N29  1  0.44120000  0.14990000  0.76243000  1.0 -0.220232473
N  N30  1  0.85010000  0.29130000  0.09577000  1.0 -0.220232473
N  N31  1  0.58710000  0.30560000  0.71320000  1.0 -0.2127550705
N  N32  1  0.69440000  0.28150000  0.04653000  1.0 -0.2127550705
N  N33  1  0.71850000  0.41290000  0.37987000  1.0 -0.2127550705
N  N34  1  0.68030000  0.39660000  0.47900000  1.0 -0.220232473
N  N35  1  0.60340000  0.28370000  0.81233000  1.0 -0.220232473
N  N36  1  0.71630000  0.31970000  0.14567000  1.0 -0.220232473
N  N37  1  0.10370000  0.69850000  0.24387000  1.0 0.6588804775
N  N38  1  0.59480000  0.89630000  0.91053000  1.0 0.6588804775
N  N39  1  0.89630000  0.59480000  0.08947000  1.0 0.6588804775
N  N40  1  0.30150000  0.40520000  0.57720000  1.0 0.6588804775
N  N41  1  0.69850000  0.10370000  0.75613000  1.0 0.6588804775
N  N42  1  0.40520000  0.30150000  0.42280000  1.0 0.6588804775
N  N43  1  0.38700000  0.24000000  0.23877000  1.0 0.6428115024
N  N44  1  0.85300000  0.61300000  0.90543000  1.0 0.6428115024
N  N45  1  0.61300000  0.85300000  0.09457000  1.0 0.6428115024
N  N46  1  0.76000000  0.14700000  0.57210000  1.0 0.6428115024
N  N47  1  0.24000000  0.38700000  0.76123000  1.0 0.6428115024
N  N48  1  0.14700000  0.76000000  0.42790000  1.0 0.6428115024
O  O1  1  0.83730000  0.04710000  0.00070000  1.0 -0.4437150485
O  O2  1  0.95290000  0.79020000  0.33403000  1.0 -0.4437150485
O  O3  1  0.04710000  0.83730000  0.99930000  1.0 -0.4462990409
O  O4  1  0.20980000  0.16270000  0.66737000  1.0 -0.4437150485
O  O5  1  0.16270000  0.20980000  0.33263000  1.0 -0.4437150485
O  O6  1  0.79020000  0.95290000  0.66597000  1.0 -0.4437150485
O  O7  1  0.50630000  0.90360000  0.56080000  1.0 -0.3617590497
O  O8  1  0.09640000  0.60270000  0.89413000  1.0 -0.3617590497
O  O9  1  0.39730000  0.49370000  0.22747000  1.0 -0.3617590497
O  O10  1  0.90360000  0.50630000  0.43920000  1.0 -0.3617590497
O  O11  1  0.49370000  0.39730000  0.77253000  1.0 -0.3617590497
O  O12  1  0.60270000  0.09640000  0.10587000  1.0 -0.3617590497
O  O13  1  0.19670000  0.70910000  0.24217000  1.0 -0.4202278203
O  O14  1  0.09520000  0.78130000  0.25027000  1.0 -0.3617590497
O  O15  1  0.02090000  0.60720000  0.23767000  1.0 -0.381700123
O  O16  1  0.51240000  0.80330000  0.90883000  1.0 -0.4202278203
O  O17  1  0.68610000  0.90480000  0.91693000  1.0 -0.3617590497
O  O18  1  0.58630000  0.97910000  0.90433000  1.0 -0.381700123
O  O19  1  0.80330000  0.51240000  0.09117000  1.0 -0.4202278203
O  O20  1  0.90480000  0.68610000  0.08307000  1.0 -0.3617590497
O  O21  1  0.97910000  0.58630000  0.09567000  1.0 -0.381700123
O  O22  1  0.29090000  0.48760000  0.57550000  1.0 -0.4202278203
O  O23  1  0.21870000  0.31390000  0.58360000  1.0 -0.3617590497
O  O24  1  0.39280000  0.41370000  0.57100000  1.0 -0.381700123
O  O25  1  0.70910000  0.19670000  0.75783000  1.0 -0.4202278203
O  O26  1  0.78130000  0.09520000  0.74973000  1.0 -0.3617590497
O  O27  1  0.60720000  0.02090000  0.76233000  1.0 -0.381700123
O  O28  1  0.48760000  0.29090000  0.42450000  1.0 -0.4202278203
O  O29  1  0.31390000  0.21870000  0.41640000  1.0 -0.3617590497
O  O30  1  0.41370000  0.39280000  0.42900000  1.0 -0.381700123
O  O31  1  0.36600000  0.30100000  0.25527000  1.0 -0.3617590497
O  O32  1  0.42040000  0.18200000  0.25247000  1.0 -0.3981192282
O  O33  1  0.38500000  0.24400000  0.20887000  1.0 -0.3981192282
O  O34  1  0.93500000  0.63400000  0.92193000  1.0 -0.3617590497
O  O35  1  0.76160000  0.57960000  0.91913000  1.0 -0.3981192282
O  O36  1  0.85900000  0.61500000  0.87553000  1.0 -0.3981192282
O  O37  1  0.63400000  0.93500000  0.07807000  1.0 -0.3617590497
O  O38  1  0.57960000  0.76160000  0.08087000  1.0 -0.3981192282
O  O39  1  0.61500000  0.85900000  0.12447000  1.0 -0.3981192282
O  O40  1  0.69900000  0.06500000  0.58860000  1.0 -0.3617590497
O  O41  1  0.81800000  0.23840000  0.58580000  1.0 -0.3981192282
O  O42  1  0.75600000  0.14100000  0.54220000  1.0 -0.3981192282
O  O43  1  0.30100000  0.36600000  0.74473000  1.0 -0.3617590497
O  O44  1  0.18200000  0.42040000  0.74753000  1.0 -0.3981192282
O  O45  1  0.24400000  0.38500000  0.79113000  1.0 -0.3981192282
O  O46  1  0.06500000  0.69900000  0.41140000  1.0 -0.3617590497
O  O47  1  0.23840000  0.81800000  0.41420000  1.0 -0.3981192282
O  O48  1  0.14100000  0.75600000  0.45780000  1.0 -0.3981192282
