# DDEC6 charges by PACMAN v1.1 (https://github.com/mtap-research/PACMAN-charge/)
data_JIVSEN01_ASR_pacman
_symmetry_space_group_name_H-M   'P 1'
_cell_length_a   36.84000000
_cell_length_b   7.00630000
_cell_length_c   6.19880000
_cell_angle_alpha   90.00000000
_cell_angle_beta   97.45000000
_cell_angle_gamma   90.00000000
_symmetry_Int_Tables_number   1
_chemical_formula_structural   Sm2CuH16C30(NO7)2
_chemical_formula_sum   'Sm4 Cu2 H32 C60 N4 O28'
_cell_volume   1586.47878362
_cell_formula_units_Z   2
loop_
 _symmetry_equiv_pos_site_id
 _symmetry_equiv_pos_as_xyz
  1  'x, y, z'
loop_
 _atom_site_type_symbol
 _atom_site_label
 _atom_site_symmetry_multiplicity
 _atom_site_fract_x
 _atom_site_fract_y
 _atom_site_fract_z
 _atom_site_occupancy
 _atom_site_charge
Sm  Sm1  1  0.28441000  0.50000000  0.53309000  1.0 2.0092442197
Sm  Sm2  1  0.71559000  0.50000000  0.46691000  1.0 2.0092442197
Sm  Sm3  1  0.78441000  0.00000000  0.53309000  1.0 2.0092442197
Sm  Sm4  1  0.21559000  0.00000000  0.46691000  1.0 2.0092442197
Cu  Cu1  1  0.50000000  0.50000000  0.00000000  1.0 0.2237916154
Cu  Cu2  1  0.00000000  0.00000000  0.00000000  1.0 0.2237916154
H  H1  1  0.47655000  0.50000000  0.42329000  1.0 0.0628734867
H  H2  1  0.52345000  0.50000000  0.57671000  1.0 0.0628734867
H  H3  1  0.97655000  0.00000000  0.42329000  1.0 0.0628734867
H  H4  1  0.02345000  0.00000000  0.57671000  1.0 0.0628734867
H  H5  1  0.41461000  0.50000000  0.55831000  1.0 0.106771664
H  H6  1  0.58539000  0.50000000  0.44169000  1.0 0.106771664
H  H7  1  0.91461000  0.00000000  0.55831000  1.0 0.106771664
H  H8  1  0.08539000  0.00000000  0.44169000  1.0 0.106771664
H  H9  1  0.36394000  0.50000000  0.89526000  1.0 0.1519314063
H  H10  1  0.63606000  0.50000000  0.10474000  1.0 0.1519314063
H  H11  1  0.86394000  0.00000000  0.89526000  1.0 0.1519314063
H  H12  1  0.13606000  0.00000000  0.10474000  1.0 0.1519314063
H  H13  1  0.42585000  0.50000000  0.78324000  1.0 0.0628734867
H  H14  1  0.57415000  0.50000000  0.21676000  1.0 0.0628734867
H  H15  1  0.92585000  0.00000000  0.78324000  1.0 0.0628734867
H  H16  1  0.07415000  0.00000000  0.21676000  1.0 0.0628734867
H  H17  1  0.13358000  0.50000000  0.22881000  1.0 0.0864988652
H  H18  1  0.86642000  0.50000000  0.77119000  1.0 0.0864988652
H  H19  1  0.63358000  0.00000000  0.22881000  1.0 0.0864988652
H  H20  1  0.36642000  0.00000000  0.77119000  1.0 0.0864988652
H  H21  1  0.07868000  0.50000000  0.96493000  1.0 0.0864988652
H  H22  1  0.92132000  0.50000000  0.03507000  1.0 0.0864988652
H  H23  1  0.57868000  0.00000000  0.96493000  1.0 0.0864988652
H  H24  1  0.42132000  0.00000000  0.03507000  1.0 0.0864988652
H  H25  1  0.08327000  0.50000000  0.56420000  1.0 0.1006337876
H  H26  1  0.91673000  0.50000000  0.43580000  1.0 0.1006337876
H  H27  1  0.58327000  0.00000000  0.56420000  1.0 0.1006337876
H  H28  1  0.41673000  0.00000000  0.43580000  1.0 0.1006337876
H  H29  1  0.14651000  0.50000000  0.44401000  1.0 0.1006337876
H  H30  1  0.85349000  0.50000000  0.55599000  1.0 0.1006337876
H  H31  1  0.64651000  0.00000000  0.44401000  1.0 0.1006337876
H  H32  1  0.35349000  0.00000000  0.55599000  1.0 0.1006337876
C  C1  1  0.45092000  0.50000000  0.31361000  1.0 0.0500924562
C  C2  1  0.54908000  0.50000000  0.68639000  1.0 0.0500924562
C  C3  1  0.95092000  0.00000000  0.31361000  1.0 0.0500924562
C  C4  1  0.04908000  0.00000000  0.68639000  1.0 0.0500924562
C  C5  1  0.41748000  0.50000000  0.38604000  1.0 -0.1258501585
C  C6  1  0.58252000  0.50000000  0.61396000  1.0 -0.1258501585
C  C7  1  0.91748000  0.00000000  0.38604000  1.0 -0.1258501585
C  C8  1  0.08252000  0.00000000  0.61396000  1.0 -0.1258501585
C  C9  1  0.38488000  0.50000000  0.24355000  1.0 0.0242626064
C  C10  1  0.61512000  0.50000000  0.75645000  1.0 0.0242626064
C  C11  1  0.88488000  0.00000000  0.24355000  1.0 0.0242626064
C  C12  1  0.11512000  0.00000000  0.75645000  1.0 0.0242626064
C  C13  1  0.38782000  0.50000000  0.01889000  1.0 -0.1122369531
C  C14  1  0.61218000  0.50000000  0.98111000  1.0 -0.1122369531
C  C15  1  0.88782000  0.00000000  0.01889000  1.0 -0.1122369531
C  C16  1  0.11218000  0.00000000  0.98111000  1.0 -0.1122369531
C  C17  1  0.42242000  0.50000000  0.95524000  1.0 0.1006337876
C  C18  1  0.57758000  0.50000000  0.04476000  1.0 0.1006337876
C  C19  1  0.92242000  0.00000000  0.95524000  1.0 0.1006337876
C  C20  1  0.07758000  0.00000000  0.04476000  1.0 0.1006337876
C  C21  1  0.34986000  0.50000000  0.33970000  1.0 0.5339582127
C  C22  1  0.65014000  0.50000000  0.66030000  1.0 0.5339582127
C  C23  1  0.84986000  0.00000000  0.33970000  1.0 0.5339582127
C  C24  1  0.15014000  0.00000000  0.66030000  1.0 0.5339582127
C  C25  1  0.17699000  0.50000000  0.76419000  1.0 -0.035768869
C  C26  1  0.82301000  0.50000000  0.23581000  1.0 -0.035768869
C  C27  1  0.67699000  0.00000000  0.76419000  1.0 -0.035768869
C  C28  1  0.32301000  0.00000000  0.23581000  1.0 -0.035768869
C  C29  1  0.17297000  0.50000000  0.01046000  1.0 0.0445360572
C  C30  1  0.82703000  0.50000000  0.98954000  1.0 0.0445360572
C  C31  1  0.67297000  0.00000000  0.01046000  1.0 0.0445360572
C  C32  1  0.32703000  0.00000000  0.98954000  1.0 0.0445360572
C  C33  1  0.13689000  0.50000000  0.05842000  1.0 -0.0819514559
C  C34  1  0.86311000  0.50000000  0.94158000  1.0 -0.0819514559
C  C35  1  0.63689000  0.00000000  0.05842000  1.0 -0.0819514559
C  C36  1  0.36311000  0.00000000  0.94158000  1.0 -0.0819514559
C  C37  1  0.10570000  0.50000000  0.90853000  1.0 -0.0819514559
C  C38  1  0.89430000  0.50000000  0.09147000  1.0 -0.0819514559
C  C39  1  0.60570000  0.00000000  0.90853000  1.0 -0.0819514559
C  C40  1  0.39430000  0.00000000  0.09147000  1.0 -0.0819514559
C  C41  1  0.10850000  0.50000000  0.68070000  1.0 -0.1208726174
C  C42  1  0.89150000  0.50000000  0.31930000  1.0 -0.1208726174
C  C43  1  0.60850000  0.00000000  0.68070000  1.0 -0.1208726174
C  C44  1  0.39150000  0.00000000  0.31930000  1.0 -0.1208726174
C  C45  1  0.14194000  0.50000000  0.61363000  1.0 -0.089323661
C  C46  1  0.85806000  0.50000000  0.38637000  1.0 -0.089323661
C  C47  1  0.64194000  0.00000000  0.61363000  1.0 -0.089323661
C  C48  1  0.35806000  0.00000000  0.38637000  1.0 -0.089323661
C  C49  1  0.20011000  0.66913000  0.70854000  1.0 0.3115500895
C  C50  1  0.79989000  0.33087000  0.29146000  1.0 0.3115500895
C  C51  1  0.79989000  0.66913000  0.29146000  1.0 0.3115500895
C  C52  1  0.20011000  0.33087000  0.70854000  1.0 0.3115500895
C  C53  1  0.70011000  0.16913000  0.70854000  1.0 0.3115500895
C  C54  1  0.29989000  0.83087000  0.29146000  1.0 0.3115500895
C  C55  1  0.29989000  0.16913000  0.29146000  1.0 0.3115500895
C  C56  1  0.70011000  0.83087000  0.70854000  1.0 0.3115500895
C  C57  1  0.20352000  0.50000000  0.21216000  1.0 0.6638275099
C  C58  1  0.79648000  0.50000000  0.78784000  1.0 0.6638275099
C  C59  1  0.70352000  0.00000000  0.21216000  1.0 0.6638275099
C  C60  1  0.29648000  0.00000000  0.78784000  1.0 0.6638275099
N  N1  1  0.45429000  0.50000000  0.09372000  1.0 -0.2302100497
N  N2  1  0.54571000  0.50000000  0.90628000  1.0 -0.2302100497
N  N3  1  0.95429000  0.00000000  0.09372000  1.0 -0.2302100497
N  N4  1  0.04571000  0.00000000  0.90628000  1.0 -0.2302100497
O  O1  1  0.31864000  0.50000000  0.21718000  1.0 -0.5664378244
O  O2  1  0.68136000  0.50000000  0.78282000  1.0 -0.5664378244
O  O3  1  0.81864000  0.00000000  0.21718000  1.0 -0.5664378244
O  O4  1  0.18136000  0.00000000  0.78282000  1.0 -0.5664378244
O  O5  1  0.35175000  0.50000000  0.54720000  1.0 -0.6029854852
O  O6  1  0.64825000  0.50000000  0.45280000  1.0 -0.6029854852
O  O7  1  0.85175000  0.00000000  0.54720000  1.0 -0.6029854852
O  O8  1  0.14825000  0.00000000  0.45280000  1.0 -0.6029854852
O  O9  1  0.23870000  0.50000000  0.18956000  1.0 -0.5475963193
O  O10  1  0.76130000  0.50000000  0.81044000  1.0 -0.5475963193
O  O11  1  0.73870000  0.00000000  0.18956000  1.0 -0.5475963193
O  O12  1  0.26130000  0.00000000  0.81044000  1.0 -0.5475963193
O  O13  1  0.19246000  0.32400000  0.31868000  1.0 -0.6666208344
O  O14  1  0.80754000  0.67600000  0.68132000  1.0 -0.6666208344
O  O15  1  0.80754000  0.32400000  0.68132000  1.0 -0.6666208344
O  O16  1  0.19246000  0.67600000  0.31868000  1.0 -0.6666208344
O  O17  1  0.69246000  0.82400000  0.31868000  1.0 -0.6666208344
O  O18  1  0.30754000  0.17600000  0.68132000  1.0 -0.6643881637
O  O19  1  0.30754000  0.82400000  0.68132000  1.0 -0.6643881637
O  O20  1  0.69246000  0.17600000  0.31868000  1.0 -0.6666208344
O  O21  1  0.23277000  0.33100000  0.70062000  1.0 -0.4964780013
O  O22  1  0.76723000  0.66900000  0.29938000  1.0 -0.4964780013
O  O23  1  0.76723000  0.33100000  0.29938000  1.0 -0.4964780013
O  O24  1  0.23277000  0.66900000  0.70062000  1.0 -0.4964780013
O  O25  1  0.73277000  0.83100000  0.70062000  1.0 -0.4964780013
O  O26  1  0.26723000  0.16900000  0.29938000  1.0 -0.4964780013
O  O27  1  0.26723000  0.83100000  0.29938000  1.0 -0.4964780013
O  O28  1  0.73277000  0.16900000  0.70062000  1.0 -0.4964780013
