# DDEC6 charges by PACMAN v1.1 (https://github.com/mtap-research/PACMAN-charge/)
data_JIXRUH_ion_pacman
_symmetry_space_group_name_H-M   'P 1'
_cell_length_a   10.33970000
_cell_length_b   14.69430000
_cell_length_c   18.11420000
_cell_angle_alpha   90.00000000
_cell_angle_beta   124.11900000
_cell_angle_gamma   90.00000000
_symmetry_Int_Tables_number   1
_chemical_formula_structural   CuH17C21(N3O4)2
_chemical_formula_sum   'Cu4 H68 C84 N24 O32'
_cell_volume   2278.45491086
_cell_formula_units_Z   4
loop_
 _symmetry_equiv_pos_site_id
 _symmetry_equiv_pos_as_xyz
  1  'x, y, z'
loop_
 _atom_site_type_symbol
 _atom_site_label
 _atom_site_symmetry_multiplicity
 _atom_site_fract_x
 _atom_site_fract_y
 _atom_site_fract_z
 _atom_site_occupancy
 _atom_site_charge
Cu  Cu1  1  0.05744000  0.56376000  0.34635000  1.0 0.7675702655
Cu  Cu2  1  0.94256000  0.06376000  0.15365000  1.0 0.7675702655
Cu  Cu3  1  0.94256000  0.43624000  0.65365000  1.0 0.7675702655
Cu  Cu4  1  0.05744000  0.93624000  0.84635000  1.0 0.7675702655
H  H1  1  0.87549000  0.68777000  0.30656000  1.0 0.3130813473
H  H2  1  0.12451000  0.18777000  0.19344000  1.0 0.3130813473
H  H3  1  0.12451000  0.31223000  0.69344000  1.0 0.3130813473
H  H4  1  0.87549000  0.81223000  0.80656000  1.0 0.3130813473
H  H5  1  0.87558000  0.67013000  0.23376000  1.0 0.3254324728
H  H6  1  0.12442000  0.17013000  0.26624000  1.0 0.3254324728
H  H7  1  0.12442000  0.32987000  0.76624000  1.0 0.3254324728
H  H8  1  0.87558000  0.82987000  0.73376000  1.0 0.3254324728
H  H9  1  0.30488000  0.93840000  0.70006000  1.0 0.131002953
H  H10  1  0.69512000  0.43840000  0.79994000  1.0 0.131002953
H  H11  1  0.69512000  0.06160000  0.29994000  1.0 0.131002953
H  H12  1  0.30488000  0.56160000  0.20006000  1.0 0.131002953
H  H13  1  0.34541000  0.79174000  0.53162000  1.0 0.1213691212
H  H14  1  0.65459000  0.29174000  0.96838000  1.0 0.1213691212
H  H15  1  0.65459000  0.20826000  0.46838000  1.0 0.1213691212
H  H16  1  0.34541000  0.70826000  0.03162000  1.0 0.1213691212
H  H17  1  0.00868000  0.73340000  0.56921000  1.0 0.131002953
H  H18  1  0.99132000  0.23340000  0.93079000  1.0 0.131002953
H  H19  1  0.99132000  0.26660000  0.43079000  1.0 0.131002953
H  H20  1  0.00868000  0.76660000  0.06921000  1.0 0.131002953
H  H21  1  0.79729000  0.02659000  0.83723000  1.0 0.1213691212
H  H22  1  0.20271000  0.52659000  0.66277000  1.0 0.1213691212
H  H23  1  0.20271000  0.97341000  0.16277000  1.0 0.1213691212
H  H24  1  0.79729000  0.47341000  0.33723000  1.0 0.1213691212
H  H25  1  0.32293000  0.47066000  0.35542000  1.0 0.1119069149
H  H26  1  0.67707000  0.97066000  0.14458000  1.0 0.1119069149
H  H27  1  0.67707000  0.52934000  0.64458000  1.0 0.1119069149
H  H28  1  0.32293000  0.02934000  0.85542000  1.0 0.1119069149
H  H29  1  0.61905000  0.14197000  0.76336000  1.0 0.131002953
H  H30  1  0.38095000  0.64197000  0.73664000  1.0 0.131002953
H  H31  1  0.38095000  0.85803000  0.23664000  1.0 0.131002953
H  H32  1  0.61905000  0.35803000  0.26336000  1.0 0.131002953
H  H33  1  0.49368000  0.97708000  0.68067000  1.0 0.1213691212
H  H34  1  0.50632000  0.47708000  0.81933000  1.0 0.1213691212
H  H35  1  0.50632000  0.02292000  0.31933000  1.0 0.1213691212
H  H36  1  0.49368000  0.52292000  0.18067000  1.0 0.1213691212
H  H37  1  0.57585000  0.88784000  0.68028000  1.0 0.138375123
H  H38  1  0.42415000  0.38784000  0.81972000  1.0 0.138375123
H  H39  1  0.42415000  0.11216000  0.31972000  1.0 0.138375123
H  H40  1  0.57585000  0.61216000  0.18028000  1.0 0.138375123
H  H41  1  0.66370000  0.88277000  0.58723000  1.0 0.1213691212
H  H42  1  0.33630000  0.38277000  0.91277000  1.0 0.1213691212
H  H43  1  0.33630000  0.11723000  0.41277000  1.0 0.1213691212
H  H44  1  0.66370000  0.61723000  0.08723000  1.0 0.1213691212
H  H45  1  0.31776000  0.05610000  0.52400000  1.0 0.131002953
H  H46  1  0.68224000  0.55610000  0.97600000  1.0 0.131002953
H  H47  1  0.68224000  0.94390000  0.47600000  1.0 0.131002953
H  H48  1  0.31776000  0.44390000  0.02400000  1.0 0.131002953
H  H49  1  0.81731000  0.19193000  0.62977000  1.0 0.138375123
H  H50  1  0.18269000  0.69193000  0.87023000  1.0 0.138375123
H  H51  1  0.18269000  0.80807000  0.37023000  1.0 0.138375123
H  H52  1  0.81731000  0.30807000  0.12977000  1.0 0.138375123
H  H53  1  0.49916000  0.35554000  0.43376000  1.0 0.138375123
H  H54  1  0.50084000  0.85554000  0.06624000  1.0 0.138375123
H  H55  1  0.50084000  0.64446000  0.56624000  1.0 0.138375123
H  H56  1  0.49916000  0.14446000  0.93376000  1.0 0.138375123
H  H57  1  0.33832000  0.34071000  0.58982000  1.0 0.138375123
H  H58  1  0.66168000  0.84071000  0.91018000  1.0 0.138375123
H  H59  1  0.66168000  0.65929000  0.41018000  1.0 0.138375123
H  H60  1  0.33832000  0.15929000  0.08982000  1.0 0.138375123
H  H61  1  0.99382000  0.07719000  0.70995000  1.0 0.1213691212
H  H62  1  0.00618000  0.57719000  0.79005000  1.0 0.1213691212
H  H63  1  0.00618000  0.92281000  0.29005000  1.0 0.1213691212
H  H64  1  0.99382000  0.42281000  0.20995000  1.0 0.1213691212
H  H65  1  0.16485000  0.45510000  0.50601000  1.0 0.1213691212
H  H66  1  0.83515000  0.95510000  0.99399000  1.0 0.1213691212
H  H67  1  0.83515000  0.54490000  0.49399000  1.0 0.1213691212
H  H68  1  0.16485000  0.04490000  0.00601000  1.0 0.1213691212
C  C1  1  0.14415000  0.83945000  0.64215000  1.0 -0.0465676291
C  C2  1  0.85585000  0.33945000  0.85785000  1.0 -0.0465676291
C  C3  1  0.85585000  0.16055000  0.35785000  1.0 -0.0465676291
C  C4  1  0.14415000  0.66055000  0.14215000  1.0 -0.0465676291
C  C5  1  0.26954000  0.89068000  0.65944000  1.0 0.0095821367
C  C6  1  0.73046000  0.39068000  0.84056000  1.0 0.0095821367
C  C7  1  0.73046000  0.10932000  0.34056000  1.0 0.0095821367
C  C8  1  0.26954000  0.60932000  0.15944000  1.0 0.0095821367
C  C9  1  0.11960000  0.66865000  0.47920000  1.0 0.5367308193
C  C10  1  0.88040000  0.16865000  0.02080000  1.0 0.5367308193
C  C11  1  0.88040000  0.33135000  0.52080000  1.0 0.5367308193
C  C12  1  0.11960000  0.83135000  0.97920000  1.0 0.5367308193
C  C13  1  0.17153000  0.74889000  0.54153000  1.0 -0.0355780675
C  C14  1  0.82847000  0.24889000  0.95847000  1.0 -0.0355780675
C  C15  1  0.82847000  0.25111000  0.45847000  1.0 -0.0355780675
C  C16  1  0.17153000  0.75111000  0.04153000  1.0 -0.0355780675
C  C17  1  0.48774000  0.96255000  0.56694000  1.0 0.0890357908
C  C18  1  0.51226000  0.46255000  0.93306000  1.0 0.0890357908
C  C19  1  0.51226000  0.03745000  0.43306000  1.0 0.0890357908
C  C20  1  0.48774000  0.53745000  0.06694000  1.0 0.0890357908
C  C21  1  0.29456000  0.80305000  0.55976000  1.0 0.0095821367
C  C22  1  0.70544000  0.30305000  0.94024000  1.0 0.0095821367
C  C23  1  0.70544000  0.19695000  0.44024000  1.0 0.0095821367
C  C24  1  0.29456000  0.69695000  0.05976000  1.0 0.0095821367
C  C25  1  0.09415000  0.76828000  0.58225000  1.0 -0.0690221703
C  C26  1  0.90585000  0.26828000  0.91775000  1.0 -0.0690221703
C  C27  1  0.90585000  0.23172000  0.41775000  1.0 -0.0690221703
C  C28  1  0.09415000  0.73172000  0.08225000  1.0 -0.0690221703
C  C29  1  0.80092000  0.06056000  0.79512000  1.0 0.0890357908
C  C30  1  0.19908000  0.56056000  0.70488000  1.0 0.0890357908
C  C31  1  0.19908000  0.93944000  0.20488000  1.0 0.0890357908
C  C32  1  0.80092000  0.43944000  0.29512000  1.0 0.0890357908
C  C33  1  0.43954000  0.33635000  0.52114000  1.0 0.1921575078
C  C34  1  0.56046000  0.83635000  0.97886000  1.0 0.1921575078
C  C35  1  0.56046000  0.66365000  0.47886000  1.0 0.1921575078
C  C36  1  0.43954000  0.16365000  0.02114000  1.0 0.1921575078
C  C37  1  0.69637000  0.17745000  0.68627000  1.0 0.1921575078
C  C38  1  0.30363000  0.67745000  0.81373000  1.0 0.1921575078
C  C39  1  0.30363000  0.82255000  0.31373000  1.0 0.1921575078
C  C40  1  0.69637000  0.32255000  0.18627000  1.0 0.1921575078
C  C41  1  0.32616000  0.44391000  0.40296000  1.0 0.0890357908
C  C42  1  0.67384000  0.94391000  0.09704000  1.0 0.0890357908
C  C43  1  0.67384000  0.55609000  0.59704000  1.0 0.0890357908
C  C44  1  0.32616000  0.05609000  0.90296000  1.0 0.0890357908
C  C45  1  0.06472000  0.85843000  0.69012000  1.0 0.558925026
C  C46  1  0.93528000  0.35843000  0.80988000  1.0 0.558925026
C  C47  1  0.93528000  0.14157000  0.30988000  1.0 0.558925026
C  C48  1  0.06472000  0.64157000  0.19012000  1.0 0.558925026
C  C49  1  0.69251000  0.12887000  0.75061000  1.0 -0.1873437132
C  C50  1  0.30749000  0.62887000  0.74939000  1.0 -0.1873437132
C  C51  1  0.30749000  0.87113000  0.24939000  1.0 -0.1873437132
C  C52  1  0.69251000  0.37113000  0.25061000  1.0 -0.1873437132
C  C53  1  0.48489000  0.92618000  0.64399000  1.0 -0.1873437132
C  C54  1  0.51511000  0.42618000  0.85601000  1.0 -0.1873437132
C  C55  1  0.51511000  0.07382000  0.35601000  1.0 -0.1873437132
C  C56  1  0.48489000  0.57382000  0.14399000  1.0 -0.1873437132
C  C57  1  0.59735000  0.92989000  0.55215000  1.0 -0.1399523719
C  C58  1  0.40265000  0.42989000  0.94785000  1.0 -0.1399523719
C  C59  1  0.40265000  0.07011000  0.44785000  1.0 -0.1399523719
C  C60  1  0.59735000  0.57011000  0.05215000  1.0 -0.1399523719
C  C61  1  0.39112000  0.03315000  0.51452000  1.0 -0.1399523719
C  C62  1  0.60888000  0.53315000  0.98548000  1.0 -0.1399523719
C  C63  1  0.60888000  0.96685000  0.48548000  1.0 -0.1399523719
C  C64  1  0.39112000  0.46685000  0.01452000  1.0 -0.1399523719
C  C65  1  0.81126000  0.15878000  0.67146000  1.0 -0.1724168426
C  C66  1  0.18874000  0.65878000  0.82854000  1.0 -0.1724168426
C  C67  1  0.18874000  0.84122000  0.32854000  1.0 -0.1724168426
C  C68  1  0.81126000  0.34122000  0.17146000  1.0 -0.1724168426
C  C69  1  0.43290000  0.37520000  0.45000000  1.0 -0.1812706783
C  C70  1  0.56710000  0.87520000  0.05000000  1.0 -0.1873437132
C  C71  1  0.56710000  0.62480000  0.55000000  1.0 -0.1812706783
C  C72  1  0.43290000  0.12480000  0.95000000  1.0 -0.1812706783
C  C73  1  0.33717000  0.36630000  0.54247000  1.0 -0.1812706783
C  C74  1  0.66283000  0.86630000  0.95753000  1.0 -0.1812706783
C  C75  1  0.66283000  0.63370000  0.45753000  1.0 -0.1812706783
C  C76  1  0.33717000  0.13370000  0.04247000  1.0 -0.1812706783
C  C77  1  0.91659000  0.09000000  0.71979000  1.0 0.1018031565
C  C78  1  0.08341000  0.59000000  0.78021000  1.0 0.1018031565
C  C79  1  0.08341000  0.91000000  0.28021000  1.0 0.1018031565
C  C80  1  0.91659000  0.41000000  0.21979000  1.0 0.1018031565
C  C81  1  0.23351000  0.43480000  0.49181000  1.0 0.0890357908
C  C82  1  0.76649000  0.93480000  0.00819000  1.0 0.0890357908
C  C83  1  0.76649000  0.56520000  0.50819000  1.0 0.0890357908
C  C84  1  0.23351000  0.06520000  0.99181000  1.0 0.0890357908
N  N1  1  0.34202000  0.87249000  0.61818000  1.0 0.131002953
N  N2  1  0.65798000  0.37249000  0.88182000  1.0 0.131002953
N  N3  1  0.65798000  0.12751000  0.38182000  1.0 0.131002953
N  N4  1  0.34202000  0.62751000  0.11818000  1.0 0.131002953
N  N5  1  0.91127000  0.04084000  0.78057000  1.0 -0.235219407
N  N6  1  0.08873000  0.54084000  0.71943000  1.0 -0.235219407
N  N7  1  0.08873000  0.95916000  0.21943000  1.0 -0.235219407
N  N8  1  0.91127000  0.45916000  0.28057000  1.0 -0.235219407
N  N9  1  0.22769000  0.47331000  0.42313000  1.0 -0.2300402439
N  N10  1  0.77231000  0.97331000  0.07687000  1.0 -0.2300402439
N  N11  1  0.77231000  0.52669000  0.57687000  1.0 -0.2300402439
N  N12  1  0.22769000  0.02669000  0.92313000  1.0 -0.2300402439
N  N13  1  0.54934000  0.26294000  0.56534000  1.0 -0.0926218099
N  N14  1  0.45066000  0.76294000  0.93466000  1.0 -0.0926218099
N  N15  1  0.45066000  0.73706000  0.43466000  1.0 -0.0926218099
N  N16  1  0.54934000  0.23706000  0.06534000  1.0 -0.0926218099
N  N17  1  0.58442000  0.24940000  0.64212000  1.0 -0.1035036511
N  N18  1  0.41558000  0.74940000  0.85788000  1.0 -0.1035036511
N  N19  1  0.41558000  0.75060000  0.35788000  1.0 -0.1035036511
N  N20  1  0.58442000  0.25060000  0.14212000  1.0 -0.1035036511
N  N21  1  0.69080000  0.67190000  0.78760000  1.0 0.664472931
N  N22  1  0.30920000  0.17190000  0.71240000  1.0 0.664472931
N  N23  1  0.30920000  0.32810000  0.21240000  1.0 0.664472931
N  N24  1  0.69080000  0.82810000  0.28760000  1.0 0.664472931
O  O1  1  0.17380000  0.66414000  0.43142000  1.0 -0.5263624853
O  O2  1  0.82620000  0.16414000  0.06858000  1.0 -0.5263624853
O  O3  1  0.82620000  0.33586000  0.56858000  1.0 -0.5263624853
O  O4  1  0.17380000  0.83586000  0.93142000  1.0 -0.5263624853
O  O5  1  0.87116000  0.64430000  0.27428000  1.0 -0.6518888539
O  O6  1  0.12884000  0.14430000  0.22572000  1.0 -0.6518888539
O  O7  1  0.12884000  0.35570000  0.72572000  1.0 -0.6518888539
O  O8  1  0.87116000  0.85570000  0.77428000  1.0 -0.6518888539
O  O9  1  0.13060000  0.91368000  0.75346000  1.0 -0.5876795715
O  O10  1  0.86940000  0.41368000  0.74654000  1.0 -0.5876795715
O  O11  1  0.86940000  0.08632000  0.24654000  1.0 -0.5876795715
O  O12  1  0.13060000  0.58632000  0.25346000  1.0 -0.5876795715
O  O13  1  0.02944000  0.61290000  0.47795000  1.0 -0.5471126503
O  O14  1  0.97056000  0.11290000  0.02205000  1.0 -0.5471126503
O  O15  1  0.97056000  0.38710000  0.52205000  1.0 -0.5471126503
O  O16  1  0.02944000  0.88710000  0.97795000  1.0 -0.5471126503
O  O17  1  0.94200000  0.81538000  0.66259000  1.0 -0.5431200332
O  O18  1  0.05800000  0.31538000  0.83741000  1.0 -0.5431200332
O  O19  1  0.05800000  0.18462000  0.33741000  1.0 -0.5431200332
O  O20  1  0.94200000  0.68462000  0.16259000  1.0 -0.5431200332
O  O21  1  0.59040000  0.72330000  0.73030000  1.0 -0.4102551556
O  O22  1  0.82560000  0.70070000  0.84180000  1.0 -0.4102551556
O  O23  1  0.65550000  0.59410000  0.78900000  1.0 -0.3959798581
O  O24  1  0.40960000  0.22330000  0.76970000  1.0 -0.4102551556
O  O25  1  0.17440000  0.20070000  0.65820000  1.0 -0.4102551556
O  O26  1  0.34450000  0.09410000  0.71100000  1.0 -0.3959798581
O  O27  1  0.40960000  0.27670000  0.26970000  1.0 -0.4102551556
O  O28  1  0.17440000  0.29930000  0.15820000  1.0 -0.4102551556
O  O29  1  0.34450000  0.40590000  0.21100000  1.0 -0.3959798581
O  O30  1  0.59040000  0.77670000  0.23030000  1.0 -0.4102551556
O  O31  1  0.82560000  0.79930000  0.34180000  1.0 -0.4102551556
O  O32  1  0.65550000  0.90590000  0.28900000  1.0 -0.3959798581
