# DDEC6 charges by PACMAN v1.1 (https://github.com/mtap-research/PACMAN-charge/)
data_JIYKOU_ASR_pacman
_symmetry_space_group_name_H-M   'P 1'
_cell_length_a   8.13350000
_cell_length_b   15.74710000
_cell_length_c   11.48100000
_cell_angle_alpha   90.00000000
_cell_angle_beta   104.07500000
_cell_angle_gamma   90.00000000
_symmetry_Int_Tables_number   1
_chemical_formula_structural   LiH3C4O3
_chemical_formula_sum   'Li8 H24 C32 O24'
_cell_volume   1426.32914368
_cell_formula_units_Z   8
loop_
 _symmetry_equiv_pos_site_id
 _symmetry_equiv_pos_as_xyz
  1  'x, y, z'
loop_
 _atom_site_type_symbol
 _atom_site_label
 _atom_site_symmetry_multiplicity
 _atom_site_fract_x
 _atom_site_fract_y
 _atom_site_fract_z
 _atom_site_occupancy
 _atom_site_charge
Li  Li1  1  0.44170000  0.91427000  0.48570000  1.0 0.8058340321
Li  Li2  1  0.14280000  0.96999000  0.58210000  1.0 0.7956905733
Li  Li3  1  0.55830000  0.41427000  0.01430000  1.0 0.8058340321
Li  Li4  1  0.85720000  0.46999000  0.91790000  1.0 0.7956905733
Li  Li5  1  0.55830000  0.08573000  0.51430000  1.0 0.8058340321
Li  Li6  1  0.85720000  0.03001000  0.41790000  1.0 0.7956905733
Li  Li7  1  0.44170000  0.58573000  0.98570000  1.0 0.8058340321
Li  Li8  1  0.14280000  0.53001000  0.08210000  1.0 0.7956905733
H  H1  1  0.18830000  0.73420000  0.82750000  1.0 0.3386787544
H  H2  1  0.21460000  0.83950000  0.49900000  1.0 0.3969979058
H  H3  1  0.30030000  0.83100000  0.63300000  1.0 0.4068769882
H  H4  1  0.05330000  0.84700000  0.71980000  1.0 0.1230285833
H  H5  1  0.83020000  0.67980000  0.89630000  1.0 0.1308565656
H  H6  1  0.55670000  0.86590000  0.70300000  1.0 0.0934316138
H  H7  1  0.81170000  0.23420000  0.67250000  1.0 0.3386787544
H  H8  1  0.78540000  0.33950000  0.00100000  1.0 0.3969979058
H  H9  1  0.69970000  0.33100000  0.86700000  1.0 0.4068769882
H  H10  1  0.94670000  0.34700000  0.78020000  1.0 0.1230285833
H  H11  1  0.16980000  0.17980000  0.60370000  1.0 0.1308565656
H  H12  1  0.44330000  0.36590000  0.79700000  1.0 0.0934316138
H  H13  1  0.81170000  0.26580000  0.17250000  1.0 0.3386787544
H  H14  1  0.78540000  0.16050000  0.50100000  1.0 0.3969979058
H  H15  1  0.69970000  0.16900000  0.36700000  1.0 0.4068769882
H  H16  1  0.94670000  0.15300000  0.28020000  1.0 0.1230285833
H  H17  1  0.16980000  0.32020000  0.10370000  1.0 0.1308565656
H  H18  1  0.44330000  0.13410000  0.29700000  1.0 0.0934316138
H  H19  1  0.18830000  0.76580000  0.32750000  1.0 0.3386787544
H  H20  1  0.21460000  0.66050000  0.99900000  1.0 0.3969979058
H  H21  1  0.30030000  0.66900000  0.13300000  1.0 0.4068769882
H  H22  1  0.05330000  0.65300000  0.21980000  1.0 0.1230285833
H  H23  1  0.83020000  0.82020000  0.39630000  1.0 0.1308565656
H  H24  1  0.55670000  0.63410000  0.20300000  1.0 0.0934316138
C  C1  1  0.80195000  0.86777000  0.69747000  1.0 -0.0199190397
C  C2  1  0.95680000  0.82736000  0.74100000  1.0 -0.2396868174
C  C3  1  0.96640000  0.75777000  0.81603000  1.0 0.286316059
C  C4  1  0.82270000  0.72688000  0.84635000  1.0 -0.2108344366
C  C5  1  0.66759000  0.76634000  0.80203000  1.0 -0.0105388047
C  C6  1  0.65950000  0.83777000  0.72989000  1.0 -0.147885487
C  C7  1  0.78400000  0.94086000  0.61150000  1.0 0.6570450435
C  C8  1  0.50711000  0.73159000  0.82889000  1.0 0.6038848529
C  C9  1  0.19805000  0.36777000  0.80253000  1.0 -0.0199190397
C  C10  1  0.04320000  0.32736000  0.75900000  1.0 -0.2396868174
C  C11  1  0.03360000  0.25777000  0.68397000  1.0 0.286316059
C  C12  1  0.17730000  0.22688000  0.65365000  1.0 -0.2108344366
C  C13  1  0.33241000  0.26634000  0.69797000  1.0 -0.0105388047
C  C14  1  0.34050000  0.33777000  0.77011000  1.0 -0.147885487
C  C15  1  0.21600000  0.44086000  0.88850000  1.0 0.6570450435
C  C16  1  0.49289000  0.23159000  0.67111000  1.0 0.6038848529
C  C17  1  0.19805000  0.13223000  0.30253000  1.0 -0.0199190397
C  C18  1  0.04320000  0.17264000  0.25900000  1.0 -0.2396868174
C  C19  1  0.03360000  0.24223000  0.18397000  1.0 0.286316059
C  C20  1  0.17730000  0.27312000  0.15365000  1.0 -0.2108344366
C  C21  1  0.33241000  0.23366000  0.19797000  1.0 -0.0105388047
C  C22  1  0.34050000  0.16223000  0.27011000  1.0 -0.147885487
C  C23  1  0.21600000  0.05914000  0.38850000  1.0 0.6570450435
C  C24  1  0.49289000  0.26841000  0.17111000  1.0 0.6038848529
C  C25  1  0.80195000  0.63223000  0.19747000  1.0 -0.0199190397
C  C26  1  0.95680000  0.67264000  0.24100000  1.0 -0.2396868174
C  C27  1  0.96640000  0.74223000  0.31603000  1.0 0.286316059
C  C28  1  0.82270000  0.77312000  0.34635000  1.0 -0.2108344366
C  C29  1  0.66759000  0.73366000  0.30203000  1.0 -0.0105388047
C  C30  1  0.65950000  0.66223000  0.22989000  1.0 -0.147885487
C  C31  1  0.78400000  0.55914000  0.11150000  1.0 0.6570450435
C  C32  1  0.50711000  0.76841000  0.32889000  1.0 0.6038848529
O  O1  1  0.64222000  0.97733000  0.58299000  1.0 -0.711400785
O  O2  1  0.90626000  0.96105000  0.56901000  1.0 -0.7415322889
O  O3  1  0.51935000  0.67216000  0.90109000  1.0 -0.6558164884
O  O4  1  0.36816000  0.76593000  0.77454000  1.0 -0.5859898557
O  O5  1  0.11662000  0.71633000  0.86059000  1.0 -0.4576505502
O  O6  1  0.26341000  0.86343000  0.56470000  1.0 -0.8573864182
O  O7  1  0.35778000  0.47733000  0.91701000  1.0 -0.711400785
O  O8  1  0.09374000  0.46105000  0.93099000  1.0 -0.7415322889
O  O9  1  0.48065000  0.17216000  0.59891000  1.0 -0.6558164884
O  O10  1  0.63184000  0.26593000  0.72546000  1.0 -0.5859898557
O  O11  1  0.88338000  0.21633000  0.63941000  1.0 -0.4576505502
O  O12  1  0.73659000  0.36343000  0.93530000  1.0 -0.8573864182
O  O13  1  0.35778000  0.02267000  0.41701000  1.0 -0.711400785
O  O14  1  0.09374000  0.03895000  0.43099000  1.0 -0.7415322889
O  O15  1  0.48065000  0.32784000  0.09891000  1.0 -0.6558164884
O  O16  1  0.63184000  0.23407000  0.22546000  1.0 -0.5859898557
O  O17  1  0.88338000  0.28367000  0.13941000  1.0 -0.4576505502
O  O18  1  0.73659000  0.13657000  0.43530000  1.0 -0.8573864182
O  O19  1  0.64222000  0.52267000  0.08299000  1.0 -0.711400785
O  O20  1  0.90626000  0.53895000  0.06901000  1.0 -0.7415322889
O  O21  1  0.51935000  0.82784000  0.40109000  1.0 -0.6558164884
O  O22  1  0.36816000  0.73407000  0.27454000  1.0 -0.5859898557
O  O23  1  0.11662000  0.78367000  0.36059000  1.0 -0.4576505502
O  O24  1  0.26341000  0.63657000  0.06470000  1.0 -0.8573864182
