# DDEC6 charges by PACMAN v1.1 (https://github.com/mtap-research/PACMAN-charge/)
data_JIYXUL_FSR_pacman
_symmetry_space_group_name_H-M   'P 1'
_cell_length_a   12.58980000
_cell_length_b   14.93390000
_cell_length_c   19.95020000
_cell_angle_alpha   112.85200000
_cell_angle_beta   104.59000000
_cell_angle_gamma   86.02300000
_symmetry_Int_Tables_number   1
_chemical_formula_structural   Na15Fe4Sb2W18(C4O65)2
_chemical_formula_sum   'Na15 Fe4 Sb2 W18 C8 O130'
_cell_volume   3343.35931659
_cell_formula_units_Z   1
loop_
 _symmetry_equiv_pos_site_id
 _symmetry_equiv_pos_as_xyz
  1  'x, y, z'
loop_
 _atom_site_type_symbol
 _atom_site_label
 _atom_site_symmetry_multiplicity
 _atom_site_fract_x
 _atom_site_fract_y
 _atom_site_fract_z
 _atom_site_occupancy
 _atom_site_charge
Na  Na1  1  0.89430000  0.01110000  0.42140000  1.0 0.9199312841
Na  Na2  1  0.10570000  0.98890000  0.57860000  1.0 0.9199312841
Na  Na3  1  0.02190000  0.39960000  0.42640000  1.0 0.8744251544
Na  Na4  1  0.97810000  0.60040000  0.57360000  1.0 0.8744251544
Na  Na5  1  0.62130000  0.27880000  0.38720000  1.0 0.8519997413
Na  Na6  1  0.37870000  0.72120000  0.61280000  1.0 0.8519997413
Na  Na7  1  0.50000000  0.50000000  0.50000000  1.0 0.9199312841
Na  Na8  1  0.83050000  0.71090000  0.13640000  1.0 1.0532857294
Na  Na9  1  0.16950000  0.28910000  0.86360000  1.0 1.0532857294
Na  Na10  1  0.35690000  0.49100000  0.95280000  1.0 1.0158592576
Na  Na11  1  0.64310000  0.50900000  0.04720000  1.0 1.0158592576
Na  Na12  1  0.05710000  0.61290000  0.75820000  1.0 1.0080471451
Na  Na13  1  0.94290000  0.38710000  0.24180000  1.0 1.0080471451
Na  Na14  1  0.89800000  0.64590000  0.92430000  1.0 0.8848661298
Na  Na15  1  0.10200000  0.35410000  0.07570000  1.0 0.8861932272
Fe  Fe1  1  0.34663000  0.12831000  0.48166000  1.0 1.4227732534
Fe  Fe2  1  0.65337000  0.87169000  0.51834000  1.0 1.4227732534
Fe  Fe3  1  0.79497000  0.24712000  0.56353000  1.0 1.4094364757
Fe  Fe4  1  0.20503000  0.75288000  0.43647000  1.0 1.4094364757
Sb  Sb1  1  0.40051000  0.86435000  0.35593000  1.0 1.3799340839
Sb  Sb2  1  0.59949000  0.13565000  0.64407000  1.0 1.3799340839
W  W1  1  0.60529000  0.04475000  0.41946000  1.0 2.37911452
W  W2  1  0.39471000  0.95525000  0.58054000  1.0 2.37911452
W  W3  1  0.45745000  0.01810000  0.24635000  1.0 2.3518012876
W  W4  1  0.54255000  0.98190000  0.75365000  1.0 2.3616011257
W  W5  1  0.64618000  0.85712000  0.26783000  1.0 2.4192727918
W  W6  1  0.35382000  0.14288000  0.73217000  1.0 2.4192727918
W  W7  1  0.59635000  0.67685000  0.34157000  1.0 2.37911452
W  W8  1  0.40365000  0.32315000  0.65843000  1.0 2.37911452
W  W9  1  0.45035000  0.64795000  0.17065000  1.0 2.4192727918
W  W10  1  0.54965000  0.35205000  0.82935000  1.0 2.426692378
W  W11  1  0.33286000  0.61168000  0.29261000  1.0 2.4074524755
W  W12  1  0.66714000  0.38832000  0.70739000  1.0 2.4074524755
W  W13  1  0.12020000  0.78774000  0.26567000  1.0 2.4192727918
W  W14  1  0.87980000  0.21226000  0.73433000  1.0 2.4192727918
W  W15  1  0.23922000  0.82713000  0.14597000  1.0 2.3616011257
W  W16  1  0.76078000  0.17287000  0.85403000  1.0 2.37911452
W  W17  1  0.19416000  0.01112000  0.29355000  1.0 2.3695156689
W  W18  1  0.80584000  0.98888000  0.70645000  1.0 2.3695156689
C  C1  1  0.15370000  0.24320000  0.47750000  1.0 0.4782385642
C  C2  1  0.84630000  0.75680000  0.52250000  1.0 0.4782385642
C  C3  1  0.23050000  0.27860000  0.44240000  1.0 0.4876370693
C  C4  1  0.76950000  0.72140000  0.55760000  1.0 0.4876370693
C  C5  1  0.91780000  0.42120000  0.60260000  1.0 0.5097722376
C  C6  1  0.08220000  0.57880000  0.39740000  1.0 0.5097722376
C  C7  1  0.85220000  0.39500000  0.52070000  1.0 0.5097722376
C  C8  1  0.14780000  0.60500000  0.47930000  1.0 0.5097722376
O  O1  1  0.70010000  0.14370000  0.47670000  1.0 -0.7705809956
O  O2  1  0.29990000  0.85630000  0.52330000  1.0 -0.7705809956
O  O3  1  0.48090000  0.08830000  0.44740000  1.0 -0.7970853781
O  O4  1  0.51910000  0.91170000  0.55260000  1.0 -0.7970853781
O  O5  1  0.63890000  0.96210000  0.46630000  1.0 -0.8093945941
O  O6  1  0.36110000  0.03790000  0.53370000  1.0 -0.8093945941
O  O7  1  0.70440000  0.96820000  0.35220000  1.0 -0.9274744873
O  O8  1  0.29560000  0.03180000  0.64780000  1.0 -0.9274744873
O  O9  1  0.55260000  0.09560000  0.33540000  1.0 -0.8911693579
O  O10  1  0.44740000  0.90440000  0.66460000  1.0 -0.8959923273
O  O11  1  0.50230000  0.92570000  0.32210000  1.0 -0.9809515958
O  O12  1  0.49770000  0.07430000  0.67790000  1.0 -0.9809515958
O  O13  1  0.44610000  0.08670000  0.19330000  1.0 -0.66283356
O  O14  1  0.55390000  0.91330000  0.80670000  1.0 -0.66283356
O  O15  1  0.32900000  0.05410000  0.28360000  1.0 -0.8780338153
O  O16  1  0.67100000  0.94590000  0.71640000  1.0 -0.8780338153
O  O17  1  0.57720000  0.93920000  0.21500000  1.0 -0.8780338153
O  O18  1  0.42280000  0.06080000  0.78500000  1.0 -0.8780338153
O  O19  1  0.36890000  0.89990000  0.17270000  1.0 -0.8690464482
O  O20  1  0.63110000  0.10010000  0.82730000  1.0 -0.8690464482
O  O21  1  0.75670000  0.82630000  0.22840000  1.0 -0.7332894688
O  O22  1  0.24330000  0.17370000  0.77160000  1.0 -0.7352619057
O  O23  1  0.66390000  0.77670000  0.32290000  1.0 -0.858826298
O  O24  1  0.33610000  0.22330000  0.67710000  1.0 -0.858826298
O  O25  1  0.53710000  0.75920000  0.19340000  1.0 -0.858826298
O  O26  1  0.46290000  0.24080000  0.80660000  1.0 -0.858826298
O  O27  1  0.71070000  0.61900000  0.37250000  1.0 -0.5518999284
O  O28  1  0.28930000  0.38100000  0.62750000  1.0 -0.5518999284
O  O29  1  0.42820000  0.23050000  0.57360000  1.0 -0.7970853781
O  O30  1  0.57180000  0.76950000  0.42640000  1.0 -0.7970853781
O  O31  1  0.48410000  0.58540000  0.33080000  1.0 -0.8412729984
O  O32  1  0.51590000  0.41460000  0.66920000  1.0 -0.8412729984
O  O33  1  0.57470000  0.60990000  0.23210000  1.0 -0.8690464482
O  O34  1  0.42530000  0.39010000  0.76790000  1.0 -0.8690464482
O  O35  1  0.43350000  0.73000000  0.29170000  1.0 -0.9900855904
O  O36  1  0.56650000  0.27000000  0.70830000  1.0 -0.9900855904
O  O37  1  0.46700000  0.57020000  0.08340000  1.0 -0.8093945941
O  O38  1  0.53300000  0.42980000  0.91660000  1.0 -0.8093945941
O  O39  1  0.32280000  0.71220000  0.14140000  1.0 -0.858826298
O  O40  1  0.67720000  0.28780000  0.85860000  1.0 -0.858826298
O  O41  1  0.36380000  0.56560000  0.19190000  1.0 -0.8690464482
O  O42  1  0.63620000  0.43440000  0.80810000  1.0 -0.8690464482
O  O43  1  0.27150000  0.50280000  0.27770000  1.0 -0.5518999284
O  O44  1  0.72850000  0.49720000  0.72230000  1.0 -0.5518999284
O  O45  1  0.67670000  0.30850000  0.61210000  1.0 -0.8093945941
O  O46  1  0.32330000  0.69150000  0.38790000  1.0 -0.8093945941
O  O47  1  0.20830000  0.67340000  0.25270000  1.0 -0.8780338153
O  O48  1  0.79170000  0.32660000  0.74730000  1.0 -0.8780338153
O  O49  1  0.98950000  0.73900000  0.24370000  1.0 -0.6702111448
O  O50  1  0.01050000  0.26100000  0.75630000  1.0 -0.6702111448
O  O51  1  0.83310000  0.18010000  0.63210000  1.0 -0.8093945941
O  O52  1  0.16690000  0.81990000  0.36790000  1.0 -0.8093945941
O  O53  1  0.12280000  0.76660000  0.16290000  1.0 -0.858826298
O  O54  1  0.87720000  0.23340000  0.83710000  1.0 -0.858826298
O  O55  1  0.08120000  0.92140000  0.28230000  1.0 -0.848888952
O  O56  1  0.91880000  0.07860000  0.71770000  1.0 -0.848888952
O  O57  1  0.27410000  0.86490000  0.27260000  1.0 -0.9809515958
O  O58  1  0.72590000  0.13510000  0.72740000  1.0 -0.9809515958
O  O59  1  0.19150000  0.80120000  0.05090000  1.0 -0.6099817639
O  O60  1  0.80850000  0.19880000  0.94910000  1.0 -0.6099817639
O  O61  1  0.16860000  0.94710000  0.18360000  1.0 -0.8911693579
O  O62  1  0.83140000  0.05290000  0.81640000  1.0 -0.8911693579
O  O63  1  0.11670000  0.11220000  0.30100000  1.0 -0.5657049899
O  O64  1  0.88330000  0.88780000  0.69900000  1.0 -0.5657049899
O  O65  1  0.25950000  0.02970000  0.38940000  1.0 -0.7889560347
O  O66  1  0.74050000  0.97030000  0.61060000  1.0 -0.7889560347
O  O67  1  0.31840000  0.23290000  0.43700000  1.0 -0.4694219366
O  O68  1  0.68160000  0.76710000  0.56300000  1.0 -0.4694219366
O  O69  1  0.19680000  0.17960000  0.50420000  1.0 -0.4694219366
O  O70  1  0.80320000  0.82040000  0.49580000  1.0 -0.4694219366
O  O71  1  0.90180000  0.36200000  0.63110000  1.0 -0.5016910915
O  O72  1  0.09820000  0.63800000  0.36890000  1.0 -0.5016910915
O  O73  1  0.78110000  0.32430000  0.49660000  1.0 -0.5251304393
O  O74  1  0.21890000  0.67570000  0.50340000  1.0 -0.518861501
O  O75  1  0.92920000  0.18040000  0.51820000  1.0 -0.2668048774
O  O76  1  0.07080000  0.81960000  0.48180000  1.0 -0.2668048774
O  O77  1  0.86860000  0.44150000  0.48520000  1.0 -0.4694219366
O  O78  1  0.13140000  0.55850000  0.51480000  1.0 -0.4694219366
O  O79  1  0.20070000  0.34600000  0.42140000  1.0 -0.3980459954
O  O80  1  0.79930000  0.65400000  0.57860000  1.0 -0.3980459954
O  O81  1  0.06160000  0.27570000  0.47820000  1.0 -0.4063955133
O  O82  1  0.93840000  0.72430000  0.52180000  1.0 -0.4063955133
O  O83  1  0.97790000  0.49450000  0.63330000  1.0 -0.518861501
O  O84  1  0.02210000  0.50550000  0.36670000  1.0 -0.518861501
O  O85  1  0.91180000  0.99830000  0.54020000  1.0 -0.2422088569
O  O86  1  0.08820000  0.00170000  0.45980000  1.0 -0.2463326042
O  O87  1  0.62420000  0.46100000  0.41660000  1.0 -0.3297300672
O  O88  1  0.37580000  0.53900000  0.58340000  1.0 -0.3297300672
O  O89  1  0.66666667  0.66120000  0.03830000  1.0 -0.66283356
O  O90  1  0.33333333  0.33880000  0.96170000  1.0 -0.6702111448
O  O91  1  0.75890000  0.59030000  0.16940000  1.0 -0.4401563888
O  O92  1  0.24110000  0.40970000  0.83060000  1.0 -0.4401563888
O  O93  1  0.72160000  0.61770000  0.90410000  1.0 -0.0449949464
O  O94  1  0.27840000  0.38230000  0.09590000  1.0 -0.0532041227
O  O95  1  0.19890000  0.55990000  0.99920000  1.0 -0.0588563492
O  O96  1  0.80110000  0.44010000  0.00080000  1.0 -0.0532041227
O  O97  1  0.36660000  0.63580000  0.93010000  1.0 -0.2301640769
O  O98  1  0.63340000  0.36420000  0.06990000  1.0 -0.2301640769
O  O99  1  0.64780000  0.56320000  0.60660000  1.0 0.0391450415
O  O100  1  0.35220000  0.43680000  0.39340000  1.0 0.0391450415
O  O101  1  0.90050000  0.47580000  0.87980000  1.0 0.1608445758
O  O102  1  0.09950000  0.52420000  0.12020000  1.0 0.1608445758
O  O103  1  0.89280000  0.05970000  0.32340000  1.0 -0.108497263
O  O104  1  0.10720000  0.94030000  0.67660000  1.0 -0.108497263
O  O105  1  0.89990000  0.85960000  0.12890000  1.0 -0.153612945
O  O106  1  0.10010000  0.14040000  0.87110000  1.0 -0.153612945
O  O107  1  0.74000000  0.23540000  0.30840000  1.0 -0.1415973862
O  O108  1  0.26000000  0.76460000  0.69160000  1.0 -0.1415973862
O  O109  1  0.93600000  0.61910000  0.05140000  1.0 -0.4202036744
O  O110  1  0.06400000  0.38090000  0.94860000  1.0 -0.4202036744
O  O111  1  0.17840000  0.71650000  0.87450000  1.0 -0.108497263
O  O112  1  0.82160000  0.28350000  0.12550000  1.0 -0.0981022453
O  O113  1  0.90250000  0.83150000  0.37540000  1.0 0.1796945671
O  O114  1  0.09750000  0.16850000  0.62460000  1.0 0.1796945671
O  O115  1  0.52590000  0.33360000  0.48590000  1.0 -0.2824878877
O  O116  1  0.47410000  0.66640000  0.51410000  1.0 -0.2868265098
O  O117  1  0.03450000  0.47480000  0.78570000  1.0 0.1099577437
O  O118  1  0.96550000  0.52520000  0.21430000  1.0 0.1189958493
O  O119  1  0.96510000  0.27530000  0.30350000  1.0 -0.4401563888
O  O120  1  0.03490000  0.72470000  0.69650000  1.0 -0.4401563888
O  O121  1  0.88710000  0.65630000  0.79920000  1.0 -0.3920573478
O  O122  1  0.11290000  0.34370000  0.20080000  1.0 -0.3980459954
O  O123  1  0.21790000  0.57000000  0.71560000  1.0 0.0029432247
O  O124  1  0.78210000  0.43000000  0.28440000  1.0 0.0029432247
O  O125  1  0.48710000  0.29770000  0.28640000  1.0 0.0184962156
O  O126  1  0.51290000  0.70230000  0.71360000  1.0 0.0068747292
O  O127  1  0.00280000  0.67630000  0.95330000  1.0 -0.5960884576
O  O128  1  0.99720000  0.32370000  0.04670000  1.0 -0.5936461573
O  O129  1  0.42500000  0.27390000  0.31750000  1.0 0.1488106886
O  O130  1  0.57500000  0.72610000  0.68250000  1.0 0.1488106886
