# DDEC6 charges by PACMAN v1.1 (https://github.com/mtap-research/PACMAN-charge/)
data_JOBFEM_ASR_pacman
_symmetry_space_group_name_H-M   'P 1'
_cell_length_a   15.44490000
_cell_length_b   15.44490000
_cell_length_c   17.36040000
_cell_angle_alpha   81.67450000
_cell_angle_beta   98.32550000
_cell_angle_gamma   126.88100000
_symmetry_Int_Tables_number   1
_chemical_formula_structural   Cu3H16WC22(SN2)3
_chemical_formula_sum   'Cu12 H64 W4 C88 S12 N24'
_cell_volume   3268.81658007
_cell_formula_units_Z   4
loop_
 _symmetry_equiv_pos_site_id
 _symmetry_equiv_pos_as_xyz
  1  'x, y, z'
loop_
 _atom_site_type_symbol
 _atom_site_label
 _atom_site_symmetry_multiplicity
 _atom_site_fract_x
 _atom_site_fract_y
 _atom_site_fract_z
 _atom_site_occupancy
 _atom_site_charge
Cu  Cu1  1  0.03064000  0.40866000  0.37819000  1.0 0.2685527232
Cu  Cu2  1  0.40866000  0.03064000  0.12181000  1.0 0.2685527232
Cu  Cu3  1  0.96936000  0.59134000  0.62181000  1.0 0.2685527232
Cu  Cu4  1  0.59134000  0.96936000  0.87819000  1.0 0.2685527232
Cu  Cu5  1  0.02374000  0.20262000  0.26355000  1.0 0.3243030734
Cu  Cu6  1  0.20262000  0.02374000  0.23645000  1.0 0.3243030734
Cu  Cu7  1  0.97626000  0.79738000  0.73645000  1.0 0.3243030734
Cu  Cu8  1  0.79738000  0.97626000  0.76355000  1.0 0.3272925642
Cu  Cu9  1  0.77549000  0.19835000  0.26351000  1.0 0.383842605
Cu  Cu10  1  0.19835000  0.77549000  0.23649000  1.0 0.383842605
Cu  Cu11  1  0.22451000  0.80165000  0.73649000  1.0 0.383842605
Cu  Cu12  1  0.80165000  0.22451000  0.76351000  1.0 0.383842605
H  H1  1  0.10590000  0.43510000  0.22200000  1.0 0.0899057828
H  H2  1  0.43510000  0.10590000  0.27800000  1.0 0.0899057828
H  H3  1  0.89410000  0.56490000  0.77800000  1.0 0.0899057828
H  H4  1  0.56490000  0.89410000  0.72200000  1.0 0.0899057828
H  H5  1  0.06900000  0.42820000  0.87890000  1.0 0.1216842037
H  H6  1  0.42820000  0.06900000  0.62110000  1.0 0.1216842037
H  H7  1  0.93100000  0.57180000  0.12110000  1.0 0.1216842037
H  H8  1  0.57180000  0.93100000  0.37890000  1.0 0.1216842037
H  H9  1  0.13950000  0.55770000  0.11620000  1.0 0.1216842037
H  H10  1  0.55770000  0.13950000  0.38380000  1.0 0.1216842037
H  H11  1  0.86050000  0.44230000  0.88380000  1.0 0.1216842037
H  H12  1  0.44230000  0.86050000  0.61620000  1.0 0.1216842037
H  H13  1  0.36280000  0.68540000  0.70590000  1.0 0.1260335584
H  H14  1  0.68540000  0.36280000  0.79410000  1.0 0.1260335584
H  H15  1  0.63720000  0.31460000  0.29410000  1.0 0.1260335584
H  H16  1  0.31460000  0.63720000  0.20590000  1.0 0.1260335584
H  H17  1  0.09890000  0.55150000  0.77370000  1.0 0.0899057828
H  H18  1  0.55150000  0.09890000  0.72630000  1.0 0.0899057828
H  H19  1  0.90110000  0.44850000  0.22630000  1.0 0.0899057828
H  H20  1  0.44850000  0.90110000  0.27370000  1.0 0.0899057828
H  H21  1  0.20720000  0.78200000  0.91050000  1.0 0.0991132359
H  H22  1  0.78200000  0.20720000  0.58950000  1.0 0.0991132359
H  H23  1  0.79280000  0.21800000  0.08950000  1.0 0.0991132359
H  H24  1  0.21800000  0.79280000  0.41050000  1.0 0.0991132359
H  H25  1  0.32950000  0.62150000  0.58330000  1.0 0.1260335584
H  H26  1  0.62150000  0.32950000  0.91670000  1.0 0.1260335584
H  H27  1  0.67050000  0.37850000  0.41670000  1.0 0.1260335584
H  H28  1  0.37850000  0.67050000  0.08330000  1.0 0.1260335584
H  H29  1  0.18530000  0.66850000  0.02100000  1.0 0.1216842037
H  H30  1  0.66850000  0.18530000  0.47900000  1.0 0.1216842037
H  H31  1  0.81470000  0.33150000  0.97900000  1.0 0.1216842037
H  H32  1  0.33150000  0.81470000  0.52100000  1.0 0.1216842037
H  H33  1  0.96650000  0.33910000  0.55070000  1.0 0.0991132359
H  H34  1  0.33910000  0.96650000  0.94930000  1.0 0.0991132359
H  H35  1  0.03350000  0.66090000  0.44930000  1.0 0.0991132359
H  H36  1  0.66090000  0.03350000  0.05070000  1.0 0.0991132359
H  H37  1  0.06410000  0.33030000  0.97730000  1.0 0.1216842037
H  H38  1  0.33030000  0.06410000  0.52270000  1.0 0.1216842037
H  H39  1  0.93590000  0.66970000  0.02270000  1.0 0.1216842037
H  H40  1  0.66970000  0.93590000  0.47730000  1.0 0.1216842037
H  H41  1  0.04920000  0.37080000  0.67550000  1.0 0.1368670937
H  H42  1  0.37080000  0.04920000  0.82450000  1.0 0.1368670937
H  H43  1  0.95080000  0.62920000  0.32450000  1.0 0.1368670937
H  H44  1  0.62920000  0.95080000  0.17550000  1.0 0.1368670937
H  H45  1  0.44730000  0.71470000  0.83060000  1.0 0.0991132359
H  H46  1  0.71470000  0.44730000  0.66940000  1.0 0.0991132359
H  H47  1  0.55270000  0.28530000  0.16940000  1.0 0.0991132359
H  H48  1  0.28530000  0.55270000  0.33060000  1.0 0.0991132359
H  H49  1  0.17120000  0.36400000  0.77110000  1.0 0.1368670937
H  H50  1  0.36400000  0.17120000  0.72890000  1.0 0.1368670937
H  H51  1  0.82880000  0.63600000  0.22890000  1.0 0.1368670937
H  H52  1  0.63600000  0.82880000  0.27110000  1.0 0.1368670937
H  H53  1  0.26330000  0.40450000  0.89270000  1.0 0.0991132359
H  H54  1  0.40450000  0.26330000  0.60730000  1.0 0.0991132359
H  H55  1  0.73670000  0.59550000  0.10730000  1.0 0.0991132359
H  H56  1  0.59550000  0.73670000  0.39270000  1.0 0.0991132359
H  H57  1  0.03550000  0.21530000  0.08790000  1.0 0.0991132359
H  H58  1  0.21530000  0.03550000  0.41210000  1.0 0.0991132359
H  H59  1  0.96450000  0.78470000  0.91210000  1.0 0.0991132359
H  H60  1  0.78470000  0.96450000  0.58790000  1.0 0.0991132359
H  H61  1  0.23790000  0.58290000  0.46190000  1.0 0.0991132359
H  H62  1  0.58290000  0.23790000  0.03810000  1.0 0.0991132359
H  H63  1  0.76210000  0.41710000  0.53810000  1.0 0.0991132359
H  H64  1  0.41710000  0.76210000  0.96190000  1.0 0.0991132359
W  W1  1  0.91025000  0.18965000  0.37699000  1.0 0.7168183353
W  W2  1  0.18965000  0.91025000  0.12301000  1.0 0.7099136339
W  W3  1  0.08975000  0.81035000  0.62301000  1.0 0.7099136339
W  W4  1  0.81035000  0.08975000  0.87699000  1.0 0.7099136339
C  C1  1  0.09530000  0.13170000  0.25700000  1.0 -0.0877173938
C  C2  1  0.13170000  0.09530000  0.24300000  1.0 -0.0877173938
C  C3  1  0.90470000  0.86830000  0.74300000  1.0 -0.0838727477
C  C4  1  0.86830000  0.90470000  0.75700000  1.0 -0.0877173938
C  C5  1  0.09347000  0.54393000  0.31510000  1.0 -0.1191088188
C  C6  1  0.54393000  0.09347000  0.18490000  1.0 -0.1191088188
C  C7  1  0.90653000  0.45607000  0.68490000  1.0 -0.1191088188
C  C8  1  0.45607000  0.90653000  0.81510000  1.0 -0.1191088188
C  C9  1  0.09690000  0.41310000  0.17130000  1.0 0.0899057828
C  C10  1  0.41310000  0.09690000  0.32870000  1.0 0.0899057828
C  C11  1  0.90310000  0.58690000  0.82870000  1.0 0.0899057828
C  C12  1  0.58690000  0.90310000  0.67130000  1.0 0.0899057828
C  C13  1  0.09842000  0.50078000  0.88730000  1.0 -0.1890410026
C  C14  1  0.50078000  0.09842000  0.61270000  1.0 -0.1890410026
C  C15  1  0.90158000  0.49922000  0.11270000  1.0 -0.1890410026
C  C16  1  0.49922000  0.90158000  0.38730000  1.0 -0.1890410026
C  C17  1  0.11775000  0.48745000  0.10840000  1.0 -0.1999465788
C  C18  1  0.48745000  0.11775000  0.39160000  1.0 -0.1999465788
C  C19  1  0.88225000  0.51255000  0.89160000  1.0 -0.1999465788
C  C20  1  0.51255000  0.88225000  0.60840000  1.0 -0.1999465788
C  C21  1  0.25608000  0.52032000  0.72310000  1.0 0.0991132359
C  C22  1  0.52032000  0.25608000  0.77690000  1.0 0.0991132359
C  C23  1  0.74392000  0.47968000  0.27690000  1.0 0.0991132359
C  C24  1  0.47968000  0.74392000  0.22310000  1.0 0.0991132359
C  C25  1  0.34030000  0.62550000  0.74330000  1.0 -0.1890410026
C  C26  1  0.62550000  0.34030000  0.75670000  1.0 -0.1890410026
C  C27  1  0.65970000  0.37450000  0.25670000  1.0 -0.1890410026
C  C28  1  0.37450000  0.65970000  0.24330000  1.0 -0.1890410026
C  C29  1  0.10647000  0.45833000  0.03330000  1.0 0.0991132359
C  C30  1  0.45833000  0.10647000  0.46670000  1.0 0.0991132359
C  C31  1  0.89353000  0.54167000  0.96670000  1.0 0.0991132359
C  C32  1  0.54167000  0.89353000  0.53330000  1.0 0.0991132359
C  C33  1  0.11684000  0.57556000  0.82480000  1.0 0.0899057828
C  C34  1  0.57556000  0.11684000  0.67520000  1.0 0.0899057828
C  C35  1  0.88316000  0.42444000  0.17520000  1.0 0.0899057828
C  C36  1  0.42444000  0.88316000  0.32480000  1.0 0.0899057828
C  C37  1  0.19896000  0.49824000  0.64450000  1.0 0.0991132359
C  C38  1  0.49824000  0.19896000  0.85550000  1.0 0.0991132359
C  C39  1  0.80104000  0.50176000  0.35550000  1.0 0.0991132359
C  C40  1  0.50176000  0.80104000  0.14450000  1.0 0.0991132359
C  C41  1  0.18020000  0.70960000  0.90410000  1.0 0.0899057828
C  C42  1  0.70960000  0.18020000  0.59590000  1.0 0.0899057828
C  C43  1  0.81980000  0.29040000  0.09590000  1.0 0.0899057828
C  C44  1  0.29040000  0.81980000  0.40410000  1.0 0.0899057828
C  C45  1  0.12429000  0.53471000  0.96330000  1.0 0.0991132359
C  C46  1  0.53471000  0.12429000  0.53670000  1.0 0.0991132359
C  C47  1  0.87571000  0.46529000  0.03670000  1.0 0.0991132359
C  C48  1  0.46529000  0.87571000  0.46330000  1.0 0.0991132359
C  C49  1  0.25470000  0.56250000  0.57820000  1.0 -0.1890410026
C  C50  1  0.56250000  0.25470000  0.92180000  1.0 -0.1890410026
C  C51  1  0.74530000  0.43750000  0.42180000  1.0 -0.1890410026
C  C52  1  0.43750000  0.74530000  0.07820000  1.0 -0.1890410026
C  C53  1  0.16630000  0.64170000  0.97080000  1.0 -0.1999465788
C  C54  1  0.64170000  0.16630000  0.52920000  1.0 -0.1890410026
C  C55  1  0.83370000  0.35830000  0.02920000  1.0 -0.1890410026
C  C56  1  0.35830000  0.83370000  0.47080000  1.0 -0.1999465788
C  C57  1  0.04140000  0.39680000  0.55750000  1.0 0.0788950251
C  C58  1  0.39680000  0.04140000  0.94250000  1.0 0.0788950251
C  C59  1  0.95860000  0.60320000  0.44250000  1.0 0.0788950251
C  C60  1  0.60320000  0.95860000  0.05750000  1.0 0.0788950251
C  C61  1  0.07410000  0.35470000  0.02720000  1.0 -0.1999465788
C  C62  1  0.35470000  0.07410000  0.47280000  1.0 -0.1999465788
C  C63  1  0.92590000  0.64530000  0.97280000  1.0 -0.1999465788
C  C64  1  0.64530000  0.92590000  0.52720000  1.0 -0.1999465788
C  C65  1  0.09040000  0.41540000  0.63230000  1.0 -0.1717257623
C  C66  1  0.41540000  0.09040000  0.86770000  1.0 -0.1717257623
C  C67  1  0.90960000  0.58460000  0.36770000  1.0 -0.1717257623
C  C68  1  0.58460000  0.90960000  0.13230000  1.0 -0.1717257623
C  C69  1  0.39080000  0.64240000  0.81800000  1.0 0.0899057828
C  C70  1  0.64240000  0.39080000  0.68200000  1.0 0.0899057828
C  C71  1  0.60920000  0.35760000  0.18200000  1.0 0.0899057828
C  C72  1  0.35760000  0.60920000  0.31800000  1.0 0.0899057828
C  C73  1  0.22810000  0.43730000  0.78130000  1.0 -0.1999465788
C  C74  1  0.43730000  0.22810000  0.71870000  1.0 -0.1999465788
C  C75  1  0.77190000  0.56270000  0.21870000  1.0 -0.1999465788
C  C76  1  0.56270000  0.77190000  0.28130000  1.0 -0.1999465788
C  C77  1  0.28380000  0.46240000  0.85390000  1.0 0.0729892877
C  C78  1  0.46240000  0.28380000  0.64610000  1.0 0.0729892877
C  C79  1  0.71620000  0.53760000  0.14610000  1.0 0.0729892877
C  C80  1  0.53760000  0.71620000  0.35390000  1.0 0.0729892877
C  C81  1  0.05570000  0.28570000  0.09380000  1.0 0.0788950251
C  C82  1  0.28570000  0.05570000  0.40620000  1.0 0.0788950251
C  C83  1  0.94430000  0.71430000  0.90620000  1.0 0.0788950251
C  C84  1  0.71430000  0.94430000  0.59380000  1.0 0.0788950251
C  C85  1  0.19940000  0.53840000  0.50600000  1.0 0.0788950251
C  C86  1  0.53840000  0.19940000  0.99400000  1.0 0.0788950251
C  C87  1  0.80060000  0.46160000  0.49400000  1.0 0.0788950251
C  C88  1  0.46160000  0.80060000  0.00600000  1.0 0.0788950251
S  S1  1  0.84477000  0.28733000  0.37617000  1.0 -0.5172960732
S  S2  1  0.28733000  0.84477000  0.12383000  1.0 -0.5172960732
S  S3  1  0.15523000  0.71267000  0.62383000  1.0 -0.5172960732
S  S4  1  0.71267000  0.15523000  0.87617000  1.0 -0.5172960732
S  S5  1  0.09156000  0.30380000  0.37141000  1.0 -0.4418993268
S  S6  1  0.30380000  0.09156000  0.12859000  1.0 -0.4418993268
S  S7  1  0.90844000  0.69620000  0.62859000  1.0 -0.4418993268
S  S8  1  0.69620000  0.90844000  0.87141000  1.0 -0.4418993268
S  S9  1  0.83711000  0.09309000  0.27044000  1.0 -0.492758033
S  S10  1  0.09309000  0.83711000  0.22956000  1.0 -0.492758033
S  S11  1  0.16289000  0.90691000  0.72956000  1.0 -0.492758033
S  S12  1  0.90691000  0.16289000  0.77044000  1.0 -0.492758033
N  N1  1  0.15774000  0.67826000  0.83150000  1.0 -0.2176271651
N  N2  1  0.67826000  0.15774000  0.66850000  1.0 -0.2176271651
N  N3  1  0.84226000  0.32174000  0.16850000  1.0 -0.2176271651
N  N4  1  0.32174000  0.84226000  0.33150000  1.0 -0.2176271651
N  N5  1  0.12789000  0.62491000  0.27860000  1.0 -0.353970227
N  N6  1  0.62491000  0.12789000  0.22140000  1.0 -0.353970227
N  N7  1  0.87211000  0.37509000  0.72140000  1.0 -0.353970227
N  N8  1  0.37509000  0.87211000  0.77860000  1.0 -0.353970227
N  N9  1  0.09457000  0.45643000  0.49390000  1.0 -0.1890410026
N  N10  1  0.45643000  0.09457000  0.00610000  1.0 -0.1890410026
N  N11  1  0.90543000  0.54357000  0.50610000  1.0 -0.1890410026
N  N12  1  0.54357000  0.90543000  0.99390000  1.0 -0.1890410026
N  N13  1  0.06526000  0.31314000  0.16540000  1.0 -0.1999465788
N  N14  1  0.31314000  0.06526000  0.33460000  1.0 -0.1999465788
N  N15  1  0.93474000  0.68686000  0.83460000  1.0 -0.1999465788
N  N16  1  0.68686000  0.93474000  0.66540000  1.0 -0.1999465788
N  N17  1  0.36410000  0.56250000  0.87280000  1.0 -0.2659449103
N  N18  1  0.56250000  0.36410000  0.62720000  1.0 -0.2659449103
N  N19  1  0.63590000  0.43750000  0.12720000  1.0 -0.2659449103
N  N20  1  0.43750000  0.63590000  0.37280000  1.0 -0.2659449103
N  N21  1  0.07830000  0.12410000  0.24830000  1.0 -0.1260763355
N  N22  1  0.12410000  0.07830000  0.25170000  1.0 -0.1260763355
N  N23  1  0.92170000  0.87590000  0.75170000  1.0 -0.1191088188
N  N24  1  0.87590000  0.92170000  0.74830000  1.0 -0.1260763355
