# DDEC6 charges by PACMAN v1.1 (https://github.com/mtap-research/PACMAN-charge/)
data_JOBXEG_FSR_pacman
_symmetry_space_group_name_H-M   'P 1'
_cell_length_a   17.02200000
_cell_length_b   17.51600000
_cell_length_c   21.61900000
_cell_angle_alpha   92.36000000
_cell_angle_beta   104.77000000
_cell_angle_gamma   106.55000000
_symmetry_Int_Tables_number   1
_chemical_formula_structural   Er6Cu6H42C50S5N6O29
_chemical_formula_sum   'Er12 Cu12 H84 C100 S10 N12 O58'
_cell_volume   5929.45498740
_cell_formula_units_Z   2
loop_
 _symmetry_equiv_pos_site_id
 _symmetry_equiv_pos_as_xyz
  1  'x, y, z'
loop_
 _atom_site_type_symbol
 _atom_site_label
 _atom_site_symmetry_multiplicity
 _atom_site_fract_x
 _atom_site_fract_y
 _atom_site_fract_z
 _atom_site_occupancy
 _atom_site_charge
Er  Er1  1  0.50180000  0.74610000  0.70540000  1.0 2.1645576693
Er  Er2  1  0.62570000  0.79050000  0.90867000  1.0 2.1680389382
Er  Er3  1  0.62520000  0.79944000  0.91057000  1.0 2.1680389382
Er  Er4  1  0.61487000  0.78600000  0.90341000  1.0 2.1516109444
Er  Er5  1  0.49630000  0.73648000  0.69977000  1.0 2.1770732142
Er  Er6  1  0.51190000  0.74640000  0.70790000  1.0 2.1516109444
Er  Er7  1  0.49820000  0.25390000  0.29460000  1.0 2.1645576693
Er  Er8  1  0.37430000  0.20950000  0.09133000  1.0 2.1680389382
Er  Er9  1  0.37480000  0.20056000  0.08943000  1.0 2.1680389382
Er  Er10  1  0.38513000  0.21400000  0.09659000  1.0 2.1516109444
Er  Er11  1  0.50370000  0.26352000  0.30023000  1.0 2.1770732142
Er  Er12  1  0.48810000  0.25360000  0.29210000  1.0 2.1516109444
Cu  Cu1  1  0.06411000  0.77076000  0.80687000  1.0 0.5360715128
Cu  Cu2  1  0.63466000  0.28643000  0.81180000  1.0 0.4361769818
Cu  Cu3  1  0.60139000  0.78826000  0.31700000  1.0 0.4610043428
Cu  Cu4  1  0.07147000  0.79462000  0.80946000  1.0 0.5616970993
Cu  Cu5  1  0.60354000  0.27719000  0.80831000  1.0 0.4105934963
Cu  Cu6  1  0.63178000  0.80108000  0.32637000  1.0 0.4361769818
Cu  Cu7  1  0.93589000  0.22924000  0.19313000  1.0 0.5343601442
Cu  Cu8  1  0.36534000  0.71357000  0.18820000  1.0 0.4361769818
Cu  Cu9  1  0.39861000  0.21174000  0.68300000  1.0 0.4610043428
Cu  Cu10  1  0.92853000  0.20538000  0.19054000  1.0 0.5616970993
Cu  Cu11  1  0.39646000  0.72281000  0.19169000  1.0 0.4157052971
Cu  Cu12  1  0.36822000  0.19892000  0.67363000  1.0 0.4361769818
H  H1  1  0.13990000  0.00940000  0.67840000  1.0 0.1408873474
H  H2  1  0.14680000  0.92360000  0.69040000  1.0 0.1408873474
H  H3  1  0.21960000  0.99980000  0.72920000  1.0 0.1304669517
H  H4  1  0.13460000  0.11010000  0.77820000  1.0 0.1304669517
H  H5  1  0.21530000  0.08780000  0.81550000  1.0 0.1304669517
H  H6  1  0.14040000  0.08190000  0.84670000  1.0 0.1304669517
H  H7  1  0.80750000  0.68160000  0.09840000  1.0 0.1408873474
H  H8  1  0.77510000  0.75670000  0.08850000  1.0 0.1304669517
H  H9  1  0.85970000  0.75610000  0.07250000  1.0 0.1498278459
H  H10  1  0.82560000  0.59870000  0.98830000  1.0 0.1222718134
H  H11  1  0.87500000  0.68640000  0.98010000  1.0 0.1498278459
H  H12  1  0.80340000  0.63130000  0.92170000  1.0 0.1304669517
H  H13  1  0.60920000  0.68370000  0.11370000  1.0 0.1304669517
H  H14  1  0.59370000  0.91140000  0.21830000  1.0 0.0824827552
H  H15  1  0.58610000  0.90770000  0.11010000  1.0 0.1304669517
H  H16  1  0.53640000  0.86130000  0.50800000  1.0 0.1498278459
H  H17  1  0.58810000  0.65350000  0.51520000  1.0 0.1408873474
H  H18  1  0.61890000  0.66870000  0.41800000  1.0 0.0982574876
H  H19  1  0.80360000  0.06050000  0.06270000  1.0 0.1408873474
H  H20  1  0.71260000  0.02710000  0.01360000  1.0 0.1408873474
H  H21  1  0.79160000  0.06920000  0.98920000  1.0 0.1498278459
H  H22  1  0.93560000  0.99560000  0.04620000  1.0 0.1304669517
H  H23  1  0.90510000  0.01390000  0.97520000  1.0 0.1408873474
H  H24  1  0.91210000  0.92850000  0.98850000  1.0 0.1408873474
H  H25  1  0.33010000  0.90230000  0.54250000  1.0 0.1408873474
H  H26  1  0.27070000  0.82470000  0.55980000  1.0 0.1498278459
H  H27  1  0.34680000  0.81960000  0.53320000  1.0 0.1408873474
H  H28  1  0.33750000  0.96380000  0.66760000  1.0 0.1408873474
H  H29  1  0.35860000  0.91380000  0.72460000  1.0 0.1304669517
H  H30  1  0.27700000  0.87710000  0.66640000  1.0 0.1498278459
H  H31  1  0.56610000  0.00450000  0.70680000  1.0 0.1408873474
H  H32  1  0.60700000  0.53940000  0.90930000  1.0 0.1304669517
H  H33  1  0.56310000  0.51110000  0.71620000  1.0 0.1408873474
H  H34  1  0.29680000  0.73850000  0.73590000  1.0 0.1408873474
H  H35  1  0.34960000  0.75880000  0.92980000  1.0 0.1498278459
H  H36  1  0.21650000  0.77360000  0.92020000  1.0 0.0982574876
H  H37  1  0.78120000  0.78560000  0.68200000  1.0 0.1304669517
H  H38  1  0.82840000  0.80420000  0.87620000  1.0 0.1304669517
H  H39  1  0.91790000  0.78390000  0.69450000  1.0 0.0982574876
H  H40  1  0.58490000  0.14110000  0.70680000  1.0 0.0919768549
H  H41  1  0.62370000  0.41270000  0.91210000  1.0 0.0982574876
H  H42  1  0.60350000  0.03500000  0.89830000  1.0 0.1408873474
H  H43  1  0.86010000  0.99060000  0.32160000  1.0 0.1304669517
H  H44  1  0.85320000  0.07640000  0.30960000  1.0 0.1408873474
H  H45  1  0.78040000  0.00020000  0.27080000  1.0 0.1304669517
H  H46  1  0.86540000  0.88990000  0.22180000  1.0 0.1304669517
H  H47  1  0.78470000  0.91220000  0.18450000  1.0 0.1304669517
H  H48  1  0.85960000  0.91810000  0.15330000  1.0 0.1304669517
H  H49  1  0.19250000  0.31840000  0.90160000  1.0 0.1408873474
H  H50  1  0.22490000  0.24330000  0.91150000  1.0 0.1304669517
H  H51  1  0.14030000  0.24390000  0.92750000  1.0 0.1498278459
H  H52  1  0.17440000  0.40130000  0.01170000  1.0 0.1222718134
H  H53  1  0.12500000  0.31360000  0.01990000  1.0 0.1498278459
H  H54  1  0.19660000  0.36870000  0.07830000  1.0 0.1304669517
H  H55  1  0.39080000  0.31630000  0.88630000  1.0 0.1304669517
H  H56  1  0.40630000  0.08860000  0.78170000  1.0 0.0824827552
H  H57  1  0.41390000  0.09230000  0.88990000  1.0 0.1304669517
H  H58  1  0.46360000  0.13870000  0.49200000  1.0 0.1498278459
H  H59  1  0.41190000  0.34650000  0.48480000  1.0 0.1408873474
H  H60  1  0.38110000  0.33130000  0.58200000  1.0 0.0982574876
H  H61  1  0.19640000  0.93950000  0.93730000  1.0 0.1408873474
H  H62  1  0.28740000  0.97290000  0.98640000  1.0 0.1408873474
H  H63  1  0.20840000  0.93080000  0.01080000  1.0 0.1498278459
H  H64  1  0.06440000  0.00440000  0.95380000  1.0 0.1304669517
H  H65  1  0.09490000  0.98610000  0.02480000  1.0 0.1408873474
H  H66  1  0.08790000  0.07150000  0.01150000  1.0 0.1408873474
H  H67  1  0.66990000  0.09770000  0.45750000  1.0 0.1408873474
H  H68  1  0.72930000  0.17530000  0.44020000  1.0 0.1498278459
H  H69  1  0.65320000  0.18040000  0.46680000  1.0 0.1408873474
H  H70  1  0.66250000  0.03620000  0.33240000  1.0 0.1408873474
H  H71  1  0.64140000  0.08620000  0.27540000  1.0 0.1304669517
H  H72  1  0.72300000  0.12290000  0.33360000  1.0 0.1498278459
H  H73  1  0.43390000  0.99550000  0.29320000  1.0 0.1408873474
H  H74  1  0.39300000  0.46060000  0.09070000  1.0 0.1304669517
H  H75  1  0.43690000  0.48890000  0.28380000  1.0 0.1408873474
H  H76  1  0.70320000  0.26150000  0.26410000  1.0 0.1408873474
H  H77  1  0.65040000  0.24120000  0.07020000  1.0 0.1498278459
H  H78  1  0.78350000  0.22640000  0.07980000  1.0 0.0982574876
H  H79  1  0.21880000  0.21440000  0.31800000  1.0 0.1304669517
H  H80  1  0.17160000  0.19580000  0.12380000  1.0 0.1304669517
H  H81  1  0.08210000  0.21610000  0.30550000  1.0 0.0982574876
H  H82  1  0.41510000  0.85890000  0.29320000  1.0 0.0919768549
H  H83  1  0.37630000  0.58730000  0.08790000  1.0 0.0982574876
H  H84  1  0.39650000  0.96500000  0.10170000  1.0 0.1408873474
C  C1  1  0.99410000  0.80450000  0.90370000  1.0 0.4830736704
C  C2  1  0.15920000  0.97730000  0.71030000  1.0 -0.6028605961
C  C3  1  0.15450000  0.07500000  0.80700000  1.0 -0.6083122157
C  C4  1  0.80350000  0.72390000  0.07200000  1.0 -0.5189282113
C  C5  1  0.82080000  0.64530000  0.96760000  1.0 -0.5097291582
C  C6  1  0.59770000  0.79520000  0.09930000  1.0 0.0603624371
C  C7  1  0.59920000  0.79360000  0.03060000  1.0 0.3461995012
C  C8  1  0.60650000  0.73050000  0.13380000  1.0 -0.150031142
C  C9  1  0.59750000  0.86590000  0.19700000  1.0 0.0189221518
C  C10  1  0.59260000  0.86420000  0.13180000  1.0 -0.1617000662
C  C11  1  0.61100000  0.73860000  0.19820000  1.0 0.0314403288
C  C12  1  0.62120000  0.67330000  0.23950000  1.0 0.4973871049
C  C13  1  0.57360000  0.89910000  0.39490000  1.0 0.4830736704
C  C14  1  0.53430000  0.74930000  0.58360000  1.0 0.4105934963
C  C15  1  0.55620000  0.75560000  0.52120000  1.0 0.0485995151
C  C16  1  0.55300000  0.82120000  0.49040000  1.0 -0.129746181
C  C17  1  0.57380000  0.82830000  0.43360000  1.0 0.0603624371
C  C18  1  0.58320000  0.69820000  0.49460000  1.0 -0.150031142
C  C19  1  0.60260000  0.70840000  0.43660000  1.0 0.0824827552
C  C20  1  0.77250000  0.03530000  0.01970000  1.0 -0.5281026028
C  C21  1  0.89820000  0.97370000  0.00390000  1.0 -0.5281026028
C  C22  1  0.32810000  0.85220000  0.55960000  1.0 -0.5001835787
C  C23  1  0.33520000  0.91100000  0.67890000  1.0 -0.5594779216
C  C24  1  0.56700000  0.91480000  0.80360000  1.0 0.4157052971
C  C25  1  0.58040000  0.00390000  0.80190000  1.0 0.0189221518
C  C26  1  0.57660000  0.03670000  0.74520000  1.0 -0.129746181
C  C27  1  0.61050000  0.13380000  0.85540000  1.0 0.0485995151
C  C28  1  0.62760000  0.19450000  0.91320000  1.0 0.4853736497
C  C29  1  0.56810000  0.62090000  0.80850000  1.0 0.4973871049
C  C30  1  0.58080000  0.53820000  0.81230000  1.0 0.0189221518
C  C31  1  0.60060000  0.50860000  0.87120000  1.0 -0.1382464655
C  C32  1  0.57410000  0.49210000  0.75600000  1.0 -0.1201746986
C  C33  1  0.28140000  0.74530000  0.77360000  1.0 -0.129746181
C  C34  1  0.33770000  0.74740000  0.83400000  1.0 0.0189221518
C  C35  1  0.31320000  0.75780000  0.88940000  1.0 -0.1201746986
C  C36  1  0.20300000  0.75380000  0.77160000  1.0 0.0603624371
C  C37  1  0.23320000  0.76670000  0.88320000  1.0 0.0717556681
C  C38  1  0.13670000  0.75630000  0.71010000  1.0 0.4973871049
C  C39  1  0.92700000  0.80100000  0.84160000  1.0 0.0717556681
C  C40  1  0.78830000  0.79380000  0.77790000  1.0 0.0314403288
C  C41  1  0.81730000  0.78870000  0.72300000  1.0 -0.1382464655
C  C42  1  0.84530000  0.80040000  0.83880000  1.0 -0.129746181
C  C43  1  0.89900000  0.78820000  0.73080000  1.0 0.0189221518
C  C44  1  0.58880000  0.11900000  0.74550000  1.0 0.0717556681
C  C45  1  0.61070000  0.43280000  0.87280000  1.0 0.0314403288
C  C46  1  0.58440000  0.41610000  0.76150000  1.0 0.0717556681
C  C47  1  0.57840000  0.36010000  0.70470000  1.0 0.466744516
C  C48  1  0.42680000  0.74480000  0.83870000  1.0 0.4610043428
C  C49  1  0.69690000  0.78990000  0.77150000  1.0 0.4105934963
C  C50  1  0.59910000  0.05510000  0.85890000  1.0 -0.1382464655
C  C51  1  0.00590000  0.19550000  0.09630000  1.0 0.4830736704
C  C52  1  0.84080000  0.02270000  0.28970000  1.0 -0.6028605961
C  C53  1  0.84550000  0.92500000  0.19300000  1.0 -0.6083122157
C  C54  1  0.19650000  0.27610000  0.92800000  1.0 -0.5189282113
C  C55  1  0.17920000  0.35470000  0.03240000  1.0 -0.5097291582
C  C56  1  0.40230000  0.20480000  0.90070000  1.0 0.0603624371
C  C57  1  0.40080000  0.20640000  0.96940000  1.0 0.3461995012
C  C58  1  0.39350000  0.26950000  0.86620000  1.0 -0.150031142
C  C59  1  0.40250000  0.13410000  0.80300000  1.0 0.0189221518
C  C60  1  0.40740000  0.13580000  0.86820000  1.0 -0.1617000662
C  C61  1  0.38900000  0.26140000  0.80180000  1.0 0.0314403288
C  C62  1  0.37880000  0.32670000  0.76050000  1.0 0.4973871049
C  C63  1  0.42640000  0.10090000  0.60510000  1.0 0.4830736704
C  C64  1  0.46570000  0.25070000  0.41640000  1.0 0.4105934963
C  C65  1  0.44380000  0.24440000  0.47880000  1.0 0.0485995151
C  C66  1  0.44700000  0.17880000  0.50960000  1.0 -0.129746181
C  C67  1  0.42620000  0.17170000  0.56640000  1.0 0.0603624371
C  C68  1  0.41680000  0.30180000  0.50540000  1.0 -0.150031142
C  C69  1  0.39740000  0.29160000  0.56340000  1.0 0.0824827552
C  C70  1  0.22750000  0.96470000  0.98030000  1.0 -0.5281026028
C  C71  1  0.10180000  0.02630000  0.99610000  1.0 -0.5281026028
C  C72  1  0.67190000  0.14780000  0.44040000  1.0 -0.5001835787
C  C73  1  0.66480000  0.08900000  0.32110000  1.0 -0.5594779216
C  C74  1  0.43300000  0.08520000  0.19640000  1.0 0.4105934963
C  C75  1  0.41960000  0.99610000  0.19810000  1.0 0.0189221518
C  C76  1  0.42340000  0.96330000  0.25480000  1.0 -0.129746181
C  C77  1  0.38950000  0.86620000  0.14460000  1.0 0.0485995151
C  C78  1  0.37240000  0.80550000  0.08680000  1.0 0.4853736497
C  C79  1  0.43190000  0.37910000  0.19150000  1.0 0.4973871049
C  C80  1  0.41920000  0.46180000  0.18770000  1.0 0.0189221518
C  C81  1  0.39940000  0.49140000  0.12880000  1.0 -0.1382464655
C  C82  1  0.42590000  0.50790000  0.24400000  1.0 -0.1201746986
C  C83  1  0.71860000  0.25470000  0.22640000  1.0 -0.129746181
C  C84  1  0.66230000  0.25260000  0.16600000  1.0 0.0314403288
C  C85  1  0.68680000  0.24220000  0.11060000  1.0 -0.1201746986
C  C86  1  0.79700000  0.24620000  0.22840000  1.0 0.0603624371
C  C87  1  0.76680000  0.23330000  0.11680000  1.0 0.0717556681
C  C88  1  0.86330000  0.24370000  0.28990000  1.0 0.4973871049
C  C89  1  0.07300000  0.19900000  0.15840000  1.0 0.0717556681
C  C90  1  0.21170000  0.20620000  0.22210000  1.0 0.0314403288
C  C91  1  0.18270000  0.21130000  0.27700000  1.0 -0.1382464655
C  C92  1  0.15470000  0.19960000  0.16120000  1.0 -0.129746181
C  C93  1  0.10100000  0.21180000  0.26920000  1.0 0.0189221518
C  C94  1  0.41120000  0.88100000  0.25450000  1.0 0.0717556681
C  C95  1  0.38930000  0.56720000  0.12720000  1.0 0.0314403288
C  C96  1  0.41560000  0.58390000  0.23850000  1.0 0.0717556681
C  C97  1  0.42160000  0.63990000  0.29530000  1.0 0.466744516
C  C98  1  0.57320000  0.25520000  0.16130000  1.0 0.4610043428
C  C99  1  0.30310000  0.21010000  0.22850000  1.0 0.4105934963
C  C100  1  0.40090000  0.94490000  0.14110000  1.0 -0.1382464655
S  S1  1  0.74390000  0.68106000  0.99078000  1.0 0.4157052971
S  S2  1  0.39532000  0.87070000  0.63858000  1.0 0.4512891508
S  S3  1  0.78998000  0.94242000  0.00759000  1.0 0.3123263306
S  S4  1  0.10580000  0.97539000  0.77154000  1.0 0.5872533656
S  S5  1  0.36710000  0.55040000  0.69630000  1.0 0.1222718134
S  S6  1  0.25610000  0.31894000  0.00922000  1.0 0.4105934963
S  S7  1  0.60468000  0.12930000  0.36142000  1.0 0.4512891508
S  S8  1  0.21002000  0.05758000  0.99241000  1.0 0.3123263306
S  S9  1  0.89420000  0.02461000  0.22846000  1.0 0.5779074765
S  S10  1  0.63290000  0.44960000  0.30370000  1.0 0.1222718134
N  N1  1  0.17980000  0.76590000  0.82630000  1.0 -0.3112889491
N  N2  1  0.60750000  0.80580000  0.23040000  1.0 -0.2933764421
N  N3  1  0.60590000  0.16630000  0.79960000  1.0 -0.2488812358
N  N4  1  0.95270000  0.79370000  0.78860000  1.0 -0.3168616705
N  N5  1  0.59930000  0.77200000  0.40600000  1.0 -0.2720622905
N  N6  1  0.60160000  0.38840000  0.81790000  1.0 -0.2488812358
N  N7  1  0.82020000  0.23410000  0.17370000  1.0 -0.3112889491
N  N8  1  0.39250000  0.19420000  0.76960000  1.0 -0.2933764421
N  N9  1  0.39410000  0.83370000  0.20040000  1.0 -0.2488812358
N  N10  1  0.04730000  0.20630000  0.21140000  1.0 -0.3168616705
N  N11  1  0.40070000  0.22800000  0.59400000  1.0 -0.2720622905
N  N12  1  0.39840000  0.61160000  0.18210000  1.0 -0.2488812358
O  O1  1  0.62890000  0.26590000  0.89960000  1.0 -0.4334982746
O  O2  1  0.13950000  0.92460000  0.81860000  1.0 -0.6453733109
O  O3  1  0.57950000  0.65980000  0.86180000  1.0 -1.0082812496
O  O4  1  0.57500000  0.88990000  0.85670000  1.0 -0.9786933475
O  O5  1  0.54910000  0.87450000  0.74960000  1.0 -1.0082812496
O  O6  1  0.54770000  0.64140000  0.75430000  1.0 -0.9786933475
O  O7  1  0.67610000  0.79720000  0.82210000  1.0 -1.0776995682
O  O8  1  0.44510000  0.73340000  0.78810000  1.0 -1.064439442
O  O9  1  0.59990000  0.72910000  0.00230000  1.0 -0.8798145019
O  O10  1  0.47610000  0.75430000  0.89510000  1.0 -0.9786933475
O  O11  1  0.60480000  0.85670000  0.00310000  1.0 -0.8798145019
O  O12  1  0.64760000  0.77830000  0.71510000  1.0 -0.9786933475
O  O13  1  0.06350000  0.79410000  0.89710000  1.0 -0.4902823978
O  O14  1  0.38690000  0.78810000  0.66010000  1.0 -0.9993780219
O  O15  1  0.97810000  0.81460000  0.95490000  1.0 -0.4587890469
O  O16  1  0.52970000  0.81030000  0.61260000  1.0 -0.8650328182
O  O17  1  0.73810000  0.90940000  0.93890000  1.0 -0.9993780219
O  O18  1  0.52180000  0.68280000  0.60650000  1.0 -0.8798145019
O  O19  1  0.06990000  0.77010000  0.71830000  1.0 -0.5097291582
O  O20  1  0.74270000  0.75430000  0.95470000  1.0 -1.0082812496
O  O21  1  0.59170000  0.89210000  0.34140000  1.0 -0.4587890469
O  O22  1  0.62510000  0.68910000  0.29870000  1.0 -0.4484897294
O  O23  1  0.38310000  0.62960000  0.66520000  1.0 -1.0082812496
O  O24  1  0.15320000  0.74820000  0.65860000  1.0 -0.4484897294
O  O25  1  0.62650000  0.61030000  0.21580000  1.0 -0.4715088718
O  O26  1  0.63780000  0.17280000  0.96660000  1.0 -0.477957774
O  O27  1  0.55610000  0.95600000  0.41550000  1.0 -0.477957774
O  O28  1  0.57310000  0.38390000  0.65240000  1.0 -0.4587890469
O  O29  1  0.58000000  0.28920000  0.71770000  1.0 -0.4902823978
O  O30  1  0.37110000  0.73410000  0.10040000  1.0 -0.4334982746
O  O31  1  0.86050000  0.07540000  0.18140000  1.0 -0.6420895718
O  O32  1  0.42050000  0.34020000  0.13820000  1.0 -1.0082812496
O  O33  1  0.42500000  0.11010000  0.14330000  1.0 -0.9786933475
O  O34  1  0.45090000  0.12550000  0.25040000  1.0 -1.0082812496
O  O35  1  0.45230000  0.35860000  0.24570000  1.0 -0.9786933475
O  O36  1  0.32390000  0.20280000  0.17790000  1.0 -1.0776995682
O  O37  1  0.55490000  0.26660000  0.21190000  1.0 -1.0657246374
O  O38  1  0.40010000  0.27090000  0.99770000  1.0 -0.8798145019
O  O39  1  0.52390000  0.24570000  0.10490000  1.0 -0.9786933475
O  O40  1  0.39520000  0.14330000  0.99690000  1.0 -0.8798145019
O  O41  1  0.35240000  0.22170000  0.28490000  1.0 -0.9786933475
O  O42  1  0.93650000  0.20590000  0.10290000  1.0 -0.4902823978
O  O43  1  0.61310000  0.21190000  0.33990000  1.0 -0.9993780219
O  O44  1  0.02190000  0.18540000  0.04510000  1.0 -0.4587890469
O  O45  1  0.47030000  0.18970000  0.38740000  1.0 -0.8621390127
O  O46  1  0.26190000  0.09060000  0.06110000  1.0 -0.9993780219
O  O47  1  0.47820000  0.31720000  0.39350000  1.0 -0.8798145019
O  O48  1  0.93010000  0.22990000  0.28170000  1.0 -0.5097291582
O  O49  1  0.25730000  0.24570000  0.04530000  1.0 -1.0082812496
O  O50  1  0.40830000  0.10790000  0.65860000  1.0 -0.4587890469
O  O51  1  0.37490000  0.31090000  0.70130000  1.0 -0.4484897294
O  O52  1  0.61690000  0.37040000  0.33480000  1.0 -1.0082812496
O  O53  1  0.84680000  0.25180000  0.34140000  1.0 -0.4484897294
O  O54  1  0.37350000  0.38970000  0.78420000  1.0 -0.4715088718
O  O55  1  0.36220000  0.82720000  0.03340000  1.0 -0.477957774
O  O56  1  0.44390000  0.04400000  0.58450000  1.0 -0.477957774
O  O57  1  0.42690000  0.61610000  0.34760000  1.0 -0.4587890469
O  O58  1  0.42000000  0.71080000  0.28230000  1.0 -0.4902823978
