# DDEC6 charges by PACMAN v1.1 (https://github.com/mtap-research/PACMAN-charge/)
data_JOFDEQ_ASR_pacman
_symmetry_space_group_name_H-M   'P 1'
_cell_length_a   42.47060000
_cell_length_b   42.47060000
_cell_length_c   42.47060000
_cell_angle_alpha   131.05100000
_cell_angle_beta   131.05100000
_cell_angle_gamma   71.73220000
_symmetry_Int_Tables_number   1
_chemical_formula_structural   Eu9H50(C44O21)2
_chemical_formula_sum   'Eu72 H400 C704 O336'
_cell_volume   42620.99407934
_cell_formula_units_Z   8
loop_
 _symmetry_equiv_pos_site_id
 _symmetry_equiv_pos_as_xyz
  1  'x, y, z'
loop_
 _atom_site_type_symbol
 _atom_site_label
 _atom_site_symmetry_multiplicity
 _atom_site_fract_x
 _atom_site_fract_y
 _atom_site_fract_z
 _atom_site_occupancy
 _atom_site_charge
Eu  Eu1  1  0.85594000  0.33622000  0.02216000  1.0 2.2773554666
Eu  Eu2  1  0.89613000  0.45434000  0.10045000  1.0 2.2773554666
Eu  Eu3  1  0.97259000  0.39488000  0.15757000  1.0 2.2579487232
Eu  Eu4  1  0.02126000  0.48358000  0.18346000  1.0 2.2717218715
Eu  Eu5  1  0.31406000  0.83378000  0.97784000  1.0 2.2773554666
Eu  Eu6  1  0.35389000  0.79568000  0.89955000  1.0 2.2717218715
Eu  Eu7  1  0.23731000  0.81502000  0.84243000  1.0 2.2579487232
Eu  Eu8  1  0.30012000  0.83780000  0.81654000  1.0 2.2717218715
Eu  Eu9  1  0.08622000  0.56406000  0.98028000  1.0 2.2773554666
Eu  Eu10  1  0.20434000  0.60389000  0.05821000  1.0 2.2773554666
Eu  Eu11  1  0.14488000  0.48731000  0.92229000  1.0 2.2579487232
Eu  Eu12  1  0.23358000  0.55012000  0.96232000  1.0 2.2717218715
Eu  Eu13  1  0.58378000  0.10594000  0.01972000  1.0 2.2717218715
Eu  Eu14  1  0.54568000  0.14613000  0.94179000  1.0 2.2773554666
Eu  Eu15  1  0.56502000  0.22259000  0.07771000  1.0 2.2544769478
Eu  Eu16  1  0.58780000  0.27126000  0.03768000  1.0 2.2717218715
Eu  Eu17  1  0.93594000  0.41378000  0.01972000  1.0 2.2773554666
Eu  Eu18  1  0.89611000  0.29566000  0.94179000  1.0 2.2773554666
Eu  Eu19  1  0.01269000  0.35512000  0.07771000  1.0 2.2544769478
Eu  Eu20  1  0.94988000  0.26642000  0.03768000  1.0 2.2717218715
Eu  Eu21  1  0.39406000  0.91622000  0.98028000  1.0 2.2773554666
Eu  Eu22  1  0.35387000  0.95432000  0.05821000  1.0 2.2773554666
Eu  Eu23  1  0.27741000  0.93498000  0.92229000  1.0 2.2579487232
Eu  Eu24  1  0.22874000  0.91220000  0.96232000  1.0 2.2717218715
Eu  Eu25  1  0.66622000  0.18594000  0.02216000  1.0 2.2773554666
Eu  Eu26  1  0.70432000  0.14611000  0.10045000  1.0 2.2773554666
Eu  Eu27  1  0.68498000  0.26269000  0.15757000  1.0 2.2544769478
Eu  Eu28  1  0.66220000  0.19988000  0.18346000  1.0 2.2717218715
Eu  Eu29  1  0.16378000  0.64406000  0.97784000  1.0 2.2773554666
Eu  Eu30  1  0.04566000  0.60387000  0.89955000  1.0 2.2717218715
Eu  Eu31  1  0.10512000  0.52741000  0.84243000  1.0 2.2579487232
Eu  Eu32  1  0.01642000  0.47874000  0.81654000  1.0 2.2717218715
Eu  Eu33  1  0.89406000  0.91378000  0.47784000  1.0 2.2914464903
Eu  Eu34  1  0.85387000  0.79566000  0.39955000  1.0 2.2773554666
Eu  Eu35  1  0.77741000  0.85512000  0.34243000  1.0 2.2717218715
Eu  Eu36  1  0.72874000  0.76642000  0.31654000  1.0 2.2717218715
Eu  Eu37  1  0.43594000  0.41622000  0.52216000  1.0 2.2773554666
Eu  Eu38  1  0.39611000  0.45432000  0.60045000  1.0 2.2773554666
Eu  Eu39  1  0.51269000  0.43498000  0.65757000  1.0 2.2579487232
Eu  Eu40  1  0.44988000  0.41220000  0.68346000  1.0 2.2717218715
Eu  Eu41  1  0.66378000  0.68594000  0.51972000  1.0 2.2717218715
Eu  Eu42  1  0.54566000  0.64611000  0.44179000  1.0 2.2717218715
Eu  Eu43  1  0.60512000  0.76269000  0.57771000  1.0 2.2579487232
Eu  Eu44  1  0.51642000  0.69988000  0.53768000  1.0 2.2773554666
Eu  Eu45  1  0.16622000  0.14406000  0.48028000  1.0 2.2773554666
Eu  Eu46  1  0.20432000  0.10387000  0.55821000  1.0 2.2773554666
Eu  Eu47  1  0.18498000  0.02741000  0.42229000  1.0 2.2579487232
Eu  Eu48  1  0.16220000  0.97874000  0.46232000  1.0 2.2773554666
Eu  Eu49  1  0.81406000  0.83622000  0.48028000  1.0 2.2717218715
Eu  Eu50  1  0.85389000  0.95434000  0.55821000  1.0 2.2717218715
Eu  Eu51  1  0.73731000  0.89488000  0.42229000  1.0 2.2579487232
Eu  Eu52  1  0.80012000  0.98358000  0.46232000  1.0 2.2773554666
Eu  Eu53  1  0.35594000  0.33378000  0.51972000  1.0 2.2773554666
Eu  Eu54  1  0.39613000  0.29568000  0.44179000  1.0 2.2773554666
Eu  Eu55  1  0.47259000  0.31502000  0.57771000  1.0 2.2579487232
Eu  Eu56  1  0.52126000  0.33780000  0.53768000  1.0 2.2717218715
Eu  Eu57  1  0.08378000  0.06406000  0.47784000  1.0 2.2773554666
Eu  Eu58  1  0.04568000  0.10389000  0.39955000  1.0 2.2773554666
Eu  Eu59  1  0.06502000  0.98731000  0.34243000  1.0 2.2579487232
Eu  Eu60  1  0.08780000  0.05012000  0.31654000  1.0 2.2717218715
Eu  Eu61  1  0.58622000  0.60594000  0.52216000  1.0 2.2773554666
Eu  Eu62  1  0.70434000  0.64613000  0.60045000  1.0 2.2773554666
Eu  Eu63  1  0.64488000  0.72259000  0.65757000  1.0 2.2544769478
Eu  Eu64  1  0.73358000  0.77126000  0.68346000  1.0 2.2717218715
Eu  Eu65  1  0.81270000  0.37500000  0.93770000  1.0 2.2914464903
Eu  Eu66  1  0.43730000  0.87500000  0.06230000  1.0 2.295438571
Eu  Eu67  1  0.12500000  0.68730000  0.06230000  1.0 2.2914464903
Eu  Eu68  1  0.62500000  0.06270000  0.93770000  1.0 2.2914464903
Eu  Eu69  1  0.93730000  0.87500000  0.56230000  1.0 2.2914464903
Eu  Eu70  1  0.31270000  0.37500000  0.43770000  1.0 2.2914464903
Eu  Eu71  1  0.62500000  0.56270000  0.43770000  1.0 2.295438571
Eu  Eu72  1  0.12500000  0.18730000  0.56230000  1.0 2.2914464903
H  H1  1  0.73192000  0.47277000  0.94839000  1.0 0.139928607
H  H2  1  0.69657000  0.57373000  0.03412000  1.0 0.1302469613
H  H3  1  0.80889000  0.54170000  0.10951000  1.0 0.139928607
H  H4  1  0.70300000  0.59577000  0.10549000  1.0 0.1302469613
H  H5  1  0.71750000  0.65264000  0.18872000  1.0 0.139928607
H  H6  1  0.84142000  0.66602000  0.26146000  1.0 0.139928607
H  H7  1  0.82657000  0.61458000  0.17721000  1.0 0.1302469613
H  H8  1  0.69565000  0.51099000  0.90836000  1.0 0.1302469613
H  H9  1  0.63135000  0.48991000  0.82282000  1.0 0.1302469613
H  H10  1  0.56306000  0.48291000  0.85437000  1.0 0.1302469613
H  H11  1  0.62706000  0.51209000  0.94333000  1.0 0.1302469613
H  H12  1  0.72388000  0.30117000  0.94971000  1.0 0.139928607
H  H13  1  0.68996000  0.23569000  0.91675000  1.0 0.1302469613
H  H14  1  0.67822000  0.21861000  0.95081000  1.0 0.139928607
H  H15  1  0.61519000  0.31178000  0.98417000  1.0 0.139928607
H  H16  1  0.62336000  0.33158000  0.94994000  1.0 0.139928607
H  H17  1  0.68024000  0.32171000  0.84771000  1.0 0.139928607
H  H18  1  0.60671000  0.26724000  0.74441000  1.0 0.1302469613
H  H19  1  0.55320000  0.27603000  0.68047000  1.0 0.1302469613
H  H20  1  0.52903000  0.37452000  0.78253000  1.0 0.139928607
H  H21  1  0.57952000  0.35919000  0.84297000  1.0 0.139928607
H  H22  1  0.56958000  0.30869000  0.85315000  1.0 0.139928607
H  H23  1  0.57770000  0.26246000  0.83700000  1.0 0.139928607
H  H24  1  0.56024000  0.27093000  0.79687000  1.0 0.139928607
H  H25  1  0.89572000  0.42358000  0.17316000  1.0 0.0200960889
H  H26  1  0.52438000  0.78353000  0.05161000  1.0 0.139928607
H  H27  1  0.53961000  0.66245000  0.96588000  1.0 0.1302469613
H  H28  1  0.43219000  0.69938000  0.89049000  1.0 0.139928607
H  H29  1  0.49028000  0.59751000  0.89451000  1.0 0.1302469613
H  H30  1  0.46392000  0.52878000  0.81128000  1.0 0.139928607
H  H31  1  0.40456000  0.57996000  0.73854000  1.0 0.139928607
H  H32  1  0.43737000  0.64936000  0.82279000  1.0 0.1302469613
H  H33  1  0.60263000  0.78729000  0.09164000  1.0 0.1302469613
H  H34  1  0.66709000  0.80853000  0.17718000  1.0 0.1302469613
H  H35  1  0.62854000  0.70869000  0.14563000  1.0 0.1302469613
H  H36  1  0.56876000  0.68373000  0.05667000  1.0 0.1302469613
H  H37  1  0.35146000  0.77417000  0.05029000  1.0 0.139928607
H  H38  1  0.31894000  0.77321000  0.08325000  1.0 0.1302469613
H  H39  1  0.26780000  0.72741000  0.04919000  1.0 0.139928607
H  H40  1  0.32761000  0.63102000  0.01583000  1.0 0.139928607
H  H41  1  0.38164000  0.67342000  0.05006000  1.0 0.139928607
H  H42  1  0.47400000  0.83253000  0.15229000  1.0 0.139928607
H  H43  1  0.52283000  0.86230000  0.25559000  1.0 0.1302469613
H  H44  1  0.59556000  0.87273000  0.31953000  1.0 0.1302469613
H  H45  1  0.59199000  0.74650000  0.21747000  1.0 0.139928607
H  H46  1  0.51622000  0.73655000  0.15703000  1.0 0.139928607
H  H47  1  0.45554000  0.71643000  0.14685000  1.0 0.139928607
H  H48  1  0.42546000  0.74070000  0.16300000  1.0 0.139928607
H  H49  1  0.47406000  0.76337000  0.20313000  1.0 0.139928607
H  H50  1  0.25042000  0.72256000  0.82684000  1.0 0.0200960889
H  H51  1  0.22277000  0.77438000  0.24085000  1.0 0.139928607
H  H52  1  0.32373000  0.78961000  0.37716000  1.0 0.1302469613
H  H53  1  0.29170000  0.68219000  0.23281000  1.0 0.139928607
H  H54  1  0.34577000  0.74028000  0.39277000  1.0 0.1302469613
H  H55  1  0.40264000  0.71392000  0.43514000  1.0 0.139928607
H  H56  1  0.41602000  0.65456000  0.32460000  1.0 0.139928607
H  H57  1  0.36458000  0.68737000  0.28801000  1.0 0.1302469613
H  H58  1  0.26099000  0.85263000  0.31534000  1.0 0.1302469613
H  H59  1  0.23991000  0.91709000  0.35856000  1.0 0.1302469613
H  H60  1  0.23291000  0.87854000  0.41985000  1.0 0.1302469613
H  H61  1  0.26209000  0.81876000  0.38503000  1.0 0.1302469613
H  H62  1  0.05117000  0.60146000  0.07729000  1.0 0.139928607
H  H63  1  0.98569000  0.56894000  0.04573000  1.0 0.1302469613
H  H64  1  0.96861000  0.51780000  0.04039000  1.0 0.139928607
H  H65  1  0.06178000  0.57761000  0.19659000  1.0 0.139928607
H  H66  1  0.08158000  0.63164000  0.20822000  1.0 0.139928607
H  H67  1  0.07171000  0.72400000  0.14147000  1.0 0.139928607
H  H68  1  0.01724000  0.77283000  0.16053000  1.0 0.1302469613
H  H69  1  0.02603000  0.84556000  0.22283000  1.0 0.1302469613
H  H70  1  0.12452000  0.84199000  0.34549000  1.0 0.139928607
H  H71  1  0.10919000  0.76622000  0.27967000  1.0 0.139928607
H  H72  1  0.05869000  0.70554000  0.23911000  1.0 0.139928607
H  H73  1  0.01246000  0.67546000  0.18476000  1.0 0.139928607
H  H74  1  0.02093000  0.72406000  0.21069000  1.0 0.139928607
H  H75  1  0.17358000  0.50042000  0.02786000  1.0 0.0200960889
H  H76  1  0.53353000  0.98192000  0.75915000  1.0 0.139928607
H  H77  1  0.41245000  0.94657000  0.62284000  1.0 0.1302469613
H  H78  1  0.44938000  0.05889000  0.76719000  1.0 0.139928607
H  H79  1  0.34751000  0.95300000  0.60723000  1.0 0.1302469613
H  H80  1  0.27878000  0.96750000  0.56486000  1.0 0.139928607
H  H81  1  0.32996000  0.09142000  0.67540000  1.0 0.139928607
H  H82  1  0.39936000  0.07657000  0.71199000  1.0 0.1302469613
H  H83  1  0.53729000  0.94565000  0.68466000  1.0 0.1302469613
H  H84  1  0.55853000  0.88135000  0.64144000  1.0 0.1302469613
H  H85  1  0.45869000  0.81306000  0.58015000  1.0 0.1302469613
H  H86  1  0.43373000  0.87706000  0.61497000  1.0 0.1302469613
H  H87  1  0.52417000  0.97388000  0.92271000  1.0 0.139928607
H  H88  1  0.52321000  0.93996000  0.95427000  1.0 0.1302469613
H  H89  1  0.47741000  0.92822000  0.95961000  1.0 0.139928607
H  H90  1  0.38102000  0.86519000  0.80341000  1.0 0.139928607
H  H91  1  0.42342000  0.87336000  0.79178000  1.0 0.139928607
H  H92  1  0.58253000  0.93024000  0.85853000  1.0 0.139928607
H  H93  1  0.61230000  0.85671000  0.83947000  1.0 0.1302469613
H  H94  1  0.62273000  0.80320000  0.77717000  1.0 0.1302469613
H  H95  1  0.49650000  0.77903000  0.65451000  1.0 0.139928607
H  H96  1  0.48655000  0.82952000  0.72033000  1.0 0.139928607
H  H97  1  0.46643000  0.81958000  0.76089000  1.0 0.139928607
H  H98  1  0.49070000  0.82770000  0.81524000  1.0 0.139928607
H  H99  1  0.51337000  0.81024000  0.78931000  1.0 0.139928607
H  H100  1  0.47256000  0.14572000  0.97214000  1.0 0.0200960889
H  H101  1  0.72562000  0.27723000  0.75915000  1.0 0.139928607
H  H102  1  0.71039000  0.17627000  0.62284000  1.0 0.1302469613
H  H103  1  0.81781000  0.20830000  0.76719000  1.0 0.139928607
H  H104  1  0.75972000  0.15423000  0.60723000  1.0 0.1302469613
H  H105  1  0.78608000  0.09736000  0.56486000  1.0 0.139928607
H  H106  1  0.84544000  0.08398000  0.67540000  1.0 0.139928607
H  H107  1  0.81263000  0.13542000  0.71199000  1.0 0.1302469613
H  H108  1  0.64737000  0.23901000  0.68466000  1.0 0.1302469613
H  H109  1  0.58291000  0.26009000  0.64144000  1.0 0.1302469613
H  H110  1  0.62146000  0.26709000  0.58015000  1.0 0.1302469613
H  H111  1  0.68124000  0.23791000  0.61497000  1.0 0.1302469613
H  H112  1  0.89854000  0.44883000  0.92271000  1.0 0.139928607
H  H113  1  0.93106000  0.51431000  0.95427000  1.0 0.1302469613
H  H114  1  0.98220000  0.53139000  0.95961000  1.0 0.139928607
H  H115  1  0.92239000  0.43822000  0.80341000  1.0 0.139928607
H  H116  1  0.86836000  0.41842000  0.79178000  1.0 0.139928607
H  H117  1  0.77600000  0.42829000  0.85853000  1.0 0.139928607
H  H118  1  0.72717000  0.48276000  0.83947000  1.0 0.1302469613
H  H119  1  0.65444000  0.47397000  0.77717000  1.0 0.1302469613
H  H120  1  0.65801000  0.37548000  0.65451000  1.0 0.139928607
H  H121  1  0.73378000  0.39081000  0.72033000  1.0 0.139928607
H  H122  1  0.79446000  0.44131000  0.76089000  1.0 0.139928607
H  H123  1  0.82454000  0.48754000  0.81524000  1.0 0.139928607
H  H124  1  0.77594000  0.47907000  0.78931000  1.0 0.139928607
H  H125  1  0.99958000  0.32642000  0.97214000  1.0 0.0200960889
H  H126  1  0.51808000  0.96647000  0.24085000  1.0 0.139928607
H  H127  1  0.55343000  0.08755000  0.37716000  1.0 0.1302469613
H  H128  1  0.44111000  0.05062000  0.23281000  1.0 0.139928607
H  H129  1  0.54700000  0.15249000  0.39277000  1.0 0.1302469613
H  H130  1  0.53250000  0.22122000  0.43514000  1.0 0.139928607
H  H131  1  0.40858000  0.17004000  0.32460000  1.0 0.139928607
H  H132  1  0.42343000  0.10064000  0.28801000  1.0 0.1302469613
H  H133  1  0.55435000  0.96271000  0.31534000  1.0 0.1302469613
H  H134  1  0.61865000  0.94147000  0.35856000  1.0 0.1302469613
H  H135  1  0.68694000  0.04131000  0.41985000  1.0 0.1302469613
H  H136  1  0.62294000  0.06627000  0.38503000  1.0 0.1302469613
H  H137  1  0.52612000  0.97583000  0.07729000  1.0 0.139928607
H  H138  1  0.56004000  0.97679000  0.04573000  1.0 0.1302469613
H  H139  1  0.57178000  0.02259000  0.04039000  1.0 0.139928607
H  H140  1  0.63481000  0.11898000  0.19659000  1.0 0.139928607
H  H141  1  0.62664000  0.07658000  0.20822000  1.0 0.139928607
H  H142  1  0.56976000  0.91747000  0.14147000  1.0 0.139928607
H  H143  1  0.64329000  0.88770000  0.16053000  1.0 0.1302469613
H  H144  1  0.69680000  0.87727000  0.22283000  1.0 0.1302469613
H  H145  1  0.72097000  0.00350000  0.34549000  1.0 0.139928607
H  H146  1  0.67048000  0.01345000  0.27967000  1.0 0.139928607
H  H147  1  0.68042000  0.03357000  0.23911000  1.0 0.139928607
H  H148  1  0.67230000  0.00930000  0.18476000  1.0 0.139928607
H  H149  1  0.68976000  0.98663000  0.21069000  1.0 0.139928607
H  H150  1  0.35428000  0.02744000  0.02786000  1.0 0.0200960889
H  H151  1  0.71647000  0.97562000  0.94839000  1.0 0.139928607
H  H152  1  0.83755000  0.96039000  0.03412000  1.0 0.1302469613
H  H153  1  0.80062000  0.06781000  0.10951000  1.0 0.139928607
H  H154  1  0.90249000  0.00972000  0.10549000  1.0 0.1302469613
H  H155  1  0.97122000  0.03608000  0.18872000  1.0 0.139928607
H  H156  1  0.92004000  0.09544000  0.26146000  1.0 0.139928607
H  H157  1  0.85064000  0.06263000  0.17721000  1.0 0.1302469613
H  H158  1  0.71271000  0.89737000  0.90836000  1.0 0.1302469613
H  H159  1  0.69147000  0.83291000  0.82282000  1.0 0.1302469613
H  H160  1  0.79131000  0.87146000  0.85437000  1.0 0.1302469613
H  H161  1  0.81627000  0.93124000  0.94333000  1.0 0.1302469613
H  H162  1  0.72583000  0.14854000  0.94971000  1.0 0.139928607
H  H163  1  0.72679000  0.18106000  0.91675000  1.0 0.1302469613
H  H164  1  0.77259000  0.23220000  0.95081000  1.0 0.139928607
H  H165  1  0.86898000  0.17239000  0.98417000  1.0 0.139928607
H  H166  1  0.82658000  0.11836000  0.94994000  1.0 0.139928607
H  H167  1  0.66747000  0.02600000  0.84771000  1.0 0.139928607
H  H168  1  0.63770000  0.97717000  0.74441000  1.0 0.1302469613
H  H169  1  0.62727000  0.90444000  0.68047000  1.0 0.1302469613
H  H170  1  0.75350000  0.90801000  0.78253000  1.0 0.139928607
H  H171  1  0.76345000  0.98378000  0.84297000  1.0 0.139928607
H  H172  1  0.78357000  0.04446000  0.85315000  1.0 0.139928607
H  H173  1  0.75930000  0.07454000  0.83700000  1.0 0.139928607
H  H174  1  0.73663000  0.02594000  0.79687000  1.0 0.139928607
H  H175  1  0.77744000  0.24958000  0.17316000  1.0 0.0200960889
H  H176  1  0.02723000  0.76808000  0.05161000  1.0 0.139928607
H  H177  1  0.92627000  0.80343000  0.96588000  1.0 0.1302469613
H  H178  1  0.95830000  0.69111000  0.89049000  1.0 0.139928607
H  H179  1  0.90423000  0.79700000  0.89451000  1.0 0.1302469613
H  H180  1  0.84736000  0.78250000  0.81128000  1.0 0.139928607
H  H181  1  0.83398000  0.65858000  0.73854000  1.0 0.139928607
H  H182  1  0.88542000  0.67343000  0.82279000  1.0 0.1302469613
H  H183  1  0.98901000  0.80435000  0.09164000  1.0 0.1302469613
H  H184  1  0.01009000  0.86865000  0.17718000  1.0 0.1302469613
H  H185  1  0.01709000  0.93694000  0.14563000  1.0 0.1302469613
H  H186  1  0.98791000  0.87294000  0.05667000  1.0 0.1302469613
H  H187  1  0.19883000  0.77612000  0.05029000  1.0 0.139928607
H  H188  1  0.26431000  0.81004000  0.08325000  1.0 0.1302469613
H  H189  1  0.28139000  0.82178000  0.04919000  1.0 0.139928607
H  H190  1  0.18822000  0.88481000  0.01583000  1.0 0.139928607
H  H191  1  0.16842000  0.87664000  0.05006000  1.0 0.139928607
H  H192  1  0.17829000  0.81976000  0.15229000  1.0 0.139928607
H  H193  1  0.23276000  0.89329000  0.25559000  1.0 0.1302469613
H  H194  1  0.22397000  0.94680000  0.31953000  1.0 0.1302469613
H  H195  1  0.12548000  0.97097000  0.21747000  1.0 0.139928607
H  H196  1  0.14081000  0.92048000  0.15703000  1.0 0.139928607
H  H197  1  0.19131000  0.93042000  0.14685000  1.0 0.139928607
H  H198  1  0.23754000  0.92230000  0.16300000  1.0 0.139928607
H  H199  1  0.22907000  0.93976000  0.20313000  1.0 0.139928607
H  H200  1  0.07642000  0.60428000  0.82684000  1.0 0.0200960889
H  H201  1  0.01808000  0.77723000  0.55161000  1.0 0.139928607
H  H202  1  0.05343000  0.67627000  0.46588000  1.0 0.1302469613
H  H203  1  0.94111000  0.70830000  0.39049000  1.0 0.139928607
H  H204  1  0.04700000  0.65423000  0.39451000  1.0 0.1302469613
H  H205  1  0.03250000  0.59736000  0.31128000  1.0 0.139928607
H  H206  1  0.90858000  0.58398000  0.23854000  1.0 0.139928607
H  H207  1  0.92343000  0.63542000  0.32279000  1.0 0.1302469613
H  H208  1  0.05435000  0.73901000  0.59164000  1.0 0.1302469613
H  H209  1  0.11865000  0.76009000  0.67718000  1.0 0.1302469613
H  H210  1  0.18694000  0.76709000  0.64563000  1.0 0.1302469613
H  H211  1  0.12294000  0.73791000  0.55667000  1.0 0.1302469613
H  H212  1  0.02612000  0.94883000  0.55029000  1.0 0.139928607
H  H213  1  0.06004000  0.01431000  0.58325000  1.0 0.1302469613
H  H214  1  0.07178000  0.03139000  0.54919000  1.0 0.139928607
H  H215  1  0.13481000  0.93822000  0.51583000  1.0 0.139928607
H  H216  1  0.12664000  0.91842000  0.55006000  1.0 0.139928607
H  H217  1  0.06976000  0.92829000  0.65229000  1.0 0.139928607
H  H218  1  0.14329000  0.98276000  0.75559000  1.0 0.1302469613
H  H219  1  0.19680000  0.97397000  0.81953000  1.0 0.1302469613
H  H220  1  0.22097000  0.87548000  0.71747000  1.0 0.139928607
H  H221  1  0.17048000  0.89081000  0.65703000  1.0 0.139928607
H  H222  1  0.18042000  0.94131000  0.64685000  1.0 0.139928607
H  H223  1  0.17230000  0.98754000  0.66300000  1.0 0.139928607
H  H224  1  0.18976000  0.97907000  0.70313000  1.0 0.139928607
H  H225  1  0.85428000  0.82642000  0.32684000  1.0 0.0200960889
H  H226  1  0.22562000  0.46647000  0.44839000  1.0 0.139928607
H  H227  1  0.21039000  0.58755000  0.53412000  1.0 0.1302469613
H  H228  1  0.31781000  0.55062000  0.60951000  1.0 0.139928607
H  H229  1  0.25972000  0.65249000  0.60549000  1.0 0.1302469613
H  H230  1  0.28608000  0.72122000  0.68872000  1.0 0.139928607
H  H231  1  0.34544000  0.67004000  0.76146000  1.0 0.139928607
H  H232  1  0.31263000  0.60064000  0.67721000  1.0 0.1302469613
H  H233  1  0.14737000  0.46271000  0.40836000  1.0 0.1302469613
H  H234  1  0.08291000  0.44147000  0.32282000  1.0 0.1302469613
H  H235  1  0.12146000  0.54131000  0.35437000  1.0 0.1302469613
H  H236  1  0.18124000  0.56627000  0.44333000  1.0 0.1302469613
H  H237  1  0.39854000  0.47583000  0.44971000  1.0 0.139928607
H  H238  1  0.43106000  0.47679000  0.41675000  1.0 0.1302469613
H  H239  1  0.48220000  0.52259000  0.45081000  1.0 0.139928607
H  H240  1  0.42239000  0.61898000  0.48417000  1.0 0.139928607
H  H241  1  0.36836000  0.57658000  0.44994000  1.0 0.139928607
H  H242  1  0.27600000  0.41747000  0.34771000  1.0 0.139928607
H  H243  1  0.22717000  0.38770000  0.24441000  1.0 0.1302469613
H  H244  1  0.15444000  0.37727000  0.18047000  1.0 0.1302469613
H  H245  1  0.15801000  0.50350000  0.28253000  1.0 0.139928607
H  H246  1  0.23378000  0.51345000  0.34297000  1.0 0.139928607
H  H247  1  0.29446000  0.53357000  0.35315000  1.0 0.139928607
H  H248  1  0.32454000  0.50930000  0.33700000  1.0 0.139928607
H  H249  1  0.27594000  0.48663000  0.29687000  1.0 0.139928607
H  H250  1  0.49958000  0.52744000  0.67316000  1.0 0.0200960889
H  H251  1  0.52723000  0.47562000  0.25915000  1.0 0.139928607
H  H252  1  0.42627000  0.46039000  0.12284000  1.0 0.1302469613
H  H253  1  0.45830000  0.56781000  0.26719000  1.0 0.139928607
H  H254  1  0.40423000  0.50972000  0.10723000  1.0 0.1302469613
H  H255  1  0.34736000  0.53608000  0.06486000  1.0 0.139928607
H  H256  1  0.33398000  0.59544000  0.17540000  1.0 0.139928607
H  H257  1  0.38542000  0.56263000  0.21199000  1.0 0.1302469613
H  H258  1  0.48901000  0.39737000  0.18466000  1.0 0.1302469613
H  H259  1  0.51009000  0.33291000  0.14144000  1.0 0.1302469613
H  H260  1  0.51709000  0.37146000  0.08015000  1.0 0.1302469613
H  H261  1  0.48791000  0.43124000  0.11497000  1.0 0.1302469613
H  H262  1  0.69883000  0.64854000  0.42271000  1.0 0.139928607
H  H263  1  0.76431000  0.68106000  0.45427000  1.0 0.1302469613
H  H264  1  0.78139000  0.73220000  0.45961000  1.0 0.139928607
H  H265  1  0.68822000  0.67239000  0.30341000  1.0 0.139928607
H  H266  1  0.66842000  0.61836000  0.29178000  1.0 0.139928607
H  H267  1  0.67829000  0.52600000  0.35853000  1.0 0.139928607
H  H268  1  0.73276000  0.47717000  0.33947000  1.0 0.1302469613
H  H269  1  0.72397000  0.40444000  0.27717000  1.0 0.1302469613
H  H270  1  0.62548000  0.40801000  0.15451000  1.0 0.139928607
H  H271  1  0.64081000  0.48378000  0.22033000  1.0 0.139928607
H  H272  1  0.69131000  0.54446000  0.26089000  1.0 0.139928607
H  H273  1  0.73754000  0.57454000  0.31524000  1.0 0.139928607
H  H274  1  0.72907000  0.52594000  0.28931000  1.0 0.139928607
H  H275  1  0.57642000  0.74958000  0.47214000  1.0 0.0200960889
H  H276  1  0.21647000  0.26808000  0.74085000  1.0 0.139928607
H  H277  1  0.33755000  0.30343000  0.87716000  1.0 0.1302469613
H  H278  1  0.30062000  0.19111000  0.73281000  1.0 0.139928607
H  H279  1  0.40249000  0.29700000  0.89277000  1.0 0.1302469613
H  H280  1  0.47122000  0.28250000  0.93514000  1.0 0.139928607
H  H281  1  0.42004000  0.15858000  0.82460000  1.0 0.139928607
H  H282  1  0.35064000  0.17343000  0.78801000  1.0 0.1302469613
H  H283  1  0.21271000  0.30435000  0.81534000  1.0 0.1302469613
H  H284  1  0.19147000  0.36865000  0.85856000  1.0 0.1302469613
H  H285  1  0.29131000  0.43694000  0.91985000  1.0 0.1302469613
H  H286  1  0.31627000  0.37294000  0.88503000  1.0 0.1302469613
H  H287  1  0.22583000  0.27612000  0.57729000  1.0 0.139928607
H  H288  1  0.22679000  0.31004000  0.54573000  1.0 0.1302469613
H  H289  1  0.27259000  0.32178000  0.54039000  1.0 0.139928607
H  H290  1  0.36898000  0.38481000  0.69659000  1.0 0.139928607
H  H291  1  0.32658000  0.37664000  0.70822000  1.0 0.139928607
H  H292  1  0.16747000  0.31976000  0.64147000  1.0 0.139928607
H  H293  1  0.13770000  0.39329000  0.66053000  1.0 0.1302469613
H  H294  1  0.12727000  0.44680000  0.72283000  1.0 0.1302469613
H  H295  1  0.25350000  0.47097000  0.84549000  1.0 0.139928607
H  H296  1  0.26345000  0.42048000  0.77967000  1.0 0.139928607
H  H297  1  0.28357000  0.43042000  0.73911000  1.0 0.139928607
H  H298  1  0.25930000  0.42230000  0.68476000  1.0 0.139928607
H  H299  1  0.23663000  0.43976000  0.71069000  1.0 0.139928607
H  H300  1  0.27744000  0.10428000  0.52786000  1.0 0.0200960889
H  H301  1  0.02438000  0.97277000  0.74085000  1.0 0.139928607
H  H302  1  0.03961000  0.07373000  0.87716000  1.0 0.1302469613
H  H303  1  0.93219000  0.04170000  0.73281000  1.0 0.139928607
H  H304  1  0.99028000  0.09577000  0.89277000  1.0 0.1302469613
H  H305  1  0.96392000  0.15264000  0.93514000  1.0 0.139928607
H  H306  1  0.90456000  0.16602000  0.82460000  1.0 0.139928607
H  H307  1  0.93737000  0.11458000  0.78801000  1.0 0.1302469613
H  H308  1  0.10263000  0.01099000  0.81534000  1.0 0.1302469613
H  H309  1  0.16709000  0.98991000  0.85856000  1.0 0.1302469613
H  H310  1  0.12854000  0.98291000  0.91985000  1.0 0.1302469613
H  H311  1  0.06876000  0.01209000  0.88503000  1.0 0.1302469613
H  H312  1  0.85146000  0.80117000  0.57729000  1.0 0.139928607
H  H313  1  0.81894000  0.73569000  0.54573000  1.0 0.1302469613
H  H314  1  0.76780000  0.71861000  0.54039000  1.0 0.139928607
H  H315  1  0.82761000  0.81178000  0.69659000  1.0 0.139928607
H  H316  1  0.88164000  0.83158000  0.70822000  1.0 0.139928607
H  H317  1  0.97400000  0.82171000  0.64147000  1.0 0.139928607
H  H318  1  0.02283000  0.76724000  0.66053000  1.0 0.1302469613
H  H319  1  0.09556000  0.77603000  0.72283000  1.0 0.1302469613
H  H320  1  0.09199000  0.87452000  0.84549000  1.0 0.139928607
H  H321  1  0.01622000  0.85919000  0.77967000  1.0 0.139928607
H  H322  1  0.95554000  0.80869000  0.73911000  1.0 0.139928607
H  H323  1  0.92546000  0.76246000  0.68476000  1.0 0.139928607
H  H324  1  0.97406000  0.77093000  0.71069000  1.0 0.139928607
H  H325  1  0.75042000  0.92358000  0.52786000  1.0 0.0200960889
H  H326  1  0.23192000  0.28353000  0.25915000  1.0 0.139928607
H  H327  1  0.19657000  0.16245000  0.12284000  1.0 0.1302469613
H  H328  1  0.30889000  0.19938000  0.26719000  1.0 0.139928607
H  H329  1  0.20300000  0.09751000  0.10723000  1.0 0.1302469613
H  H330  1  0.21750000  0.02878000  0.06486000  1.0 0.139928607
H  H331  1  0.34142000  0.07996000  0.17540000  1.0 0.139928607
H  H332  1  0.32657000  0.14936000  0.21199000  1.0 0.1302469613
H  H333  1  0.19565000  0.28729000  0.18466000  1.0 0.1302469613
H  H334  1  0.13135000  0.30853000  0.14144000  1.0 0.1302469613
H  H335  1  0.06306000  0.20869000  0.08015000  1.0 0.1302469613
H  H336  1  0.12706000  0.18373000  0.11497000  1.0 0.1302469613
H  H337  1  0.22388000  0.27417000  0.42271000  1.0 0.139928607
H  H338  1  0.18996000  0.27321000  0.45427000  1.0 0.1302469613
H  H339  1  0.17822000  0.22741000  0.45961000  1.0 0.139928607
H  H340  1  0.11519000  0.13102000  0.30341000  1.0 0.139928607
H  H341  1  0.12336000  0.17342000  0.29178000  1.0 0.139928607
H  H342  1  0.18024000  0.33253000  0.35853000  1.0 0.139928607
H  H343  1  0.10671000  0.36230000  0.33947000  1.0 0.1302469613
H  H344  1  0.05320000  0.37273000  0.27717000  1.0 0.1302469613
H  H345  1  0.02903000  0.24650000  0.15451000  1.0 0.139928607
H  H346  1  0.07952000  0.23655000  0.22033000  1.0 0.139928607
H  H347  1  0.06958000  0.21643000  0.26089000  1.0 0.139928607
H  H348  1  0.07770000  0.24070000  0.31524000  1.0 0.139928607
H  H349  1  0.06024000  0.26337000  0.28931000  1.0 0.139928607
H  H350  1  0.39572000  0.22256000  0.47214000  1.0 0.0200960889
H  H351  1  0.03353000  0.27438000  0.55161000  1.0 0.139928607
H  H352  1  0.91245000  0.28961000  0.46588000  1.0 0.1302469613
H  H353  1  0.94938000  0.18219000  0.39049000  1.0 0.139928607
H  H354  1  0.84751000  0.24028000  0.39451000  1.0 0.1302469613
H  H355  1  0.77878000  0.21392000  0.31128000  1.0 0.139928607
H  H356  1  0.82996000  0.15456000  0.23854000  1.0 0.139928607
H  H357  1  0.89936000  0.18737000  0.32279000  1.0 0.1302469613
H  H358  1  0.03729000  0.35263000  0.59164000  1.0 0.1302469613
H  H359  1  0.05853000  0.41709000  0.67718000  1.0 0.1302469613
H  H360  1  0.95869000  0.37854000  0.64563000  1.0 0.1302469613
H  H361  1  0.93373000  0.31876000  0.55667000  1.0 0.1302469613
H  H362  1  0.02417000  0.10146000  0.55029000  1.0 0.139928607
H  H363  1  0.02321000  0.06894000  0.58325000  1.0 0.1302469613
H  H364  1  0.97741000  0.01780000  0.54919000  1.0 0.139928607
H  H365  1  0.88102000  0.07761000  0.51583000  1.0 0.139928607
H  H366  1  0.92342000  0.13164000  0.55006000  1.0 0.139928607
H  H367  1  0.08253000  0.22400000  0.65229000  1.0 0.139928607
H  H368  1  0.11230000  0.27283000  0.75559000  1.0 0.1302469613
H  H369  1  0.12273000  0.34556000  0.81953000  1.0 0.1302469613
H  H370  1  0.99650000  0.34199000  0.71747000  1.0 0.139928607
H  H371  1  0.98655000  0.26622000  0.65703000  1.0 0.139928607
H  H372  1  0.96643000  0.20554000  0.64685000  1.0 0.139928607
H  H373  1  0.99070000  0.17546000  0.66300000  1.0 0.139928607
H  H374  1  0.01337000  0.22406000  0.70313000  1.0 0.139928607
H  H375  1  0.97256000  0.00042000  0.32684000  1.0 0.0200960889
H  H376  1  0.72277000  0.48192000  0.44839000  1.0 0.139928607
H  H377  1  0.82373000  0.44657000  0.53412000  1.0 0.1302469613
H  H378  1  0.79170000  0.55889000  0.60951000  1.0 0.139928607
H  H379  1  0.84577000  0.45300000  0.60549000  1.0 0.1302469613
H  H380  1  0.90264000  0.46750000  0.68872000  1.0 0.139928607
H  H381  1  0.91602000  0.59142000  0.76146000  1.0 0.139928607
H  H382  1  0.86458000  0.57657000  0.67721000  1.0 0.1302469613
H  H383  1  0.76099000  0.44565000  0.40836000  1.0 0.1302469613
H  H384  1  0.73991000  0.38135000  0.32282000  1.0 0.1302469613
H  H385  1  0.73291000  0.31306000  0.35437000  1.0 0.1302469613
H  H386  1  0.76209000  0.37706000  0.44333000  1.0 0.1302469613
H  H387  1  0.55117000  0.47388000  0.44971000  1.0 0.139928607
H  H388  1  0.48569000  0.43996000  0.41675000  1.0 0.1302469613
H  H389  1  0.46861000  0.42822000  0.45081000  1.0 0.139928607
H  H390  1  0.56178000  0.36519000  0.48417000  1.0 0.139928607
H  H391  1  0.58158000  0.37336000  0.44994000  1.0 0.139928607
H  H392  1  0.57171000  0.43024000  0.34771000  1.0 0.139928607
H  H393  1  0.51724000  0.35671000  0.24441000  1.0 0.1302469613
H  H394  1  0.52603000  0.30320000  0.18047000  1.0 0.1302469613
H  H395  1  0.62452000  0.27903000  0.28253000  1.0 0.139928607
H  H396  1  0.60919000  0.32952000  0.34297000  1.0 0.139928607
H  H397  1  0.55869000  0.31958000  0.35315000  1.0 0.139928607
H  H398  1  0.51246000  0.32770000  0.33700000  1.0 0.139928607
H  H399  1  0.52093000  0.31024000  0.29687000  1.0 0.139928607
H  H400  1  0.67358000  0.64572000  0.67316000  1.0 0.0200960889
C  C1  1  0.80450000  0.47380000  0.02510000  1.0 0.6588291592
C  C2  1  0.77360000  0.50330000  0.02810000  1.0 0.0200960889
C  C3  1  0.73710000  0.49560000  0.98150000  1.0 -0.1529683861
C  C4  1  0.70760000  0.52130000  0.98290000  1.0 0.0895286923
C  C5  1  0.71640000  0.55570000  0.03290000  1.0 -0.1846129912
C  C6  1  0.75450000  0.56360000  0.08130000  1.0 0.0966807353
C  C7  1  0.78290000  0.53700000  0.07790000  1.0 -0.1529683861
C  C8  1  0.76360000  0.59790000  0.13410000  1.0 0.0895286923
C  C9  1  0.73160000  0.61010000  0.13730000  1.0 -0.1333640641
C  C10  1  0.74020000  0.64390000  0.18710000  1.0 -0.070650111
C  C11  1  0.78190000  0.66410000  0.23340000  1.0 -0.0024436739
C  C12  1  0.78950000  0.70000000  0.28530000  1.0 0.6588291592
C  C13  1  0.81270000  0.65250000  0.22960000  1.0 -0.070650111
C  C14  1  0.80420000  0.62020000  0.17920000  1.0 -0.1333640641
C  C15  1  0.66730000  0.51180000  0.93270000  1.0 0.0815518152
C  C16  1  0.66890000  0.50620000  0.89810000  1.0 -0.1408739658
C  C17  1  0.63030000  0.49320000  0.84650000  1.0 -0.0791552806
C  C18  1  0.59210000  0.48550000  0.83160000  1.0 -0.0184626672
C  C19  1  0.55110000  0.46880000  0.77670000  1.0 0.6588291592
C  C20  1  0.58960000  0.49000000  0.86580000  1.0 -0.070650111
C  C21  1  0.62820000  0.50570000  0.91810000  1.0 -0.1408739658
C  C22  1  0.75109000  0.32359000  0.92450000  1.0 0.6699818932
C  C23  1  0.70870000  0.31330000  0.90260000  1.0 -0.0527592576
C  C24  1  0.70055000  0.30285000  0.92210000  1.0 -0.1224734224
C  C25  1  0.66021000  0.29491000  0.90290000  1.0 -0.0024436739
C  C26  1  0.65461000  0.28351000  0.92550000  1.0 0.1204550153
C  C27  1  0.67390000  0.25070000  0.92900000  1.0 -0.1554853934
C  C28  1  0.66795000  0.24195000  0.95080000  1.0 -0.070650111
C  C29  1  0.64833000  0.26513000  0.97240000  1.0 0.0028228008
C  C30  1  0.64210000  0.25460000  0.99670000  1.0 0.6699818932
C  C31  1  0.63030000  0.29700000  0.97050000  1.0 -0.0791552806
C  C32  1  0.63420000  0.30800000  0.94920000  1.0 -0.1408739658
C  C33  1  0.62530000  0.29670000  0.86160000  1.0 0.1204550153
C  C34  1  0.63343000  0.30783000  0.84080000  1.0 0.0334913276
C  C35  1  0.67487000  0.31527000  0.86160000  1.0 -0.1333640641
C  C36  1  0.59816000  0.31396000  0.80020000  1.0 0.0895286923
C  C37  1  0.59040000  0.28830000  0.75150000  1.0 -0.1333640641
C  C38  1  0.55910000  0.29380000  0.71410000  1.0 -0.0791552806
C  C39  1  0.53553000  0.32513000  0.72460000  1.0 -0.0024436739
C  C40  1  0.50480000  0.33350000  0.68510000  1.0 0.6588291592
C  C41  1  0.54370000  0.35190000  0.77400000  1.0 -0.0791552806
C  C42  1  0.57500000  0.34360000  0.81060000  1.0 -0.1408739658
C  C43  1  0.57900000  0.28350000  0.83470000  1.0 -0.427395558
C  C44  1  0.87690000  0.41890000  0.14020000  1.0 0.5182607752
C  C45  1  0.44870000  0.77940000  0.97490000  1.0 0.6588291592
C  C46  1  0.47520000  0.74550000  0.97190000  1.0 0.0200960889
C  C47  1  0.51410000  0.75560000  0.01850000  1.0 -0.1529683861
C  C48  1  0.53840000  0.72470000  0.01710000  1.0 0.0895286923
C  C49  1  0.52280000  0.68350000  0.96710000  1.0 -0.1846129912
C  C50  1  0.48230000  0.67320000  0.91870000  1.0 0.0966807353
C  C51  1  0.45910000  0.70500000  0.92210000  1.0 -0.1529683861
C  C52  1  0.46380000  0.62950000  0.86590000  1.0 0.0895286923
C  C53  1  0.47280000  0.59430000  0.86270000  1.0 -0.1333640641
C  C54  1  0.45680000  0.55310000  0.81290000  1.0 -0.0644227425
C  C55  1  0.43070000  0.54850000  0.76660000  1.0 -0.0024436739
C  C56  1  0.41470000  0.50420000  0.71470000  1.0 0.6588291592
C  C57  1  0.42290000  0.58310000  0.77040000  1.0 -0.070650111
C  C58  1  0.44100000  0.62500000  0.82080000  1.0 -0.1333640641
C  C59  1  0.57910000  0.73460000  0.06730000  1.0 0.0815518152
C  C60  1  0.60810000  0.77080000  0.10190000  1.0 -0.1408739658
C  C61  1  0.64670000  0.78380000  0.15350000  1.0 -0.0791552806
C  C62  1  0.65390000  0.76050000  0.16840000  1.0 -0.0184626672
C  C63  1  0.69210000  0.77440000  0.22330000  1.0 0.6588291592
C  C64  1  0.62420000  0.72380000  0.13420000  1.0 -0.070650111
C  C65  1  0.58760000  0.71010000  0.08190000  1.0 -0.1408739658
C  C66  1  0.39909000  0.82659000  0.07550000  1.0 0.6699818932
C  C67  1  0.41070000  0.80610000  0.09740000  1.0 -0.0527592576
C  C68  1  0.38075000  0.77845000  0.07790000  1.0 -0.1224734224
C  C69  1  0.39201000  0.75731000  0.09710000  1.0 -0.0024436739
C  C70  1  0.35801000  0.72911000  0.07450000  1.0 0.1204550153
C  C71  1  0.32170000  0.74490000  0.07100000  1.0 -0.1554853934
C  C72  1  0.29115000  0.71715000  0.04920000  1.0 -0.070650111
C  C73  1  0.29273000  0.67593000  0.02760000  1.0 0.0028228008
C  C74  1  0.25790000  0.64540000  0.00330000  1.0 0.6699818932
C  C75  1  0.32650000  0.65980000  0.02950000  1.0 -0.0791552806
C  C76  1  0.35880000  0.68500000  0.05080000  1.0 -0.1408739658
C  C77  1  0.43510000  0.76370000  0.13840000  1.0 0.1204550153
C  C78  1  0.46703000  0.79263000  0.15920000  1.0 0.0334913276
C  C79  1  0.45367000  0.81327000  0.13840000  1.0 -0.1333640641
C  C80  1  0.51376000  0.79796000  0.19980000  1.0 0.0815518152
C  C81  1  0.53680000  0.83890000  0.24850000  1.0 -0.1333640641
C  C82  1  0.57970000  0.84500000  0.28590000  1.0 -0.0791552806
C  C83  1  0.60053000  0.81093000  0.27540000  1.0 -0.0024436739
C  C84  1  0.64840000  0.81970000  0.31490000  1.0 0.6588291592
C  C85  1  0.57790000  0.76970000  0.22600000  1.0 -0.0791552806
C  C86  1  0.53300000  0.76440000  0.18940000  1.0 -0.1408739658
C  C87  1  0.44880000  0.74430000  0.16530000  1.0 -0.427395558
C  C88  1  0.27870000  0.73670000  0.85980000  1.0 0.5182607752
C  C89  1  0.22380000  0.69870000  0.16930000  1.0 0.6588291592
C  C90  1  0.25330000  0.72520000  0.22970000  1.0 0.0200960889
C  C91  1  0.24560000  0.76410000  0.25850000  1.0 -0.1554853934
C  C92  1  0.27130000  0.78840000  0.31370000  1.0 0.0895286923
C  C93  1  0.30570000  0.77280000  0.33930000  1.0 -0.1855114269
C  C94  1  0.31360000  0.73230000  0.30910000  1.0 0.0966807353
C  C95  1  0.28700000  0.70910000  0.25410000  1.0 -0.1529683861
C  C96  1  0.34790000  0.71380000  0.33430000  1.0 0.0895286923
C  C97  1  0.36010000  0.72280000  0.37850000  1.0 -0.1333640641
C  C98  1  0.39390000  0.70680000  0.40370000  1.0 -0.0644227425
C  C99  1  0.41410000  0.68070000  0.38220000  1.0 -0.0024436739
C  C100  1  0.45000000  0.66470000  0.41050000  1.0 0.6588291592
C  C101  1  0.40250000  0.67290000  0.33980000  1.0 -0.070650111
C  C102  1  0.37020000  0.69100000  0.31600000  1.0 -0.1333640641
C  C103  1  0.26180000  0.82910000  0.34450000  1.0 0.0815518152
C  C104  1  0.25620000  0.85810000  0.33730000  1.0 -0.1408739658
C  C105  1  0.24320000  0.89670000  0.36290000  1.0 -0.0791552806
C  C106  1  0.23550000  0.90390000  0.39340000  1.0 -0.0184626672
C  C107  1  0.21880000  0.94210000  0.41770000  1.0 0.6588291592
C  C108  1  0.24000000  0.87420000  0.40040000  1.0 -0.070650111
C  C109  1  0.25570000  0.83760000  0.37750000  1.0 -0.1408739658
C  C110  1  0.07359000  0.64909000  0.07250000  1.0 0.6699818932
C  C111  1  0.06330000  0.66070000  0.10460000  1.0 -0.0527592576
C  C112  1  0.05285000  0.63075000  0.10230000  1.0 -0.1224734224
C  C113  1  0.04491000  0.64201000  0.13470000  1.0 -0.0024436739
C  C114  1  0.03351000  0.60801000  0.12890000  1.0 0.1204550153
C  C115  1  0.00070000  0.57170000  0.07680000  1.0 -0.1554853934
C  C116  1  0.99195000  0.54115000  0.07400000  1.0 -0.070650111
C  C117  1  0.01513000  0.54273000  0.11680000  1.0 0.0028228008
C  C118  1  0.00460000  0.50790000  0.11250000  1.0 0.6699818932
C  C119  1  0.04700000  0.57650000  0.16670000  1.0 -0.0791552806
C  C120  1  0.05800000  0.60880000  0.17380000  1.0 -0.1408739658
C  C121  1  0.04670000  0.68510000  0.17140000  1.0 0.1204550153
C  C122  1  0.05783000  0.71703000  0.17440000  1.0 0.0334913276
C  C123  1  0.06527000  0.70367000  0.14040000  1.0 -0.1333640641
C  C124  1  0.06396000  0.76376000  0.21580000  1.0 0.0815518152
C  C125  1  0.03830000  0.78680000  0.19790000  1.0 -0.1333640641
C  C126  1  0.04380000  0.82970000  0.23470000  1.0 -0.0791552806
C  C127  1  0.07513000  0.85053000  0.28960000  1.0 -0.0024436739
C  C128  1  0.08350000  0.89840000  0.32870000  1.0 0.6588291592
C  C129  1  0.10190000  0.82790000  0.30820000  1.0 -0.0791552806
C  C130  1  0.09360000  0.78300000  0.26860000  1.0 -0.1408739658
C  C131  1  0.03350000  0.69880000  0.20450000  1.0 -0.427395558
C  C132  1  0.16890000  0.52870000  0.04200000  1.0 0.5182607752
C  C133  1  0.52940000  0.05450000  0.83070000  1.0 0.6588291592
C  C134  1  0.49550000  0.02360000  0.77030000  1.0 0.0200960889
C  C135  1  0.50560000  0.98710000  0.74150000  1.0 -0.1529683861
C  C136  1  0.47470000  0.95760000  0.68630000  1.0 0.0895286923
C  C137  1  0.43350000  0.96640000  0.66070000  1.0 -0.1846129912
C  C138  1  0.42320000  0.00450000  0.69090000  1.0 0.0966807353
C  C139  1  0.45500000  0.03290000  0.74590000  1.0 -0.1529683861
C  C140  1  0.37950000  0.01360000  0.66570000  1.0 0.0895286923
C  C141  1  0.34430000  0.98160000  0.62150000  1.0 -0.1333640641
C  C142  1  0.30310000  0.99020000  0.59630000  1.0 -0.0644227425
C  C143  1  0.29850000  0.03190000  0.61780000  1.0 -0.0024436739
C  C144  1  0.25420000  0.03950000  0.58950000  1.0 0.6588291592
C  C145  1  0.33310000  0.06270000  0.66020000  1.0 -0.070650111
C  C146  1  0.37500000  0.05420000  0.68400000  1.0 -0.1333640641
C  C147  1  0.48460000  0.91730000  0.65550000  1.0 0.0815518152
C  C148  1  0.52080000  0.91890000  0.66270000  1.0 -0.1408739658
C  C149  1  0.53380000  0.88030000  0.63710000  1.0 -0.0791552806
C  C150  1  0.51050000  0.84210000  0.60660000  1.0 -0.0184626672
C  C151  1  0.52440000  0.80110000  0.58230000  1.0 0.6588291592
C  C152  1  0.47380000  0.83960000  0.59960000  1.0 -0.070650111
C  C153  1  0.46010000  0.87820000  0.62250000  1.0 -0.1408739658
C  C154  1  0.57659000  0.00109000  0.92750000  1.0 0.6699818932
C  C155  1  0.55610000  0.95870000  0.89540000  1.0 -0.0527592576
C  C156  1  0.52845000  0.95055000  0.89770000  1.0 -0.1224734224
C  C157  1  0.50731000  0.91021000  0.86530000  1.0 -0.0024436739
C  C158  1  0.47911000  0.90461000  0.87110000  1.0 0.1204550153
C  C159  1  0.49490000  0.92390000  0.92320000  1.0 -0.1554853934
C  C160  1  0.46715000  0.91795000  0.92600000  1.0 -0.070650111
C  C161  1  0.42593000  0.89833000  0.88320000  1.0 0.0028228008
C  C162  1  0.39540000  0.89210000  0.88750000  1.0 0.6699818932
C  C163  1  0.40980000  0.88030000  0.83330000  1.0 -0.0791552806
C  C164  1  0.43500000  0.88420000  0.82620000  1.0 -0.1408739658
C  C165  1  0.51370000  0.87530000  0.82860000  1.0 0.1204550153
C  C166  1  0.54263000  0.88343000  0.82560000  1.0 0.0334913276
C  C167  1  0.56327000  0.92487000  0.85960000  1.0 -0.1333640641
C  C168  1  0.54796000  0.84816000  0.78420000  1.0 0.0815518152
C  C169  1  0.58890000  0.84040000  0.80210000  1.0 -0.1333640641
C  C170  1  0.59500000  0.80910000  0.76530000  1.0 -0.0791552806
C  C171  1  0.56093000  0.78553000  0.71040000  1.0 -0.0024436739
C  C172  1  0.56970000  0.75480000  0.67130000  1.0 0.6588291592
C  C173  1  0.51970000  0.79370000  0.69180000  1.0 -0.0791552806
C  C174  1  0.51440000  0.82500000  0.73140000  1.0 -0.1408739658
C  C175  1  0.49430000  0.82900000  0.79550000  1.0 -0.427395558
C  C176  1  0.48670000  0.12690000  0.95800000  1.0 0.5182607752
C  C177  1  0.80130000  0.27620000  0.83070000  1.0 0.6588291592
C  C178  1  0.77480000  0.24670000  0.77030000  1.0 0.0200960889
C  C179  1  0.73590000  0.25440000  0.74150000  1.0 -0.1529683861
C  C180  1  0.71160000  0.22870000  0.68630000  1.0 0.0895286923
C  C181  1  0.72720000  0.19430000  0.66070000  1.0 -0.1846129912
C  C182  1  0.76770000  0.18640000  0.69090000  1.0 0.0966807353
C  C183  1  0.79090000  0.21300000  0.74590000  1.0 -0.1529683861
C  C184  1  0.78620000  0.15210000  0.66570000  1.0 0.0895286923
C  C185  1  0.77720000  0.13990000  0.62150000  1.0 -0.1333640641
C  C186  1  0.79320000  0.10610000  0.59630000  1.0 -0.070650111
C  C187  1  0.81930000  0.08590000  0.61780000  1.0 -0.0024436739
C  C188  1  0.83530000  0.05000000  0.58950000  1.0 0.6588291592
C  C189  1  0.82710000  0.09750000  0.66020000  1.0 -0.070650111
C  C190  1  0.80900000  0.12980000  0.68400000  1.0 -0.1333640641
C  C191  1  0.67090000  0.23820000  0.65550000  1.0 0.0815518152
C  C192  1  0.64190000  0.24380000  0.66270000  1.0 -0.1408739658
C  C193  1  0.60330000  0.25680000  0.63710000  1.0 -0.0791552806
C  C194  1  0.59610000  0.26450000  0.60660000  1.0 -0.0184626672
C  C195  1  0.55790000  0.28120000  0.58230000  1.0 0.6588291592
C  C196  1  0.62580000  0.26000000  0.59960000  1.0 -0.070650111
C  C197  1  0.66240000  0.24430000  0.62250000  1.0 -0.1408739658
C  C198  1  0.85091000  0.42641000  0.92750000  1.0 0.6699818932
C  C199  1  0.83930000  0.43670000  0.89540000  1.0 -0.0527592576
C  C200  1  0.86925000  0.44715000  0.89770000  1.0 -0.1224734224
C  C201  1  0.85799000  0.45509000  0.86530000  1.0 -0.0024436739
C  C202  1  0.89199000  0.46649000  0.87110000  1.0 0.1204550153
C  C203  1  0.92830000  0.49930000  0.92320000  1.0 -0.1554853934
C  C204  1  0.95885000  0.50805000  0.92600000  1.0 -0.070650111
C  C205  1  0.95727000  0.48487000  0.88320000  1.0 0.0028228008
C  C206  1  0.99210000  0.49540000  0.88750000  1.0 0.6699818932
C  C207  1  0.92350000  0.45300000  0.83330000  1.0 -0.0791552806
C  C208  1  0.89120000  0.44200000  0.82620000  1.0 -0.1408739658
C  C209  1  0.81490000  0.45330000  0.82860000  1.0 0.1204550153
C  C210  1  0.78297000  0.44217000  0.82560000  1.0 0.0334913276
C  C211  1  0.79633000  0.43473000  0.85960000  1.0 -0.1333640641
C  C212  1  0.73624000  0.43604000  0.78420000  1.0 0.0895286923
C  C213  1  0.71320000  0.46170000  0.80210000  1.0 -0.1333640641
C  C214  1  0.67030000  0.45620000  0.76530000  1.0 -0.0791552806
C  C215  1  0.64947000  0.42487000  0.71040000  1.0 -0.0024436739
C  C216  1  0.60160000  0.41650000  0.67130000  1.0 0.6588291592
C  C217  1  0.67210000  0.39810000  0.69180000  1.0 -0.0791552806
C  C218  1  0.71700000  0.40640000  0.73140000  1.0 -0.1408739658
C  C219  1  0.80120000  0.46650000  0.79550000  1.0 -0.427395558
C  C220  1  0.97130000  0.33110000  0.95800000  1.0 0.5182607752
C  C221  1  0.44550000  0.97060000  0.16930000  1.0 0.6588291592
C  C222  1  0.47640000  0.00450000  0.22970000  1.0 0.0200960889
C  C223  1  0.51290000  0.99440000  0.25850000  1.0 -0.1529683861
C  C224  1  0.54240000  0.02530000  0.31370000  1.0 0.0895286923
C  C225  1  0.53360000  0.06650000  0.33930000  1.0 -0.1846129912
C  C226  1  0.49550000  0.07680000  0.30910000  1.0 0.0966807353
C  C227  1  0.46710000  0.04500000  0.25410000  1.0 -0.1529683861
C  C228  1  0.48640000  0.12050000  0.33430000  1.0 0.0895286923
C  C229  1  0.51840000  0.15570000  0.37850000  1.0 -0.1333640641
C  C230  1  0.50980000  0.19690000  0.40370000  1.0 -0.0644227425
C  C231  1  0.46810000  0.20150000  0.38220000  1.0 -0.0024436739
C  C232  1  0.46050000  0.24580000  0.41050000  1.0 0.6588291592
C  C233  1  0.43730000  0.16690000  0.33980000  1.0 -0.070650111
C  C234  1  0.44580000  0.12500000  0.31600000  1.0 -0.1333640641
C  C235  1  0.58270000  0.01540000  0.34450000  1.0 0.0815518152
C  C236  1  0.58110000  0.97920000  0.33730000  1.0 -0.1408739658
C  C237  1  0.61970000  0.96620000  0.36290000  1.0 -0.0791552806
C  C238  1  0.65790000  0.98950000  0.39340000  1.0 -0.0184626672
C  C239  1  0.69890000  0.97560000  0.41770000  1.0 0.6588291592
C  C240  1  0.66040000  0.02620000  0.40040000  1.0 -0.070650111
C  C241  1  0.62180000  0.03990000  0.37750000  1.0 -0.1408739658
C  C242  1  0.49891000  0.92341000  0.07250000  1.0 0.6699818932
C  C243  1  0.54130000  0.94390000  0.10460000  1.0 -0.0527592576
C  C244  1  0.54945000  0.97155000  0.10230000  1.0 -0.1224734224
C  C245  1  0.58979000  0.99269000  0.13470000  1.0 -0.0024436739
C  C246  1  0.59539000  0.02089000  0.12890000  1.0 0.1204550153
C  C247  1  0.57610000  0.00510000  0.07680000  1.0 -0.1554853934
C  C248  1  0.58205000  0.03285000  0.07400000  1.0 -0.070650111
C  C249  1  0.60167000  0.07407000  0.11680000  1.0 0.0028228008
C  C250  1  0.60790000  0.10460000  0.11250000  1.0 0.6699818932
C  C251  1  0.61970000  0.09020000  0.16670000  1.0 -0.0791552806
C  C252  1  0.61580000  0.06500000  0.17380000  1.0 -0.1408739658
C  C253  1  0.62470000  0.98630000  0.17140000  1.0 0.1204550153
C  C254  1  0.61657000  0.95737000  0.17440000  1.0 0.0334913276
C  C255  1  0.57513000  0.93673000  0.14040000  1.0 -0.1333640641
C  C256  1  0.65184000  0.95204000  0.21580000  1.0 0.0895286923
C  C257  1  0.65960000  0.91110000  0.19790000  1.0 -0.1333640641
C  C258  1  0.69090000  0.90500000  0.23470000  1.0 -0.0791552806
C  C259  1  0.71447000  0.93907000  0.28960000  1.0 -0.0024436739
C  C260  1  0.74520000  0.93030000  0.32870000  1.0 0.6588291592
C  C261  1  0.70630000  0.98030000  0.30820000  1.0 -0.0791552806
C  C262  1  0.67500000  0.98560000  0.26860000  1.0 -0.1408739658
C  C263  1  0.67100000  0.00570000  0.20450000  1.0 -0.427395558
C  C264  1  0.37310000  0.01330000  0.04200000  1.0 0.5182607752
C  C265  1  0.72060000  0.05130000  0.02510000  1.0 0.6588291592
C  C266  1  0.75450000  0.02480000  0.02810000  1.0 0.0200960889
C  C267  1  0.74440000  0.98590000  0.98150000  1.0 -0.1529683861
C  C268  1  0.77530000  0.96160000  0.98290000  1.0 0.0895286923
C  C269  1  0.81650000  0.97720000  0.03290000  1.0 -0.1855114269
C  C270  1  0.82680000  0.01770000  0.08130000  1.0 0.0966807353
C  C271  1  0.79500000  0.04090000  0.07790000  1.0 -0.1529683861
C  C272  1  0.87050000  0.03620000  0.13410000  1.0 0.0895286923
C  C273  1  0.90570000  0.02720000  0.13730000  1.0 -0.1333640641
C  C274  1  0.94690000  0.04320000  0.18710000  1.0 -0.070650111
C  C275  1  0.95150000  0.06930000  0.23340000  1.0 -0.0024436739
C  C276  1  0.99580000  0.08530000  0.28530000  1.0 0.6588291592
C  C277  1  0.91690000  0.07710000  0.22960000  1.0 -0.070650111
C  C278  1  0.87500000  0.05900000  0.17920000  1.0 -0.1333640641
C  C279  1  0.76540000  0.92090000  0.93270000  1.0 0.0815518152
C  C280  1  0.72920000  0.89190000  0.89810000  1.0 -0.1408739658
C  C281  1  0.71620000  0.85330000  0.84650000  1.0 -0.0791552806
C  C282  1  0.73950000  0.84610000  0.83160000  1.0 -0.0184626672
C  C283  1  0.72560000  0.80790000  0.77670000  1.0 0.6588291592
C  C284  1  0.77620000  0.87580000  0.86580000  1.0 -0.070650111
C  C285  1  0.78990000  0.91240000  0.91810000  1.0 -0.1408739658
C  C286  1  0.67341000  0.10091000  0.92450000  1.0 0.6699818932
C  C287  1  0.69390000  0.08930000  0.90260000  1.0 -0.0527592576
C  C288  1  0.72155000  0.11925000  0.92210000  1.0 -0.1224734224
C  C289  1  0.74269000  0.10799000  0.90290000  1.0 -0.0024436739
C  C290  1  0.77089000  0.14199000  0.92550000  1.0 0.1204550153
C  C291  1  0.75510000  0.17830000  0.92900000  1.0 -0.1554853934
C  C292  1  0.78285000  0.20885000  0.95080000  1.0 -0.070650111
C  C293  1  0.82407000  0.20727000  0.97240000  1.0 0.0028228008
C  C294  1  0.85460000  0.24210000  0.99670000  1.0 0.6699818932
C  C295  1  0.84020000  0.17350000  0.97050000  1.0 -0.0791552806
C  C296  1  0.81500000  0.14120000  0.94920000  1.0 -0.1408739658
C  C297  1  0.73630000  0.06490000  0.86160000  1.0 0.1204550153
C  C298  1  0.70737000  0.03297000  0.84080000  1.0 0.0334913276
C  C299  1  0.68673000  0.04633000  0.86160000  1.0 -0.1333640641
C  C300  1  0.70204000  0.98624000  0.80020000  1.0 0.0895286923
C  C301  1  0.66110000  0.96320000  0.75150000  1.0 -0.1333640641
C  C302  1  0.65500000  0.92030000  0.71410000  1.0 -0.0791552806
C  C303  1  0.68907000  0.89947000  0.72460000  1.0 -0.0024436739
C  C304  1  0.68030000  0.85160000  0.68510000  1.0 0.6588291592
C  C305  1  0.73030000  0.92210000  0.77400000  1.0 -0.0791552806
C  C306  1  0.73560000  0.96700000  0.81060000  1.0 -0.1408739658
C  C307  1  0.75570000  0.05120000  0.83470000  1.0 -0.427395558
C  C308  1  0.76330000  0.22130000  0.14020000  1.0 0.5182607752
C  C309  1  0.02620000  0.69550000  0.97490000  1.0 0.6588291592
C  C310  1  0.99670000  0.72640000  0.97190000  1.0 0.0200960889
C  C311  1  0.00440000  0.76290000  0.01850000  1.0 -0.1529683861
C  C312  1  0.97870000  0.79240000  0.01710000  1.0 0.0895286923
C  C313  1  0.94430000  0.78360000  0.96710000  1.0 -0.1846129912
C  C314  1  0.93640000  0.74550000  0.91870000  1.0 0.0966807353
C  C315  1  0.96300000  0.71710000  0.92210000  1.0 -0.1529683861
C  C316  1  0.90210000  0.73640000  0.86590000  1.0 0.0895286923
C  C317  1  0.88990000  0.76840000  0.86270000  1.0 -0.1333640641
C  C318  1  0.85610000  0.75980000  0.81290000  1.0 -0.0644227425
C  C319  1  0.83590000  0.71810000  0.76660000  1.0 -0.0024436739
C  C320  1  0.80000000  0.71050000  0.71470000  1.0 0.6588291592
C  C321  1  0.84750000  0.68730000  0.77040000  1.0 -0.070650111
C  C322  1  0.87980000  0.69580000  0.82080000  1.0 -0.1333640641
C  C323  1  0.98820000  0.83270000  0.06730000  1.0 0.0815518152
C  C324  1  0.99380000  0.83110000  0.10190000  1.0 -0.1408739658
C  C325  1  0.00680000  0.86970000  0.15350000  1.0 -0.0791552806
C  C326  1  0.01450000  0.90790000  0.16840000  1.0 -0.0184626672
C  C327  1  0.03120000  0.94890000  0.22330000  1.0 0.6588291592
C  C328  1  0.01000000  0.91040000  0.13420000  1.0 -0.070650111
C  C329  1  0.99430000  0.87180000  0.08190000  1.0 -0.1408739658
C  C330  1  0.17641000  0.74891000  0.07550000  1.0 0.6699818932
C  C331  1  0.18670000  0.79130000  0.09740000  1.0 -0.0527592576
C  C332  1  0.19715000  0.79945000  0.07790000  1.0 -0.1224734224
C  C333  1  0.20509000  0.83979000  0.09710000  1.0 -0.0024436739
C  C334  1  0.21649000  0.84539000  0.07450000  1.0 0.1204550153
C  C335  1  0.24930000  0.82610000  0.07100000  1.0 -0.1554853934
C  C336  1  0.25805000  0.83205000  0.04920000  1.0 -0.070650111
C  C337  1  0.23487000  0.85167000  0.02760000  1.0 0.0028228008
C  C338  1  0.24540000  0.85790000  0.00330000  1.0 0.6699818932
C  C339  1  0.20300000  0.86970000  0.02950000  1.0 -0.0791552806
C  C340  1  0.19200000  0.86580000  0.05080000  1.0 -0.1408739658
C  C341  1  0.20330000  0.87470000  0.13840000  1.0 0.1204550153
C  C342  1  0.19217000  0.86657000  0.15920000  1.0 0.0334913276
C  C343  1  0.18473000  0.82513000  0.13840000  1.0 -0.1333640641
C  C344  1  0.18604000  0.90184000  0.19980000  1.0 0.0815518152
C  C345  1  0.21170000  0.90960000  0.24850000  1.0 -0.1333640641
C  C346  1  0.20620000  0.94090000  0.28590000  1.0 -0.0791552806
C  C347  1  0.17487000  0.96447000  0.27540000  1.0 -0.0024436739
C  C348  1  0.16650000  0.99520000  0.31490000  1.0 0.6588291592
C  C349  1  0.14810000  0.95630000  0.22600000  1.0 -0.0791552806
C  C350  1  0.15640000  0.92500000  0.18940000  1.0 -0.1408739658
C  C351  1  0.21650000  0.92100000  0.16530000  1.0 -0.427395558
C  C352  1  0.08110000  0.62310000  0.85980000  1.0 0.5182607752
C  C353  1  0.94550000  0.77620000  0.47490000  1.0 0.6588291592
C  C354  1  0.97640000  0.74670000  0.47190000  1.0 0.0200960889
C  C355  1  0.01290000  0.75440000  0.51850000  1.0 -0.1554853934
C  C356  1  0.04240000  0.72870000  0.51710000  1.0 0.0895286923
C  C357  1  0.03360000  0.69430000  0.46710000  1.0 -0.1855114269
C  C358  1  0.99550000  0.68640000  0.41870000  1.0 0.0966807353
C  C359  1  0.96710000  0.71300000  0.42210000  1.0 -0.1529683861
C  C360  1  0.98640000  0.65210000  0.36590000  1.0 0.0895286923
C  C361  1  0.01840000  0.63990000  0.36270000  1.0 -0.1333640641
C  C362  1  0.00980000  0.60610000  0.31290000  1.0 -0.070650111
C  C363  1  0.96810000  0.58590000  0.26660000  1.0 -0.0024436739
C  C364  1  0.96050000  0.55000000  0.21470000  1.0 0.6588291592
C  C365  1  0.93730000  0.59750000  0.27040000  1.0 -0.070650111
C  C366  1  0.94580000  0.62980000  0.32080000  1.0 -0.1333640641
C  C367  1  0.08270000  0.73820000  0.56730000  1.0 0.0815518152
C  C368  1  0.08110000  0.74380000  0.60190000  1.0 -0.1408739658
C  C369  1  0.11970000  0.75680000  0.65350000  1.0 -0.0791552806
C  C370  1  0.15790000  0.76450000  0.66840000  1.0 -0.0184626672
C  C371  1  0.19890000  0.78120000  0.72330000  1.0 0.6588291592
C  C372  1  0.16040000  0.76000000  0.63420000  1.0 -0.070650111
C  C373  1  0.12180000  0.74430000  0.58190000  1.0 -0.1408739658
C  C374  1  0.99891000  0.92641000  0.57550000  1.0 0.6699818932
C  C375  1  0.04130000  0.93670000  0.59740000  1.0 -0.0527592576
C  C376  1  0.04945000  0.94715000  0.57790000  1.0 -0.1224734224
C  C377  1  0.08979000  0.95509000  0.59710000  1.0 -0.0024436739
C  C378  1  0.09539000  0.96649000  0.57450000  1.0 0.1204550153
C  C379  1  0.07610000  0.99930000  0.57100000  1.0 -0.1554853934
C  C380  1  0.08205000  0.00805000  0.54920000  1.0 -0.070650111
C  C381  1  0.10167000  0.98487000  0.52760000  1.0 0.0028228008
C  C382  1  0.10790000  0.99540000  0.50330000  1.0 0.6699818932
C  C383  1  0.11970000  0.95300000  0.52950000  1.0 -0.0791552806
C  C384  1  0.11580000  0.94200000  0.55080000  1.0 -0.1408739658
C  C385  1  0.12470000  0.95330000  0.63840000  1.0 0.1204550153
C  C386  1  0.11657000  0.94217000  0.65920000  1.0 0.0334913276
C  C387  1  0.07513000  0.93473000  0.63840000  1.0 -0.1333640641
C  C388  1  0.15184000  0.93604000  0.69980000  1.0 0.0895286923
C  C389  1  0.15960000  0.96170000  0.74850000  1.0 -0.1333640641
C  C390  1  0.19090000  0.95620000  0.78590000  1.0 -0.0791552806
C  C391  1  0.21447000  0.92487000  0.77540000  1.0 -0.0024436739
C  C392  1  0.24520000  0.91650000  0.81490000  1.0 0.6588291592
C  C393  1  0.20630000  0.89810000  0.72600000  1.0 -0.0791552806
C  C394  1  0.17500000  0.90640000  0.68940000  1.0 -0.1408739658
C  C395  1  0.17100000  0.96650000  0.66530000  1.0 -0.427395558
C  C396  1  0.87310000  0.83110000  0.35980000  1.0 0.5182607752
C  C397  1  0.30130000  0.47060000  0.52510000  1.0 0.6588291592
C  C398  1  0.27480000  0.50450000  0.52810000  1.0 0.0200960889
C  C399  1  0.23590000  0.49440000  0.48150000  1.0 -0.1529683861
C  C400  1  0.21160000  0.52530000  0.48290000  1.0 0.0895286923
C  C401  1  0.22720000  0.56650000  0.53290000  1.0 -0.1855114269
C  C402  1  0.26770000  0.57680000  0.58130000  1.0 0.0966807353
C  C403  1  0.29090000  0.54500000  0.57790000  1.0 -0.1529683861
C  C404  1  0.28620000  0.62050000  0.63410000  1.0 0.0895286923
C  C405  1  0.27720000  0.65570000  0.63730000  1.0 -0.1333640641
C  C406  1  0.29320000  0.69690000  0.68710000  1.0 -0.0644227425
C  C407  1  0.31930000  0.70150000  0.73340000  1.0 -0.0024436739
C  C408  1  0.33530000  0.74580000  0.78530000  1.0 0.6588291592
C  C409  1  0.32710000  0.66690000  0.72960000  1.0 -0.070650111
C  C410  1  0.30900000  0.62500000  0.67920000  1.0 -0.1333640641
C  C411  1  0.17090000  0.51540000  0.43270000  1.0 0.0815518152
C  C412  1  0.14190000  0.47920000  0.39810000  1.0 -0.1408739658
C  C413  1  0.10330000  0.46620000  0.34650000  1.0 -0.0791552806
C  C414  1  0.09610000  0.48950000  0.33160000  1.0 -0.0184626672
C  C415  1  0.05790000  0.47560000  0.27670000  1.0 0.6588291592
C  C416  1  0.12580000  0.52620000  0.36580000  1.0 -0.070650111
C  C417  1  0.16240000  0.53990000  0.41810000  1.0 -0.1408739658
C  C418  1  0.35091000  0.42341000  0.42450000  1.0 0.6699818932
C  C419  1  0.33930000  0.44390000  0.40260000  1.0 -0.0527592576
C  C420  1  0.36925000  0.47155000  0.42210000  1.0 -0.1224734224
C  C421  1  0.35799000  0.49269000  0.40290000  1.0 -0.0024436739
C  C422  1  0.39199000  0.52089000  0.42550000  1.0 0.1204550153
C  C423  1  0.42830000  0.50510000  0.42900000  1.0 -0.1529683861
C  C424  1  0.45885000  0.53285000  0.45080000  1.0 -0.070650111
C  C425  1  0.45727000  0.57407000  0.47240000  1.0 0.0028228008
C  C426  1  0.49210000  0.60460000  0.49670000  1.0 0.6699818932
C  C427  1  0.42350000  0.59020000  0.47050000  1.0 -0.0791552806
C  C428  1  0.39120000  0.56500000  0.44920000  1.0 -0.1408739658
C  C429  1  0.31490000  0.48630000  0.36160000  1.0 0.1204550153
C  C430  1  0.28297000  0.45737000  0.34080000  1.0 0.0334913276
C  C431  1  0.29633000  0.43673000  0.36160000  1.0 -0.1333640641
C  C432  1  0.23624000  0.45204000  0.30020000  1.0 0.0815518152
C  C433  1  0.21320000  0.41110000  0.25150000  1.0 -0.1333640641
C  C434  1  0.17030000  0.40500000  0.21410000  1.0 -0.0791552806
C  C435  1  0.14947000  0.43907000  0.22460000  1.0 -0.0024436739
C  C436  1  0.10160000  0.43030000  0.18510000  1.0 0.6588291592
C  C437  1  0.17210000  0.48030000  0.27400000  1.0 -0.0791552806
C  C438  1  0.21700000  0.48560000  0.31060000  1.0 -0.1408739658
C  C439  1  0.30120000  0.50570000  0.33470000  1.0 -0.427395558
C  C440  1  0.47130000  0.51330000  0.64020000  1.0 0.5182607752
C  C441  1  0.52620000  0.55130000  0.33070000  1.0 0.6588291592
C  C442  1  0.49670000  0.52480000  0.27030000  1.0 0.0200960889
C  C443  1  0.50440000  0.48590000  0.24150000  1.0 -0.1529683861
C  C444  1  0.47870000  0.46160000  0.18630000  1.0 0.0895286923
C  C445  1  0.44430000  0.47720000  0.16070000  1.0 -0.1846129912
C  C446  1  0.43640000  0.51770000  0.19090000  1.0 0.0966807353
C  C447  1  0.46300000  0.54090000  0.24590000  1.0 -0.1529683861
C  C448  1  0.40210000  0.53620000  0.16570000  1.0 0.0895286923
C  C449  1  0.38990000  0.52720000  0.12150000  1.0 -0.1408739658
C  C450  1  0.35610000  0.54320000  0.09630000  1.0 -0.0644227425
C  C451  1  0.33590000  0.56930000  0.11780000  1.0 -0.0024436739
C  C452  1  0.30000000  0.58530000  0.08950000  1.0 0.6588291592
C  C453  1  0.34750000  0.57710000  0.16020000  1.0 -0.070650111
C  C454  1  0.37980000  0.55900000  0.18400000  1.0 -0.1333640641
C  C455  1  0.48820000  0.42090000  0.15550000  1.0 0.0815518152
C  C456  1  0.49380000  0.39190000  0.16270000  1.0 -0.1408739658
C  C457  1  0.50680000  0.35330000  0.13710000  1.0 -0.0791552806
C  C458  1  0.51450000  0.34610000  0.10660000  1.0 -0.0184626672
C  C459  1  0.53120000  0.30790000  0.08230000  1.0 0.6588291592
C  C460  1  0.51000000  0.37580000  0.09960000  1.0 -0.070650111
C  C461  1  0.49430000  0.41240000  0.12250000  1.0 -0.1408739658
C  C462  1  0.67641000  0.60091000  0.42750000  1.0 0.6699818932
C  C463  1  0.68670000  0.58930000  0.39540000  1.0 -0.0527592576
C  C464  1  0.69715000  0.61925000  0.39770000  1.0 -0.1224734224
C  C465  1  0.70509000  0.60799000  0.36530000  1.0 -0.0024436739
C  C466  1  0.71649000  0.64199000  0.37110000  1.0 0.1204550153
C  C467  1  0.74930000  0.67830000  0.42320000  1.0 -0.1554853934
C  C468  1  0.75805000  0.70885000  0.42600000  1.0 -0.070650111
C  C469  1  0.73487000  0.70727000  0.38320000  1.0 0.0028228008
C  C470  1  0.74540000  0.74210000  0.38750000  1.0 0.6699818932
C  C471  1  0.70300000  0.67350000  0.33333333  1.0 -0.0791552806
C  C472  1  0.69200000  0.64120000  0.32620000  1.0 -0.1408739658
C  C473  1  0.70330000  0.56490000  0.32860000  1.0 0.1204550153
C  C474  1  0.69217000  0.53297000  0.32560000  1.0 0.0334913276
C  C475  1  0.68473000  0.54633000  0.35960000  1.0 -0.1333640641
C  C476  1  0.68604000  0.48624000  0.28420000  1.0 0.0815518152
C  C477  1  0.71170000  0.46320000  0.30210000  1.0 -0.1333640641
C  C478  1  0.70620000  0.42030000  0.26530000  1.0 -0.0791552806
C  C479  1  0.67487000  0.39947000  0.21040000  1.0 -0.0024436739
C  C480  1  0.66650000  0.35160000  0.17130000  1.0 0.6588291592
C  C481  1  0.64810000  0.42210000  0.19180000  1.0 -0.0791552806
C  C482  1  0.65640000  0.46700000  0.23140000  1.0 -0.1408739658
C  C483  1  0.71650000  0.55120000  0.29550000  1.0 -0.427395558
C  C484  1  0.58110000  0.72130000  0.45800000  1.0 0.5182607752
C  C485  1  0.22060000  0.19550000  0.66930000  1.0 0.6588291592
C  C486  1  0.25450000  0.22640000  0.72970000  1.0 0.0200960889
C  C487  1  0.24440000  0.26290000  0.75850000  1.0 -0.1529683861
C  C488  1  0.27530000  0.29240000  0.81370000  1.0 0.0895286923
C  C489  1  0.31650000  0.28360000  0.83930000  1.0 -0.1846129912
C  C490  1  0.32680000  0.24550000  0.80910000  1.0 0.0966807353
C  C491  1  0.29500000  0.21710000  0.75410000  1.0 -0.1529683861
C  C492  1  0.37050000  0.23640000  0.83430000  1.0 0.0895286923
C  C493  1  0.40570000  0.26840000  0.87850000  1.0 -0.1333640641
C  C494  1  0.44690000  0.25980000  0.90370000  1.0 -0.0644227425
C  C495  1  0.45150000  0.21810000  0.88220000  1.0 -0.0024436739
C  C496  1  0.49580000  0.21050000  0.91050000  1.0 0.6588291592
C  C497  1  0.41690000  0.18730000  0.83980000  1.0 -0.070650111
C  C498  1  0.37500000  0.19580000  0.81600000  1.0 -0.1333640641
C  C499  1  0.26540000  0.33270000  0.84450000  1.0 0.0815518152
C  C500  1  0.22920000  0.33110000  0.83730000  1.0 -0.1408739658
C  C501  1  0.21620000  0.36970000  0.86290000  1.0 -0.0791552806
C  C502  1  0.23950000  0.40790000  0.89340000  1.0 -0.0184626672
C  C503  1  0.22560000  0.44890000  0.91770000  1.0 0.6588291592
C  C504  1  0.27620000  0.41040000  0.90040000  1.0 -0.070650111
C  C505  1  0.28990000  0.37180000  0.87750000  1.0 -0.1408739658
C  C506  1  0.17341000  0.24891000  0.57250000  1.0 0.6699818932
C  C507  1  0.19390000  0.29130000  0.60460000  1.0 -0.0527592576
C  C508  1  0.22155000  0.29945000  0.60230000  1.0 -0.1224734224
C  C509  1  0.24269000  0.33979000  0.63470000  1.0 -0.0024436739
C  C510  1  0.27089000  0.34539000  0.62890000  1.0 0.1204550153
C  C511  1  0.25510000  0.32610000  0.57680000  1.0 -0.1554853934
C  C512  1  0.28285000  0.33205000  0.57400000  1.0 -0.070650111
C  C513  1  0.32407000  0.35167000  0.61680000  1.0 0.0028228008
C  C514  1  0.35460000  0.35790000  0.61250000  1.0 0.6699818932
C  C515  1  0.34020000  0.36970000  0.66666667  1.0 -0.0791552806
C  C516  1  0.31500000  0.36580000  0.67380000  1.0 -0.1408739658
C  C517  1  0.23630000  0.37470000  0.67140000  1.0 0.1204550153
C  C518  1  0.20737000  0.36657000  0.67440000  1.0 0.0334913276
C  C519  1  0.18673000  0.32513000  0.64040000  1.0 -0.1333640641
C  C520  1  0.20204000  0.40184000  0.71580000  1.0 0.0815518152
C  C521  1  0.16110000  0.40960000  0.69790000  1.0 -0.1333640641
C  C522  1  0.15500000  0.44090000  0.73470000  1.0 -0.0791552806
C  C523  1  0.18907000  0.46447000  0.78960000  1.0 -0.0024436739
C  C524  1  0.18030000  0.49520000  0.82870000  1.0 0.6588291592
C  C525  1  0.23030000  0.45630000  0.80820000  1.0 -0.0791552806
C  C526  1  0.23560000  0.42500000  0.76860000  1.0 -0.1408739658
C  C527  1  0.25570000  0.42100000  0.70450000  1.0 -0.427395558
C  C528  1  0.26330000  0.12310000  0.54200000  1.0 0.5182607752
C  C529  1  0.94870000  0.97380000  0.66930000  1.0 0.6588291592
C  C530  1  0.97520000  0.00330000  0.72970000  1.0 0.0200960889
C  C531  1  0.01410000  0.99560000  0.75850000  1.0 -0.1529683861
C  C532  1  0.03840000  0.02130000  0.81370000  1.0 0.0895286923
C  C533  1  0.02280000  0.05570000  0.83930000  1.0 -0.1855114269
C  C534  1  0.98230000  0.06360000  0.80910000  1.0 0.0966807353
C  C535  1  0.95910000  0.03700000  0.75410000  1.0 -0.1529683861
C  C536  1  0.96380000  0.09790000  0.83430000  1.0 0.0895286923
C  C537  1  0.97280000  0.11010000  0.87850000  1.0 -0.1333640641
C  C538  1  0.95680000  0.14390000  0.90370000  1.0 -0.0644227425
C  C539  1  0.93070000  0.16410000  0.88220000  1.0 -0.0024436739
C  C540  1  0.91470000  0.20000000  0.91050000  1.0 0.6588291592
C  C541  1  0.92290000  0.15250000  0.83980000  1.0 -0.070650111
C  C542  1  0.94100000  0.12020000  0.81600000  1.0 -0.1333640641
C  C543  1  0.07910000  0.01180000  0.84450000  1.0 0.0815518152
C  C544  1  0.10810000  0.00620000  0.83730000  1.0 -0.1408739658
C  C545  1  0.14670000  0.99320000  0.86290000  1.0 -0.0791552806
C  C546  1  0.15390000  0.98550000  0.89340000  1.0 -0.0184626672
C  C547  1  0.19210000  0.96880000  0.91770000  1.0 0.6588291592
C  C548  1  0.12420000  0.99000000  0.90040000  1.0 -0.070650111
C  C549  1  0.08760000  0.00570000  0.87750000  1.0 -0.1408739658
C  C550  1  0.89909000  0.82359000  0.57250000  1.0 0.6699818932
C  C551  1  0.91070000  0.81330000  0.60460000  1.0 -0.0527592576
C  C552  1  0.88075000  0.80285000  0.60230000  1.0 -0.1224734224
C  C553  1  0.89201000  0.79491000  0.63470000  1.0 -0.0024436739
C  C554  1  0.85801000  0.78351000  0.62890000  1.0 0.1204550153
C  C555  1  0.82170000  0.75070000  0.57680000  1.0 -0.1554853934
C  C556  1  0.79115000  0.74195000  0.57400000  1.0 -0.070650111
C  C557  1  0.79273000  0.76513000  0.61680000  1.0 0.0028228008
C  C558  1  0.75790000  0.75460000  0.61250000  1.0 0.6699818932
C  C559  1  0.82650000  0.79700000  0.66666667  1.0 -0.0791552806
C  C560  1  0.85880000  0.80800000  0.67380000  1.0 -0.1408739658
C  C561  1  0.93510000  0.79670000  0.67140000  1.0 0.1204550153
C  C562  1  0.96703000  0.80783000  0.67440000  1.0 0.0334913276
C  C563  1  0.95367000  0.81527000  0.64040000  1.0 -0.1333640641
C  C564  1  0.01376000  0.81396000  0.71580000  1.0 0.0815518152
C  C565  1  0.03680000  0.78830000  0.69790000  1.0 -0.1333640641
C  C566  1  0.07970000  0.79380000  0.73470000  1.0 -0.0791552806
C  C567  1  0.10053000  0.82513000  0.78960000  1.0 -0.0024436739
C  C568  1  0.14840000  0.83350000  0.82870000  1.0 0.6588291592
C  C569  1  0.07790000  0.85190000  0.80820000  1.0 -0.0791552806
C  C570  1  0.03300000  0.84360000  0.76860000  1.0 -0.1408739658
C  C571  1  0.94880000  0.78350000  0.70450000  1.0 -0.427395558
C  C572  1  0.77870000  0.91890000  0.54200000  1.0 0.5182607752
C  C573  1  0.30450000  0.27940000  0.33070000  1.0 0.6588291592
C  C574  1  0.27360000  0.24550000  0.27030000  1.0 0.0200960889
C  C575  1  0.23710000  0.25560000  0.24150000  1.0 -0.1529683861
C  C576  1  0.20760000  0.22470000  0.18630000  1.0 0.0895286923
C  C577  1  0.21640000  0.18350000  0.16070000  1.0 -0.1855114269
C  C578  1  0.25450000  0.17320000  0.19090000  1.0 0.0966807353
C  C579  1  0.28290000  0.20500000  0.24590000  1.0 -0.1529683861
C  C580  1  0.26360000  0.12950000  0.16570000  1.0 0.0895286923
C  C581  1  0.23160000  0.09430000  0.12150000  1.0 -0.1333640641
C  C582  1  0.24020000  0.05310000  0.09630000  1.0 -0.070650111
C  C583  1  0.28190000  0.04850000  0.11780000  1.0 -0.0024436739
C  C584  1  0.28950000  0.00420000  0.08950000  1.0 0.6588291592
C  C585  1  0.31270000  0.08310000  0.16020000  1.0 -0.070650111
C  C586  1  0.30420000  0.12500000  0.18400000  1.0 -0.1333640641
C  C587  1  0.16730000  0.23460000  0.15550000  1.0 0.0815518152
C  C588  1  0.16890000  0.27080000  0.16270000  1.0 -0.1408739658
C  C589  1  0.13030000  0.28380000  0.13710000  1.0 -0.0791552806
C  C590  1  0.09210000  0.26050000  0.10660000  1.0 -0.0184626672
C  C591  1  0.05110000  0.27440000  0.08230000  1.0 0.6588291592
C  C592  1  0.08960000  0.22380000  0.09960000  1.0 -0.070650111
C  C593  1  0.12820000  0.21010000  0.12250000  1.0 -0.1408739658
C  C594  1  0.25109000  0.32659000  0.42750000  1.0 0.6699818932
C  C595  1  0.20870000  0.30610000  0.39540000  1.0 -0.0527592576
C  C596  1  0.20055000  0.27845000  0.39770000  1.0 -0.1224734224
C  C597  1  0.16021000  0.25731000  0.36530000  1.0 -0.0024436739
C  C598  1  0.15461000  0.22911000  0.37110000  1.0 0.1204550153
C  C599  1  0.17390000  0.24490000  0.42320000  1.0 -0.1554853934
C  C600  1  0.16795000  0.21715000  0.42600000  1.0 -0.070650111
C  C601  1  0.14833000  0.17593000  0.38320000  1.0 0.0028228008
C  C602  1  0.14210000  0.14540000  0.38750000  1.0 0.6699818932
C  C603  1  0.13030000  0.15980000  0.33333333  1.0 -0.0791552806
C  C604  1  0.13420000  0.18500000  0.32620000  1.0 -0.1408739658
C  C605  1  0.12530000  0.26370000  0.32860000  1.0 0.1204550153
C  C606  1  0.13343000  0.29263000  0.32560000  1.0 0.0334913276
C  C607  1  0.17487000  0.31327000  0.35960000  1.0 -0.1333640641
C  C608  1  0.09816000  0.29796000  0.28420000  1.0 0.0815518152
C  C609  1  0.09040000  0.33890000  0.30210000  1.0 -0.1333640641
C  C610  1  0.05910000  0.34500000  0.26530000  1.0 -0.0791552806
C  C611  1  0.03553000  0.31093000  0.21040000  1.0 -0.0024436739
C  C612  1  0.00480000  0.31970000  0.17130000  1.0 0.6588291592
C  C613  1  0.04370000  0.26970000  0.19180000  1.0 -0.0791552806
C  C614  1  0.07500000  0.26440000  0.23140000  1.0 -0.1408739658
C  C615  1  0.07900000  0.24430000  0.29550000  1.0 -0.427395558
C  C616  1  0.37690000  0.23670000  0.45800000  1.0 0.5182607752
C  C617  1  0.02940000  0.19870000  0.47490000  1.0 0.6588291592
C  C618  1  0.99550000  0.22520000  0.47190000  1.0 0.0200960889
C  C619  1  0.00560000  0.26410000  0.51850000  1.0 -0.1529683861
C  C620  1  0.97470000  0.28840000  0.51710000  1.0 0.0895286923
C  C621  1  0.93350000  0.27280000  0.46710000  1.0 -0.1846129912
C  C622  1  0.92320000  0.23230000  0.41870000  1.0 0.0966807353
C  C623  1  0.95500000  0.20910000  0.42210000  1.0 -0.1529683861
C  C624  1  0.87950000  0.21380000  0.36590000  1.0 0.0895286923
C  C625  1  0.84430000  0.22280000  0.36270000  1.0 -0.1333640641
C  C626  1  0.80310000  0.20680000  0.31290000  1.0 -0.070650111
C  C627  1  0.79850000  0.18070000  0.26660000  1.0 -0.0024436739
C  C628  1  0.75420000  0.16470000  0.21470000  1.0 0.6588291592
C  C629  1  0.83310000  0.17290000  0.27040000  1.0 -0.070650111
C  C630  1  0.87500000  0.19100000  0.32080000  1.0 -0.1333640641
C  C631  1  0.98460000  0.32910000  0.56730000  1.0 0.0815518152
C  C632  1  0.02080000  0.35810000  0.60190000  1.0 -0.1408739658
C  C633  1  0.03380000  0.39670000  0.65350000  1.0 -0.0791552806
C  C634  1  0.01050000  0.40390000  0.66840000  1.0 -0.0184626672
C  C635  1  0.02440000  0.44210000  0.72330000  1.0 0.6588291592
C  C636  1  0.97380000  0.37420000  0.63420000  1.0 -0.070650111
C  C637  1  0.96010000  0.33760000  0.58190000  1.0 -0.1408739658
C  C638  1  0.07659000  0.14909000  0.57550000  1.0 0.6699818932
C  C639  1  0.05610000  0.16070000  0.59740000  1.0 -0.0527592576
C  C640  1  0.02845000  0.13075000  0.57790000  1.0 -0.1224734224
C  C641  1  0.00731000  0.14201000  0.59710000  1.0 -0.0024436739
C  C642  1  0.97911000  0.10801000  0.57450000  1.0 0.1204550153
C  C643  1  0.99490000  0.07170000  0.57100000  1.0 -0.1529683861
C  C644  1  0.96715000  0.04115000  0.54920000  1.0 -0.070650111
C  C645  1  0.92593000  0.04273000  0.52760000  1.0 0.0028228008
C  C646  1  0.89540000  0.00790000  0.50330000  1.0 0.6699818932
C  C647  1  0.90980000  0.07650000  0.52950000  1.0 -0.0791552806
C  C648  1  0.93500000  0.10880000  0.55080000  1.0 -0.1408739658
C  C649  1  0.01370000  0.18510000  0.63840000  1.0 0.1204550153
C  C650  1  0.04263000  0.21703000  0.65920000  1.0 0.0334913276
C  C651  1  0.06327000  0.20367000  0.63840000  1.0 -0.1333640641
C  C652  1  0.04796000  0.26376000  0.69980000  1.0 0.0815518152
C  C653  1  0.08890000  0.28680000  0.74850000  1.0 -0.1333640641
C  C654  1  0.09500000  0.32970000  0.78590000  1.0 -0.0791552806
C  C655  1  0.06093000  0.35053000  0.77540000  1.0 -0.0024436739
C  C656  1  0.06970000  0.39840000  0.81490000  1.0 0.6588291592
C  C657  1  0.01970000  0.32790000  0.72600000  1.0 -0.0791552806
C  C658  1  0.01440000  0.28300000  0.68940000  1.0 -0.1408739658
C  C659  1  0.99430000  0.19880000  0.66530000  1.0 -0.427395558
C  C660  1  0.98670000  0.02870000  0.35980000  1.0 0.5182607752
C  C661  1  0.72380000  0.55450000  0.52510000  1.0 0.6588291592
C  C662  1  0.75330000  0.52360000  0.52810000  1.0 0.0200960889
C  C663  1  0.74560000  0.48710000  0.48150000  1.0 -0.1529683861
C  C664  1  0.77130000  0.45760000  0.48290000  1.0 0.0895286923
C  C665  1  0.80570000  0.46640000  0.53290000  1.0 -0.1855114269
C  C666  1  0.81360000  0.50450000  0.58130000  1.0 0.0966807353
C  C667  1  0.78700000  0.53290000  0.57790000  1.0 -0.1529683861
C  C668  1  0.84790000  0.51360000  0.63410000  1.0 0.0895286923
C  C669  1  0.86010000  0.48160000  0.63730000  1.0 -0.1333640641
C  C670  1  0.89390000  0.49020000  0.68710000  1.0 -0.070650111
C  C671  1  0.91410000  0.53190000  0.73340000  1.0 -0.0024436739
C  C672  1  0.95000000  0.53950000  0.78530000  1.0 0.6588291592
C  C673  1  0.90250000  0.56270000  0.72960000  1.0 -0.070650111
C  C674  1  0.87020000  0.55420000  0.67920000  1.0 -0.1333640641
C  C675  1  0.76180000  0.41730000  0.43270000  1.0 0.0815518152
C  C676  1  0.75620000  0.41890000  0.39810000  1.0 -0.1408739658
C  C677  1  0.74320000  0.38030000  0.34650000  1.0 -0.0791552806
C  C678  1  0.73550000  0.34210000  0.33160000  1.0 -0.0184626672
C  C679  1  0.71880000  0.30110000  0.27670000  1.0 0.6588291592
C  C680  1  0.74000000  0.33960000  0.36580000  1.0 -0.070650111
C  C681  1  0.75570000  0.37820000  0.41810000  1.0 -0.1408739658
C  C682  1  0.57359000  0.50109000  0.42450000  1.0 0.6699818932
C  C683  1  0.56330000  0.45870000  0.40260000  1.0 -0.0527592576
C  C684  1  0.55285000  0.45055000  0.42210000  1.0 -0.1224734224
C  C685  1  0.54491000  0.41021000  0.40290000  1.0 -0.0024436739
C  C686  1  0.53351000  0.40461000  0.42550000  1.0 0.1204550153
C  C687  1  0.50070000  0.42390000  0.42900000  1.0 -0.1554853934
C  C688  1  0.49195000  0.41795000  0.45080000  1.0 -0.070650111
C  C689  1  0.51513000  0.39833000  0.47240000  1.0 0.0028228008
C  C690  1  0.50460000  0.39210000  0.49670000  1.0 0.6699818932
C  C691  1  0.54700000  0.38030000  0.47050000  1.0 -0.0791552806
C  C692  1  0.55800000  0.38420000  0.44920000  1.0 -0.1408739658
C  C693  1  0.54670000  0.37530000  0.36160000  1.0 0.1204550153
C  C694  1  0.55783000  0.38343000  0.34080000  1.0 0.0334913276
C  C695  1  0.56527000  0.42487000  0.36160000  1.0 -0.1333640641
C  C696  1  0.56396000  0.34816000  0.30020000  1.0 0.0815518152
C  C697  1  0.53830000  0.34040000  0.25150000  1.0 -0.1333640641
C  C698  1  0.54380000  0.30910000  0.21410000  1.0 -0.0791552806
C  C699  1  0.57513000  0.28553000  0.22460000  1.0 -0.0024436739
C  C700  1  0.58350000  0.25480000  0.18510000  1.0 0.6588291592
C  C701  1  0.60190000  0.29370000  0.27400000  1.0 -0.0791552806
C  C702  1  0.59360000  0.32500000  0.31060000  1.0 -0.1408739658
C  C703  1  0.53350000  0.32900000  0.33470000  1.0 -0.427395558
C  C704  1  0.66890000  0.62690000  0.64020000  1.0 0.5182607752
O  O1  1  0.01206000  0.41456000  0.15010000  1.0 -1.0314599783
O  O2  1  0.95180000  0.46060000  0.10440000  1.0 -1.008903699
O  O3  1  0.96382000  0.46082000  0.17300000  1.0 -1.060549407
O  O4  1  0.91429000  0.38962000  0.08097000  1.0 -0.9399526103
O  O5  1  0.91890000  0.33310000  0.08840000  1.0 -1.0476125571
O  O6  1  0.87811000  0.42247000  0.01884000  1.0 -1.0398166943
O  O7  1  0.83641000  0.39561000  0.02480000  1.0 -1.0398166943
O  O8  1  0.79185000  0.44015000  0.98010000  1.0 -0.5903771815
O  O9  1  0.84135000  0.48635000  0.07040000  1.0 -0.6166102537
O  O10  1  0.82759000  0.72209000  0.32630000  1.0 -0.5988693071
O  O11  1  0.75977000  0.70777000  0.28620000  1.0 -0.5740175074
O  O12  1  0.55516000  0.46666000  0.74750000  1.0 -0.648460742
O  O13  1  0.51827000  0.45717000  0.76330000  1.0 -0.5988693071
O  O14  1  0.75977000  0.34117000  0.91540000  1.0 -0.5988693071
O  O15  1  0.78254000  0.31584000  0.95670000  1.0 -0.6078891716
O  O16  1  0.66295000  0.22565000  0.00090000  1.0 -0.648460742
O  O17  1  0.62186000  0.27448000  0.01402000  1.0 -0.5988693071
O  O18  1  0.50062000  0.31089000  0.64353000  1.0 -0.5988693071
O  O19  1  0.48412000  0.36132000  0.69680000  1.0 -0.5903771815
O  O20  1  0.87515000  0.45125000  0.13750000  1.0 -0.6909033563
O  O21  1  0.84920000  0.38010000  0.09150000  1.0 -0.6395382825
O  O22  1  0.26446000  0.86196000  0.84990000  1.0 -1.0314599783
O  O23  1  0.35620000  0.84740000  0.89560000  1.0 -1.008903699
O  O24  1  0.28782000  0.79082000  0.82700000  1.0 -1.060549407
O  O25  1  0.30865000  0.83332000  0.91903000  1.0 -0.9399526103
O  O26  1  0.24470000  0.83050000  0.91160000  1.0 -1.0476125571
O  O27  1  0.40363000  0.85927000  0.98116000  1.0 -1.0398166943
O  O28  1  0.37081000  0.81161000  0.97520000  1.0 -1.0398166943
O  O29  1  0.46005000  0.81175000  0.01990000  1.0 -0.5903771815
O  O30  1  0.41595000  0.77095000  0.92960000  1.0 -0.6166102537
O  O31  1  0.39579000  0.50129000  0.67370000  1.0 -0.5988693071
O  O32  1  0.42157000  0.47357000  0.71380000  1.0 -0.578158918
O  O33  1  0.71916000  0.80766000  0.25250000  1.0 -0.648460742
O  O34  1  0.69387000  0.75497000  0.23670000  1.0 -0.5988693071
O  O35  1  0.42577000  0.84437000  0.08460000  1.0 -0.5988693071
O  O36  1  0.35914000  0.82584000  0.04330000  1.0 -0.6078891716
O  O37  1  0.22475000  0.66205000  0.99910000  1.0 -0.648460742
O  O38  1  0.26046000  0.60784000  0.98598000  1.0 -0.6078891716
O  O39  1  0.66736000  0.85709000  0.35647000  1.0 -0.5988693071
O  O40  1  0.66452000  0.78732000  0.30320000  1.0 -0.5903771815
O  O41  1  0.31375000  0.73765000  0.86250000  1.0 -0.6909033563
O  O42  1  0.28860000  0.75770000  0.90850000  1.0 -0.6395382825
O  O43  1  0.16456000  0.51446000  0.90250000  1.0 -1.0314599783
O  O44  1  0.21060000  0.60620000  0.00880000  1.0 -1.008903699
O  O45  1  0.21082000  0.53782000  0.99700000  1.0 -1.060549407
O  O46  1  0.13962000  0.55865000  0.97533000  1.0 -0.9399526103
O  O47  1  0.08310000  0.49470000  0.91420000  1.0 -1.0476125571
O  O48  1  0.17247000  0.65363000  0.04436000  1.0 -1.0398166943
O  O49  1  0.14561000  0.62081000  0.05920000  1.0 -1.0398166943
O  O50  1  0.19015000  0.71005000  0.14830000  1.0 -0.578158918
O  O51  1  0.23635000  0.66595000  0.14500000  1.0 -0.6166102537
O  O52  1  0.47209000  0.64579000  0.39450000  1.0 -0.5988693071
O  O53  1  0.45777000  0.67157000  0.44800000  1.0 -0.578158918
O  O54  1  0.21666000  0.96916000  0.41150000  1.0 -0.648460742
O  O55  1  0.20717000  0.94387000  0.43890000  1.0 -0.5988693071
O  O56  1  0.09117000  0.67577000  0.08140000  1.0 -0.5988693071
O  O57  1  0.06584000  0.60914000  0.03330000  1.0 -0.6078891716
O  O58  1  0.97565000  0.47475000  0.06270000  1.0 -0.648460742
O  O59  1  0.02448000  0.51046000  0.15262000  1.0 -0.5988693071
O  O60  1  0.06089000  0.91736000  0.31027000  1.0 -0.5988693071
O  O61  1  0.11132000  0.91452000  0.37720000  1.0 -0.5903771815
O  O62  1  0.20125000  0.56375000  0.07610000  1.0 -0.6909033563
O  O63  1  0.13010000  0.53860000  0.03090000  1.0 -0.6395382825
O  O64  1  0.61196000  0.26206000  0.09750000  1.0 -1.0314599783
O  O65  1  0.59740000  0.20180000  0.99120000  1.0 -1.008903699
O  O66  1  0.54082000  0.21382000  0.00300000  1.0 -1.060549407
O  O67  1  0.58332000  0.16429000  0.02467000  1.0 -0.9399526103
O  O68  1  0.58050000  0.16890000  0.08580000  1.0 -1.0476125571
O  O69  1  0.60927000  0.12811000  0.95564000  1.0 -1.0398166943
O  O70  1  0.56161000  0.08641000  0.94080000  1.0 -1.0398166943
O  O71  1  0.56175000  0.04185000  0.85170000  1.0 -0.5903771815
O  O72  1  0.52095000  0.09135000  0.85500000  1.0 -0.6166102537
O  O73  1  0.25129000  0.07759000  0.60550000  1.0 -0.5988693071
O  O74  1  0.22357000  0.00977000  0.55200000  1.0 -0.578158918
O  O75  1  0.55766000  0.80516000  0.58850000  1.0 -0.648460742
O  O76  1  0.50497000  0.76827000  0.56110000  1.0 -0.5988693071
O  O77  1  0.59437000  0.00977000  0.91860000  1.0 -0.5988693071
O  O78  1  0.57584000  0.03254000  0.96670000  1.0 -0.6078891716
O  O79  1  0.41205000  0.91295000  0.93730000  1.0 -0.648460742
O  O80  1  0.35784000  0.87186000  0.84738000  1.0 -0.6078891716
O  O81  1  0.60709000  0.75062000  0.68973000  1.0 -0.5988693071
O  O82  1  0.53732000  0.73412000  0.62280000  1.0 -0.5903771815
O  O83  1  0.48765000  0.12515000  0.92390000  1.0 -0.6909033563
O  O84  1  0.50770000  0.09920000  0.96910000  1.0 -0.6395382825
O  O85  1  0.98554000  0.33544000  0.09750000  1.0 -1.0314599783
O  O86  1  0.89380000  0.28940000  0.99120000  1.0 -1.008903699
O  O87  1  0.96218000  0.28918000  0.00300000  1.0 -1.060549407
O  O88  1  0.94135000  0.36038000  0.02467000  1.0 -0.9399526103
O  O89  1  0.00530000  0.41690000  0.08580000  1.0 -1.0398166943
O  O90  1  0.84637000  0.32753000  0.95564000  1.0 -1.0398166943
O  O91  1  0.87919000  0.35439000  0.94080000  1.0 -1.0398166943
O  O92  1  0.78995000  0.30985000  0.85170000  1.0 -0.5903771815
O  O93  1  0.83405000  0.26365000  0.85500000  1.0 -0.6166102537
O  O94  1  0.85421000  0.02791000  0.60550000  1.0 -0.5988693071
O  O95  1  0.82843000  0.04223000  0.55200000  1.0 -0.5740175074
O  O96  1  0.53084000  0.28334000  0.58850000  1.0 -0.648460742
O  O97  1  0.55613000  0.29283000  0.56110000  1.0 -0.5988693071
O  O98  1  0.82423000  0.40883000  0.91860000  1.0 -0.5988693071
O  O99  1  0.89086000  0.43416000  0.96670000  1.0 -0.6078891716
O  O100  1  0.02525000  0.52435000  0.93730000  1.0 -0.648460742
O  O101  1  0.98954000  0.47552000  0.84738000  1.0 -0.6078891716
O  O102  1  0.58264000  0.43911000  0.68973000  1.0 -0.5988693071
O  O103  1  0.58548000  0.38868000  0.62280000  1.0 -0.5903771815
O  O104  1  0.93625000  0.29875000  0.92390000  1.0 -0.6909033563
O  O105  1  0.96140000  0.36990000  0.96910000  1.0 -0.6395382825
O  O106  1  0.23794000  0.88804000  0.90250000  1.0 -1.0314599783
O  O107  1  0.29820000  0.90260000  0.00880000  1.0 -1.008903699
O  O108  1  0.28618000  0.95918000  0.99700000  1.0 -1.060549407
O  O109  1  0.33571000  0.91668000  0.97533000  1.0 -0.9399526103
O  O110  1  0.33110000  0.91950000  0.91420000  1.0 -1.0476125571
O  O111  1  0.37189000  0.89073000  0.04436000  1.0 -1.0398166943
O  O112  1  0.41359000  0.93839000  0.05920000  1.0 -1.0398166943
O  O113  1  0.45815000  0.93825000  0.14830000  1.0 -0.5903771815
O  O114  1  0.40865000  0.97905000  0.14500000  1.0 -0.6166102537
O  O115  1  0.42241000  0.24871000  0.39450000  1.0 -0.5988693071
O  O116  1  0.49023000  0.27643000  0.44800000  1.0 -0.578158918
O  O117  1  0.69484000  0.94234000  0.41150000  1.0 -0.648460742
O  O118  1  0.73173000  0.99503000  0.43890000  1.0 -0.5988693071
O  O119  1  0.49023000  0.90563000  0.08140000  1.0 -0.5988693071
O  O120  1  0.46746000  0.92416000  0.03330000  1.0 -0.6078891716
O  O121  1  0.58705000  0.08795000  0.06270000  1.0 -0.648460742
O  O122  1  0.62814000  0.14216000  0.15262000  1.0 -0.5988693071
O  O123  1  0.74938000  0.89291000  0.31027000  1.0 -0.5988693071
O  O124  1  0.76588000  0.96268000  0.37720000  1.0 -0.5903771815
O  O125  1  0.37485000  0.01235000  0.07610000  1.0 -0.6909033563
O  O126  1  0.40080000  0.99230000  0.03090000  1.0 -0.6395382825
O  O127  1  0.63804000  0.23554000  0.15010000  1.0 -1.0314599783
O  O128  1  0.65260000  0.14380000  0.10440000  1.0 -1.008903699
O  O129  1  0.70918000  0.21218000  0.17300000  1.0 -1.060549407
O  O130  1  0.66666667  0.19135000  0.08097000  1.0 -0.9399526103
O  O131  1  0.66950000  0.25530000  0.08840000  1.0 -1.060549407
O  O132  1  0.64073000  0.09637000  0.01884000  1.0 -1.0398166943
O  O133  1  0.68839000  0.12919000  0.02480000  1.0 -1.0398166943
O  O134  1  0.68825000  0.03995000  0.98010000  1.0 -0.5903771815
O  O135  1  0.72905000  0.08405000  0.07040000  1.0 -0.6166102537
O  O136  1  0.99871000  0.10421000  0.32630000  1.0 -0.5988693071
O  O137  1  0.02643000  0.07843000  0.28620000  1.0 -0.578158918
O  O138  1  0.69234000  0.78084000  0.74750000  1.0 -0.648460742
O  O139  1  0.74503000  0.80613000  0.76330000  1.0 -0.5988693071
O  O140  1  0.65563000  0.07423000  0.91540000  1.0 -0.5988693071
O  O141  1  0.67416000  0.14086000  0.95670000  1.0 -0.6078891716
O  O142  1  0.83795000  0.27525000  0.00090000  1.0 -0.648460742
O  O143  1  0.89216000  0.23954000  0.01402000  1.0 -0.6078891716
O  O144  1  0.64291000  0.83264000  0.64353000  1.0 -0.5988693071
O  O145  1  0.71268000  0.83548000  0.69680000  1.0 -0.5903771815
O  O146  1  0.76235000  0.18625000  0.13750000  1.0 -0.6909033563
O  O147  1  0.74230000  0.21140000  0.09150000  1.0 -0.6395382825
O  O148  1  0.08544000  0.48794000  0.84990000  1.0 -1.0314599783
O  O149  1  0.03940000  0.54820000  0.89560000  1.0 -1.008903699
O  O150  1  0.03918000  0.53618000  0.82700000  1.0 -1.060549407
O  O151  1  0.11038000  0.58571000  0.91903000  1.0 -0.9399526103
O  O152  1  0.16690000  0.58110000  0.91160000  1.0 -1.0476125571
O  O153  1  0.07753000  0.62189000  0.98116000  1.0 -1.0398166943
O  O154  1  0.10439000  0.66359000  0.97520000  1.0 -1.0398166943
O  O155  1  0.05985000  0.70815000  0.01990000  1.0 -0.5903771815
O  O156  1  0.01365000  0.65865000  0.92960000  1.0 -0.6166102537
O  O157  1  0.77791000  0.67241000  0.67370000  1.0 -0.5988693071
O  O158  1  0.79223000  0.74023000  0.71380000  1.0 -0.5740175074
O  O159  1  0.03334000  0.94484000  0.25250000  1.0 -0.648460742
O  O160  1  0.04283000  0.98173000  0.23670000  1.0 -0.5988693071
O  O161  1  0.15883000  0.74023000  0.08460000  1.0 -0.5988693071
O  O162  1  0.18416000  0.71746000  0.04330000  1.0 -0.6078891716
O  O163  1  0.27435000  0.83705000  0.99910000  1.0 -0.648460742
O  O164  1  0.22552000  0.87814000  0.98598000  1.0 -0.6078891716
O  O165  1  0.18911000  0.99938000  0.35647000  1.0 -0.5988693071
O  O166  1  0.13868000  0.01588000  0.30320000  1.0 -0.5903771815
O  O167  1  0.04875000  0.62485000  0.86250000  1.0 -0.6909033563
O  O168  1  0.11990000  0.65080000  0.90850000  1.0 -0.6395382825
O  O169  1  0.73794000  0.83544000  0.34990000  1.0 -1.0314599783
O  O170  1  0.79820000  0.78940000  0.39560000  1.0 -1.0046081114
O  O171  1  0.78618000  0.78918000  0.32700000  1.0 -1.060549407
O  O172  1  0.83571000  0.86038000  0.41903000  1.0 -0.9399526103
O  O173  1  0.83110000  0.91690000  0.41160000  1.0 -1.0476125571
O  O174  1  0.87189000  0.82753000  0.48116000  1.0 -1.0476125571
O  O175  1  0.91359000  0.85439000  0.47520000  1.0 -1.0398166943
O  O176  1  0.95815000  0.80985000  0.51990000  1.0 -0.578158918
O  O177  1  0.90865000  0.76365000  0.42960000  1.0 -0.6166102537
O  O178  1  0.92241000  0.52791000  0.17370000  1.0 -0.5988693071
O  O179  1  0.99023000  0.54223000  0.21380000  1.0 -0.5740175074
O  O180  1  0.19484000  0.78334000  0.75250000  1.0 -0.648460742
O  O181  1  0.23173000  0.79283000  0.73670000  1.0 -0.5988693071
O  O182  1  0.99023000  0.90883000  0.58460000  1.0 -0.5988693071
O  O183  1  0.96746000  0.93416000  0.54330000  1.0 -0.6078891716
O  O184  1  0.08705000  0.02435000  0.49910000  1.0 -0.648460742
O  O185  1  0.12814000  0.97552000  0.48598000  1.0 -0.6078891716
O  O186  1  0.24938000  0.93911000  0.85647000  1.0 -0.5988693071
O  O187  1  0.26588000  0.88868000  0.80320000  1.0 -0.5903771815
O  O188  1  0.87485000  0.79875000  0.36250000  1.0 -0.6909033563
O  O189  1  0.90080000  0.86990000  0.40850000  1.0 -0.6395382825
O  O190  1  0.48554000  0.38804000  0.65010000  1.0 -1.0314599783
O  O191  1  0.39380000  0.40260000  0.60440000  1.0 -1.008903699
O  O192  1  0.46218000  0.45918000  0.67300000  1.0 -1.060549407
O  O193  1  0.44135000  0.41668000  0.58097000  1.0 -0.9399526103
O  O194  1  0.50530000  0.41950000  0.58840000  1.0 -1.0476125571
O  O195  1  0.34637000  0.39073000  0.51884000  1.0 -1.0398166943
O  O196  1  0.37919000  0.43839000  0.52480000  1.0 -1.0398166943
O  O197  1  0.28995000  0.43825000  0.48010000  1.0 -0.5903771815
O  O198  1  0.33405000  0.47905000  0.57040000  1.0 -0.6166102537
O  O199  1  0.35421000  0.74871000  0.82630000  1.0 -0.5988693071
O  O200  1  0.32843000  0.77643000  0.78620000  1.0 -0.578158918
O  O201  1  0.03084000  0.44234000  0.24750000  1.0 -0.648460742
O  O202  1  0.05613000  0.49503000  0.26330000  1.0 -0.5988693071
O  O203  1  0.32423000  0.40563000  0.41540000  1.0 -0.5988693071
O  O204  1  0.39086000  0.42416000  0.45670000  1.0 -0.6078891716
O  O205  1  0.52525000  0.58795000  0.50090000  1.0 -0.648460742
O  O206  1  0.48954000  0.64216000  0.51402000  1.0 -0.6078891716
O  O207  1  0.08264000  0.39291000  0.14353000  1.0 -0.5988693071
O  O208  1  0.08548000  0.46268000  0.19680000  1.0 -0.5903771815
O  O209  1  0.43625000  0.51235000  0.63750000  1.0 -0.6909033563
O  O210  1  0.46140000  0.49230000  0.59150000  1.0 -0.6395382825
O  O211  1  0.58544000  0.73554000  0.59750000  1.0 -1.0398166943
O  O212  1  0.53940000  0.64380000  0.49120000  1.0 -1.008903699
O  O213  1  0.53918000  0.71218000  0.50300000  1.0 -1.0652906466
O  O214  1  0.61038000  0.69135000  0.52467000  1.0 -0.9324264495
O  O215  1  0.66690000  0.75530000  0.58580000  1.0 -1.0476125571
O  O216  1  0.57753000  0.59637000  0.45564000  1.0 -1.0398166943
O  O217  1  0.60439000  0.62919000  0.44080000  1.0 -1.0476125571
O  O218  1  0.55985000  0.53995000  0.35170000  1.0 -0.578158918
O  O219  1  0.51365000  0.58405000  0.35500000  1.0 -0.6078891716
O  O220  1  0.27791000  0.60421000  0.10550000  1.0 -0.5988693071
O  O221  1  0.29223000  0.57843000  0.05200000  1.0 -0.578158918
O  O222  1  0.53334000  0.28084000  0.08850000  1.0 -0.648460742
O  O223  1  0.54283000  0.30613000  0.06110000  1.0 -0.5988693071
O  O224  1  0.65883000  0.57423000  0.41860000  1.0 -0.5988693071
O  O225  1  0.68416000  0.64086000  0.46670000  1.0 -0.6078891716
O  O226  1  0.77435000  0.77525000  0.43730000  1.0 -0.648460742
O  O227  1  0.72552000  0.73954000  0.34738000  1.0 -0.6078891716
O  O228  1  0.68911000  0.33264000  0.18973000  1.0 -0.5988693071
O  O229  1  0.63868000  0.33548000  0.12280000  1.0 -0.5903771815
O  O230  1  0.54875000  0.68625000  0.42390000  1.0 -0.6909033563
O  O231  1  0.61990000  0.71140000  0.46910000  1.0 -0.6395382825
O  O232  1  0.13804000  0.98794000  0.40250000  1.0 -1.0398166943
O  O233  1  0.15260000  0.04820000  0.50880000  1.0 -1.008903699
O  O234  1  0.20918000  0.03618000  0.49700000  1.0 -1.060549407
O  O235  1  0.16668000  0.08571000  0.47533000  1.0 -0.9399526103
O  O236  1  0.16950000  0.08110000  0.41420000  1.0 -1.0476125571
O  O237  1  0.14073000  0.12189000  0.54436000  1.0 -1.0398166943
O  O238  1  0.18839000  0.16359000  0.55920000  1.0 -1.0398166943
O  O239  1  0.18825000  0.20815000  0.64830000  1.0 -0.5903771815
O  O240  1  0.22905000  0.15865000  0.64500000  1.0 -0.6166102537
O  O241  1  0.49871000  0.17241000  0.89450000  1.0 -0.5988693071
O  O242  1  0.52643000  0.24023000  0.94800000  1.0 -0.578158918
O  O243  1  0.19234000  0.44484000  0.91150000  1.0 -0.648460742
O  O244  1  0.24503000  0.48173000  0.93890000  1.0 -0.5988693071
O  O245  1  0.15563000  0.24023000  0.58140000  1.0 -0.5988693071
O  O246  1  0.17416000  0.21746000  0.53330000  1.0 -0.6078891716
O  O247  1  0.33795000  0.33705000  0.56270000  1.0 -0.648460742
O  O248  1  0.39216000  0.37814000  0.65262000  1.0 -0.6078891716
O  O249  1  0.14291000  0.49938000  0.81027000  1.0 -0.5988693071
O  O250  1  0.21268000  0.51588000  0.87720000  1.0 -0.5903771815
O  O251  1  0.26235000  0.12485000  0.57610000  1.0 -0.6909033563
O  O252  1  0.24230000  0.15080000  0.53090000  1.0 -0.6395382825
O  O253  1  0.76446000  0.91456000  0.40250000  1.0 -1.0398166943
O  O254  1  0.85620000  0.96060000  0.50880000  1.0 -1.008903699
O  O255  1  0.78782000  0.96082000  0.49700000  1.0 -1.0652906466
O  O256  1  0.80865000  0.88962000  0.47533000  1.0 -0.9324264495
O  O257  1  0.74470000  0.83310000  0.41420000  1.0 -1.0476125571
O  O258  1  0.90363000  0.92247000  0.54436000  1.0 -1.0398166943
O  O259  1  0.87081000  0.89561000  0.55920000  1.0 -1.0398166943
O  O260  1  0.96005000  0.94015000  0.64830000  1.0 -0.5903771815
O  O261  1  0.91595000  0.98635000  0.64500000  1.0 -0.6166102537
O  O262  1  0.89579000  0.22209000  0.89450000  1.0 -0.5988693071
O  O263  1  0.92157000  0.20777000  0.94800000  1.0 -0.578158918
O  O264  1  0.21916000  0.96666000  0.91150000  1.0 -0.648460742
O  O265  1  0.19387000  0.95717000  0.93890000  1.0 -0.5988693071
O  O266  1  0.92577000  0.84117000  0.58140000  1.0 -0.5988693071
O  O267  1  0.85914000  0.81584000  0.53330000  1.0 -0.6078891716
O  O268  1  0.72475000  0.72565000  0.56270000  1.0 -0.648460742
O  O269  1  0.76046000  0.77448000  0.65262000  1.0 -0.5988693071
O  O270  1  0.16736000  0.81089000  0.81027000  1.0 -0.5988693071
O  O271  1  0.16452000  0.86132000  0.87720000  1.0 -0.5903771815
O  O272  1  0.81375000  0.95125000  0.57610000  1.0 -0.6909033563
O  O273  1  0.78860000  0.88010000  0.53090000  1.0 -0.6395382825
O  O274  1  0.51206000  0.36196000  0.59750000  1.0 -1.0314599783
O  O275  1  0.45180000  0.34740000  0.49120000  1.0 -1.008903699
O  O276  1  0.46382000  0.29082000  0.50300000  1.0 -1.060549407
O  O277  1  0.41429000  0.33333333  0.52467000  1.0 -0.9399526103
O  O278  1  0.41890000  0.33050000  0.58580000  1.0 -1.0476125571
O  O279  1  0.37811000  0.35927000  0.45564000  1.0 -1.0398166943
O  O280  1  0.33641000  0.31161000  0.44080000  1.0 -1.0398166943
O  O281  1  0.29185000  0.31175000  0.35170000  1.0 -0.5903771815
O  O282  1  0.34135000  0.27095000  0.35500000  1.0 -0.6166102537
O  O283  1  0.32759000  0.00129000  0.10550000  1.0 -0.5988693071
O  O284  1  0.25977000  0.97357000  0.05200000  1.0 -0.5740175074
O  O285  1  0.05516000  0.30766000  0.08850000  1.0 -0.648460742
O  O286  1  0.01827000  0.25497000  0.06110000  1.0 -0.5988693071
O  O287  1  0.25977000  0.34437000  0.41860000  1.0 -0.5988693071
O  O288  1  0.28254000  0.32584000  0.46670000  1.0 -0.6078891716
O  O289  1  0.16295000  0.16205000  0.43730000  1.0 -0.648460742
O  O290  1  0.12186000  0.10784000  0.34738000  1.0 -0.6078891716
O  O291  1  0.00062000  0.35709000  0.18973000  1.0 -0.5988693071
O  O292  1  0.98412000  0.28732000  0.12280000  1.0 -0.5903771815
O  O293  1  0.37515000  0.23765000  0.42390000  1.0 -0.6909033563
O  O294  1  0.34920000  0.25770000  0.46910000  1.0 -0.6395382825
O  O295  1  0.11196000  0.01446000  0.34990000  1.0 -1.0314599783
O  O296  1  0.09740000  0.10620000  0.39560000  1.0 -1.008903699
O  O297  1  0.04082000  0.03782000  0.32700000  1.0 -1.060549407
O  O298  1  0.08332000  0.05865000  0.41903000  1.0 -0.9399526103
O  O299  1  0.08050000  0.99470000  0.41160000  1.0 -1.0398166943
O  O300  1  0.10927000  0.15363000  0.48116000  1.0 -1.0398166943
O  O301  1  0.06161000  0.12081000  0.47520000  1.0 -1.0398166943
O  O302  1  0.06175000  0.21005000  0.51990000  1.0 -0.5903771815
O  O303  1  0.02095000  0.16595000  0.42960000  1.0 -0.6166102537
O  O304  1  0.75129000  0.14579000  0.17370000  1.0 -0.5988693071
O  O305  1  0.72357000  0.17157000  0.21380000  1.0 -0.5740175074
O  O306  1  0.05766000  0.46916000  0.75250000  1.0 -0.648460742
O  O307  1  0.00497000  0.44387000  0.73670000  1.0 -0.5988693071
O  O308  1  0.09437000  0.17577000  0.58460000  1.0 -0.5988693071
O  O309  1  0.07584000  0.10914000  0.54330000  1.0 -0.6078891716
O  O310  1  0.91205000  0.97475000  0.49910000  1.0 -0.648460742
O  O311  1  0.85784000  0.01046000  0.48598000  1.0 -0.6078891716
O  O312  1  0.10709000  0.41736000  0.85647000  1.0 -0.5988693071
O  O313  1  0.03732000  0.41452000  0.80320000  1.0 -0.5903771815
O  O314  1  0.98765000  0.06375000  0.36250000  1.0 -0.6909033563
O  O315  1  0.00770000  0.03860000  0.40850000  1.0 -0.6395382825
O  O316  1  0.66456000  0.76206000  0.65010000  1.0 -1.0314599783
O  O317  1  0.71060000  0.70180000  0.60440000  1.0 -1.008903699
O  O318  1  0.71082000  0.71382000  0.67300000  1.0 -1.060549407
O  O319  1  0.63962000  0.66429000  0.58097000  1.0 -0.9324264495
O  O320  1  0.58310000  0.66890000  0.58840000  1.0 -1.0476125571
O  O321  1  0.67247000  0.62811000  0.51884000  1.0 -1.0314599783
O  O322  1  0.64561000  0.58641000  0.52480000  1.0 -1.0476125571
O  O323  1  0.69015000  0.54185000  0.48010000  1.0 -0.578158918
O  O324  1  0.73635000  0.59135000  0.57040000  1.0 -0.6166102537
O  O325  1  0.97209000  0.57759000  0.82630000  1.0 -0.5988693071
O  O326  1  0.95777000  0.50977000  0.78620000  1.0 -0.5740175074
O  O327  1  0.71666000  0.30516000  0.24750000  1.0 -0.648460742
O  O328  1  0.70717000  0.26827000  0.26330000  1.0 -0.5988693071
O  O329  1  0.59117000  0.50977000  0.41540000  1.0 -0.5988693071
O  O330  1  0.56584000  0.53254000  0.45670000  1.0 -0.6078891716
O  O331  1  0.47565000  0.41295000  0.50090000  1.0 -0.648460742
O  O332  1  0.52448000  0.37186000  0.51402000  1.0 -0.6078891716
O  O333  1  0.56089000  0.25062000  0.14353000  1.0 -0.5988693071
O  O334  1  0.61132000  0.23412000  0.19680000  1.0 -0.5903771815
O  O335  1  0.70125000  0.62515000  0.63750000  1.0 -0.6909033563
O  O336  1  0.63010000  0.59920000  0.59150000  1.0 -0.6395382825
