# DDEC6 charges by PACMAN v1.1 (https://github.com/mtap-research/PACMAN-charge/)
data_JOFQED_ASR_pacman
_symmetry_space_group_name_H-M   'P 1'
_cell_length_a   22.66500000
_cell_length_b   22.66500000
_cell_length_c   16.55990000
_cell_angle_alpha   90.00000000
_cell_angle_beta   90.00000000
_cell_angle_gamma   120.00000000
_symmetry_Int_Tables_number   1
_chemical_formula_structural   Eu6H69C90N3O32
_chemical_formula_sum   'Eu12 H138 C180 N6 O64'
_cell_volume   7367.15468040
_cell_formula_units_Z   2
loop_
 _symmetry_equiv_pos_site_id
 _symmetry_equiv_pos_as_xyz
  1  'x, y, z'
loop_
 _atom_site_type_symbol
 _atom_site_label
 _atom_site_symmetry_multiplicity
 _atom_site_fract_x
 _atom_site_fract_y
 _atom_site_fract_z
 _atom_site_occupancy
 _atom_site_charge
Eu  Eu1  1  0.60876000  0.21752000  0.45417000  1.0 2.1900330342
Eu  Eu2  1  0.60876000  0.39124000  0.45417000  1.0 2.1900330342
Eu  Eu3  1  0.78248000  0.39124000  0.45417000  1.0 2.1900330342
Eu  Eu4  1  0.39124000  0.78248000  0.95417000  1.0 2.1900330342
Eu  Eu5  1  0.39124000  0.60876000  0.95417000  1.0 2.1900330342
Eu  Eu6  1  0.21752000  0.60876000  0.95417000  1.0 2.1900330342
Eu  Eu7  1  0.72559000  0.27441000  0.64899000  1.0 2.1713724491
Eu  Eu8  1  0.54881000  0.27441000  0.64899000  1.0 2.1713724491
Eu  Eu9  1  0.72559000  0.45119000  0.64899000  1.0 2.1713724491
Eu  Eu10  1  0.27441000  0.72559000  0.14899000  1.0 2.1713724491
Eu  Eu11  1  0.45119000  0.72559000  0.14899000  1.0 2.1713724491
Eu  Eu12  1  0.27441000  0.54881000  0.14899000  1.0 2.1713724491
H  H1  1  0.86213000  0.20488000  0.01123000  1.0 0.2837689898
H  H2  1  0.67440000  0.14717000  0.23908000  1.0 0.1123679659
H  H3  1  0.62437000  0.10725000  0.05284000  1.0 0.0654268172
H  H4  1  0.53603000  0.99251000  0.03823000  1.0 0.0803685584
H  H5  1  0.66649000  0.92953000  0.10320000  1.0 0.0911150879
H  H6  1  0.74076000  0.03909000  0.16404000  1.0 0.0803685584
H  H7  1  0.67120000  0.10498000  0.00895000  1.0 0.0610605411
H  H8  1  0.57299000  0.00251000  0.99244000  1.0 0.0803685584
H  H9  1  0.69434000  0.03983000  0.22853000  1.0 0.0989220497
H  H10  1  0.63099000  0.92069000  0.16942000  1.0 0.0989220497
H  H11  1  0.79784000  0.13514000  0.01525000  1.0 0.2837689898
H  H12  1  0.34275000  0.13787000  0.01123000  1.0 0.2837689898
H  H13  1  0.47277000  0.32560000  0.23908000  1.0 0.1123679659
H  H14  1  0.48288000  0.37563000  0.05284000  1.0 0.0654268172
H  H15  1  0.45648000  0.46397000  0.03823000  1.0 0.0803685584
H  H16  1  0.26304000  0.33351000  0.10320000  1.0 0.0911150879
H  H17  1  0.29833000  0.25924000  0.16404000  1.0 0.0803685584
H  H18  1  0.43378000  0.32880000  0.00895000  1.0 0.0610605411
H  H19  1  0.42952000  0.42701000  0.99244000  1.0 0.0803685584
H  H20  1  0.34549000  0.30566000  0.22853000  1.0 0.0989220497
H  H21  1  0.28970000  0.36901000  0.16942000  1.0 0.0989220497
H  H22  1  0.33730000  0.20216000  0.01525000  1.0 0.2837689898
H  H23  1  0.79512000  0.65725000  0.01123000  1.0 0.2837689898
H  H24  1  0.85283000  0.52723000  0.23908000  1.0 0.1123679659
H  H25  1  0.89275000  0.51712000  0.05284000  1.0 0.0654268172
H  H26  1  0.00749000  0.54352000  0.03823000  1.0 0.0803685584
H  H27  1  0.07047000  0.73696000  0.10320000  1.0 0.0911150879
H  H28  1  0.96091000  0.70167000  0.16404000  1.0 0.0803685584
H  H29  1  0.89502000  0.56622000  0.00895000  1.0 0.0610605411
H  H30  1  0.99749000  0.57048000  0.99244000  1.0 0.0803685584
H  H31  1  0.96017000  0.65451000  0.22853000  1.0 0.0989220497
H  H32  1  0.07931000  0.71030000  0.16942000  1.0 0.0989220497
H  H33  1  0.86486000  0.66270000  0.01525000  1.0 0.2837689898
H  H34  1  0.13787000  0.79512000  0.51123000  1.0 0.2837689898
H  H35  1  0.32560000  0.85283000  0.73908000  1.0 0.1123679659
H  H36  1  0.37563000  0.89275000  0.55284000  1.0 0.0654268172
H  H37  1  0.46397000  0.00749000  0.53823000  1.0 0.0803685584
H  H38  1  0.33351000  0.07047000  0.60320000  1.0 0.0911150879
H  H39  1  0.25924000  0.96091000  0.66404000  1.0 0.0803685584
H  H40  1  0.32880000  0.89502000  0.50895000  1.0 0.0610605411
H  H41  1  0.42701000  0.99749000  0.49244000  1.0 0.0803685584
H  H42  1  0.30566000  0.96017000  0.72853000  1.0 0.0989220497
H  H43  1  0.36901000  0.07931000  0.66942000  1.0 0.0989220497
H  H44  1  0.20216000  0.86486000  0.51525000  1.0 0.2837689898
H  H45  1  0.65725000  0.86213000  0.51123000  1.0 0.2837689898
H  H46  1  0.52723000  0.67440000  0.73908000  1.0 0.1123679659
H  H47  1  0.51712000  0.62437000  0.55284000  1.0 0.0654268172
H  H48  1  0.54352000  0.53603000  0.53823000  1.0 0.0803685584
H  H49  1  0.73696000  0.66649000  0.60320000  1.0 0.0911150879
H  H50  1  0.70167000  0.74076000  0.66404000  1.0 0.0803685584
H  H51  1  0.56622000  0.67120000  0.50895000  1.0 0.0610605411
H  H52  1  0.57048000  0.57299000  0.49244000  1.0 0.0803685584
H  H53  1  0.65451000  0.69434000  0.72853000  1.0 0.0989220497
H  H54  1  0.71030000  0.63099000  0.66942000  1.0 0.0989220497
H  H55  1  0.66270000  0.79784000  0.51525000  1.0 0.2837689898
H  H56  1  0.20488000  0.34275000  0.51123000  1.0 0.2837689898
H  H57  1  0.14717000  0.47277000  0.73908000  1.0 0.1123679659
H  H58  1  0.10725000  0.48288000  0.55284000  1.0 0.0654268172
H  H59  1  0.99251000  0.45648000  0.53823000  1.0 0.0803685584
H  H60  1  0.92953000  0.26304000  0.60320000  1.0 0.0911150879
H  H61  1  0.03909000  0.29833000  0.66404000  1.0 0.0803685584
H  H62  1  0.10498000  0.43378000  0.50895000  1.0 0.0610605411
H  H63  1  0.00251000  0.42952000  0.49244000  1.0 0.0803685584
H  H64  1  0.03983000  0.34549000  0.72853000  1.0 0.0989220497
H  H65  1  0.92069000  0.28970000  0.66942000  1.0 0.0989220497
H  H66  1  0.13514000  0.33730000  0.51525000  1.0 0.2837689898
H  H67  1  0.34275000  0.20488000  0.01123000  1.0 0.2837689898
H  H68  1  0.47277000  0.14717000  0.23908000  1.0 0.1123679659
H  H69  1  0.48288000  0.10725000  0.05284000  1.0 0.0654268172
H  H70  1  0.45648000  0.99251000  0.03823000  1.0 0.0803685584
H  H71  1  0.26304000  0.92953000  0.10320000  1.0 0.0911150879
H  H72  1  0.29833000  0.03909000  0.16404000  1.0 0.0803685584
H  H73  1  0.43378000  0.10498000  0.00895000  1.0 0.0610605411
H  H74  1  0.42952000  0.00251000  0.99244000  1.0 0.0803685584
H  H75  1  0.34549000  0.03983000  0.22853000  1.0 0.0989220497
H  H76  1  0.28970000  0.92069000  0.16942000  1.0 0.0989220497
H  H77  1  0.33730000  0.13514000  0.01525000  1.0 0.2837689898
H  H78  1  0.79512000  0.13787000  0.01123000  1.0 0.2837689898
H  H79  1  0.85283000  0.32560000  0.23908000  1.0 0.1123679659
H  H80  1  0.89275000  0.37563000  0.05284000  1.0 0.0654268172
H  H81  1  0.00749000  0.46397000  0.03823000  1.0 0.0803685584
H  H82  1  0.07047000  0.33351000  0.10320000  1.0 0.0911150879
H  H83  1  0.96091000  0.25924000  0.16404000  1.0 0.0803685584
H  H84  1  0.89502000  0.32880000  0.00895000  1.0 0.0610605411
H  H85  1  0.99749000  0.42701000  0.99244000  1.0 0.0803685584
H  H86  1  0.96017000  0.30566000  0.22853000  1.0 0.0989220497
H  H87  1  0.07931000  0.36901000  0.16942000  1.0 0.0989220497
H  H88  1  0.86486000  0.20216000  0.01525000  1.0 0.2837689898
H  H89  1  0.86213000  0.65725000  0.01123000  1.0 0.2837689898
H  H90  1  0.67440000  0.52723000  0.23908000  1.0 0.1123679659
H  H91  1  0.62437000  0.51712000  0.05284000  1.0 0.0654268172
H  H92  1  0.53603000  0.54352000  0.03823000  1.0 0.0803685584
H  H93  1  0.66649000  0.73696000  0.10320000  1.0 0.0911150879
H  H94  1  0.74076000  0.70167000  0.16404000  1.0 0.0803685584
H  H95  1  0.67120000  0.56622000  0.00895000  1.0 0.0610605411
H  H96  1  0.57299000  0.57048000  0.99244000  1.0 0.0803685584
H  H97  1  0.69434000  0.65451000  0.22853000  1.0 0.0989220497
H  H98  1  0.63099000  0.71030000  0.16942000  1.0 0.0989220497
H  H99  1  0.79784000  0.66270000  0.01525000  1.0 0.2837689898
H  H100  1  0.65725000  0.79512000  0.51123000  1.0 0.2837689898
H  H101  1  0.52723000  0.85283000  0.73908000  1.0 0.1123679659
H  H102  1  0.51712000  0.89275000  0.55284000  1.0 0.0654268172
H  H103  1  0.54352000  0.00749000  0.53823000  1.0 0.0803685584
H  H104  1  0.73696000  0.07047000  0.60320000  1.0 0.0911150879
H  H105  1  0.70167000  0.96091000  0.66404000  1.0 0.0803685584
H  H106  1  0.56622000  0.89502000  0.50895000  1.0 0.0610605411
H  H107  1  0.57048000  0.99749000  0.49244000  1.0 0.0803685584
H  H108  1  0.65451000  0.96017000  0.72853000  1.0 0.0989220497
H  H109  1  0.71030000  0.07931000  0.66942000  1.0 0.0989220497
H  H110  1  0.66270000  0.86486000  0.51525000  1.0 0.2837689898
H  H111  1  0.20488000  0.86213000  0.51123000  1.0 0.2837689898
H  H112  1  0.14717000  0.67440000  0.73908000  1.0 0.1123679659
H  H113  1  0.10725000  0.62437000  0.55284000  1.0 0.0654268172
H  H114  1  0.99251000  0.53603000  0.53823000  1.0 0.0803685584
H  H115  1  0.92953000  0.66649000  0.60320000  1.0 0.0911150879
H  H116  1  0.03909000  0.74076000  0.66404000  1.0 0.0803685584
H  H117  1  0.10498000  0.67120000  0.50895000  1.0 0.0610605411
H  H118  1  0.00251000  0.57299000  0.49244000  1.0 0.0803685584
H  H119  1  0.03983000  0.69434000  0.72853000  1.0 0.0989220497
H  H120  1  0.92069000  0.63099000  0.66942000  1.0 0.0989220497
H  H121  1  0.13514000  0.79784000  0.51525000  1.0 0.2837689898
H  H122  1  0.13787000  0.34275000  0.51123000  1.0 0.2837689898
H  H123  1  0.32560000  0.47277000  0.73908000  1.0 0.1123679659
H  H124  1  0.37563000  0.48288000  0.55284000  1.0 0.0654268172
H  H125  1  0.46397000  0.45648000  0.53823000  1.0 0.0803685584
H  H126  1  0.33351000  0.26304000  0.60320000  1.0 0.0911150879
H  H127  1  0.25924000  0.29833000  0.66404000  1.0 0.0803685584
H  H128  1  0.32880000  0.43378000  0.50895000  1.0 0.0610605411
H  H129  1  0.42701000  0.42952000  0.49244000  1.0 0.0803685584
H  H130  1  0.30566000  0.34549000  0.72853000  1.0 0.0989220497
H  H131  1  0.36901000  0.28970000  0.66942000  1.0 0.0989220497
H  H132  1  0.20216000  0.33730000  0.51525000  1.0 0.2837689898
H  H133  1  0.56736000  0.13472000  0.77902000  1.0 0.1208925254
H  H134  1  0.56736000  0.43264000  0.77902000  1.0 0.1208925254
H  H135  1  0.86528000  0.43264000  0.77902000  1.0 0.1208925254
H  H136  1  0.43264000  0.86528000  0.27902000  1.0 0.1208925254
H  H137  1  0.43264000  0.56736000  0.27902000  1.0 0.1208925254
H  H138  1  0.13472000  0.56736000  0.27902000  1.0 0.1208925254
C  C1  1  0.71780000  0.17660000  0.21610000  1.0 -0.1428970663
C  C2  1  0.73800000  0.15540000  0.14920000  1.0 -0.0408492631
C  C3  1  0.69130000  0.08520000  0.11650000  1.0 0.0203253545
C  C4  1  0.63000000  0.07100000  0.07200000  1.0 -0.0794237506
C  C5  1  0.57900000  0.00300000  0.05900000  1.0 -0.0514616587
C  C6  1  0.59480000  0.95250000  0.07720000  1.0 -0.0408492631
C  C7  1  0.53680000  0.88000000  0.05670000  1.0 0.5712598867
C  C8  1  0.65500000  0.96500000  0.10400000  1.0 -0.0908323023
C  C9  1  0.70200000  0.03100000  0.13300000  1.0 -0.0514616587
C  C10  1  0.65770000  0.07050000  0.04900000  1.0 -0.0794237506
C  C11  1  0.60440000  0.00810000  0.03400000  1.0 -0.0514616587
C  C12  1  0.67690000  0.03060000  0.17500000  1.0 -0.0794237506
C  C13  1  0.63250000  0.95900000  0.14400000  1.0 -0.0271174038
C  C14  1  0.45880000  0.28220000  0.21610000  1.0 -0.1428970663
C  C15  1  0.41740000  0.26200000  0.14920000  1.0 -0.0408492631
C  C16  1  0.39390000  0.30870000  0.11650000  1.0 0.0203253545
C  C17  1  0.44100000  0.37000000  0.07200000  1.0 -0.0794237506
C  C18  1  0.42400000  0.42100000  0.05900000  1.0 -0.0514616587
C  C19  1  0.35770000  0.40520000  0.07720000  1.0 -0.0408492631
C  C20  1  0.34320000  0.46320000  0.05670000  1.0 0.5712598867
C  C21  1  0.31000000  0.34500000  0.10400000  1.0 -0.0908323023
C  C22  1  0.32900000  0.29800000  0.13300000  1.0 -0.0514616587
C  C23  1  0.41280000  0.34230000  0.04900000  1.0 -0.0794237506
C  C24  1  0.40370000  0.39560000  0.03400000  1.0 -0.0514616587
C  C25  1  0.35370000  0.32310000  0.17500000  1.0 -0.0794237506
C  C26  1  0.32650000  0.36750000  0.14400000  1.0 -0.0271174038
C  C27  1  0.82340000  0.54120000  0.21610000  1.0 -0.1428970663
C  C28  1  0.84460000  0.58260000  0.14920000  1.0 -0.0408492631
C  C29  1  0.91480000  0.60610000  0.11650000  1.0 0.0203253545
C  C30  1  0.92900000  0.55900000  0.07200000  1.0 -0.0794237506
C  C31  1  0.99700000  0.57600000  0.05900000  1.0 -0.0514616587
C  C32  1  0.04750000  0.64230000  0.07720000  1.0 -0.0408492631
C  C33  1  0.12000000  0.65680000  0.05670000  1.0 0.5712598867
C  C34  1  0.03500000  0.69000000  0.10400000  1.0 -0.0908323023
C  C35  1  0.96900000  0.67100000  0.13300000  1.0 -0.0514616587
C  C36  1  0.92950000  0.58720000  0.04900000  1.0 -0.0794237506
C  C37  1  0.99190000  0.59630000  0.03400000  1.0 -0.0514616587
C  C38  1  0.96940000  0.64630000  0.17500000  1.0 -0.0794237506
C  C39  1  0.04100000  0.67350000  0.14400000  1.0 -0.0271174038
C  C40  1  0.28220000  0.82340000  0.71610000  1.0 -0.1428970663
C  C41  1  0.26200000  0.84460000  0.64920000  1.0 -0.0408492631
C  C42  1  0.30870000  0.91480000  0.61650000  1.0 0.0203253545
C  C43  1  0.37000000  0.92900000  0.57200000  1.0 -0.0794237506
C  C44  1  0.42100000  0.99700000  0.55900000  1.0 -0.0514616587
C  C45  1  0.40520000  0.04750000  0.57720000  1.0 -0.0408492631
C  C46  1  0.46320000  0.12000000  0.55670000  1.0 0.5712598867
C  C47  1  0.34500000  0.03500000  0.60400000  1.0 -0.0908323023
C  C48  1  0.29800000  0.96900000  0.63300000  1.0 -0.0514616587
C  C49  1  0.34230000  0.92950000  0.54900000  1.0 -0.0794237506
C  C50  1  0.39560000  0.99190000  0.53400000  1.0 -0.0514616587
C  C51  1  0.32310000  0.96940000  0.67500000  1.0 -0.0794237506
C  C52  1  0.36750000  0.04100000  0.64400000  1.0 -0.0271174038
C  C53  1  0.54120000  0.71780000  0.71610000  1.0 -0.1428970663
C  C54  1  0.58260000  0.73800000  0.64920000  1.0 -0.0408492631
C  C55  1  0.60610000  0.69130000  0.61650000  1.0 0.0203253545
C  C56  1  0.55900000  0.63000000  0.57200000  1.0 -0.0794237506
C  C57  1  0.57600000  0.57900000  0.55900000  1.0 -0.0514616587
C  C58  1  0.64230000  0.59480000  0.57720000  1.0 -0.0408492631
C  C59  1  0.65680000  0.53680000  0.55670000  1.0 0.5712598867
C  C60  1  0.69000000  0.65500000  0.60400000  1.0 -0.0908323023
C  C61  1  0.67100000  0.70200000  0.63300000  1.0 -0.0514616587
C  C62  1  0.58720000  0.65770000  0.54900000  1.0 -0.0794237506
C  C63  1  0.59630000  0.60440000  0.53400000  1.0 -0.0514616587
C  C64  1  0.64630000  0.67690000  0.67500000  1.0 -0.0794237506
C  C65  1  0.67350000  0.63250000  0.64400000  1.0 -0.0271174038
C  C66  1  0.17660000  0.45880000  0.71610000  1.0 -0.1428970663
C  C67  1  0.15540000  0.41740000  0.64920000  1.0 -0.0408492631
C  C68  1  0.08520000  0.39390000  0.61650000  1.0 0.0203253545
C  C69  1  0.07100000  0.44100000  0.57200000  1.0 -0.0794237506
C  C70  1  0.00300000  0.42400000  0.55900000  1.0 -0.0514616587
C  C71  1  0.95250000  0.35770000  0.57720000  1.0 -0.0408492631
C  C72  1  0.88000000  0.34320000  0.55670000  1.0 0.5712598867
C  C73  1  0.96500000  0.31000000  0.60400000  1.0 -0.0908323023
C  C74  1  0.03100000  0.32900000  0.63300000  1.0 -0.0514616587
C  C75  1  0.07050000  0.41280000  0.54900000  1.0 -0.0794237506
C  C76  1  0.00810000  0.40370000  0.53400000  1.0 -0.0514616587
C  C77  1  0.03060000  0.35370000  0.67500000  1.0 -0.0794237506
C  C78  1  0.95900000  0.32650000  0.64400000  1.0 -0.0271174038
C  C79  1  0.45880000  0.17660000  0.21610000  1.0 -0.1428970663
C  C80  1  0.41740000  0.15540000  0.14920000  1.0 -0.0408492631
C  C81  1  0.39390000  0.08520000  0.11650000  1.0 0.0203253545
C  C82  1  0.44100000  0.07100000  0.07200000  1.0 -0.0794237506
C  C83  1  0.42400000  0.00300000  0.05900000  1.0 -0.0514616587
C  C84  1  0.35770000  0.95250000  0.07720000  1.0 -0.0408492631
C  C85  1  0.34320000  0.88000000  0.05670000  1.0 0.5712598867
C  C86  1  0.31000000  0.96500000  0.10400000  1.0 -0.0908323023
C  C87  1  0.32900000  0.03100000  0.13300000  1.0 -0.0514616587
C  C88  1  0.41280000  0.07050000  0.04900000  1.0 -0.0794237506
C  C89  1  0.40370000  0.00810000  0.03400000  1.0 -0.0514616587
C  C90  1  0.35370000  0.03060000  0.17500000  1.0 -0.0794237506
C  C91  1  0.32650000  0.95900000  0.14400000  1.0 -0.0271174038
C  C92  1  0.82340000  0.28220000  0.21610000  1.0 -0.1428970663
C  C93  1  0.84460000  0.26200000  0.14920000  1.0 -0.0408492631
C  C94  1  0.91480000  0.30870000  0.11650000  1.0 0.0203253545
C  C95  1  0.92900000  0.37000000  0.07200000  1.0 -0.0794237506
C  C96  1  0.99700000  0.42100000  0.05900000  1.0 -0.0514616587
C  C97  1  0.04750000  0.40520000  0.07720000  1.0 -0.0408492631
C  C98  1  0.12000000  0.46320000  0.05670000  1.0 0.5712598867
C  C99  1  0.03500000  0.34500000  0.10400000  1.0 -0.0908323023
C  C100  1  0.96900000  0.29800000  0.13300000  1.0 -0.0514616587
C  C101  1  0.92950000  0.34230000  0.04900000  1.0 -0.0794237506
C  C102  1  0.99190000  0.39560000  0.03400000  1.0 -0.0514616587
C  C103  1  0.96940000  0.32310000  0.17500000  1.0 -0.0794237506
C  C104  1  0.04100000  0.36750000  0.14400000  1.0 -0.0271174038
C  C105  1  0.71780000  0.54120000  0.21610000  1.0 -0.1428970663
C  C106  1  0.73800000  0.58260000  0.14920000  1.0 -0.0408492631
C  C107  1  0.69130000  0.60610000  0.11650000  1.0 0.0203253545
C  C108  1  0.63000000  0.55900000  0.07200000  1.0 -0.0794237506
C  C109  1  0.57900000  0.57600000  0.05900000  1.0 -0.0514616587
C  C110  1  0.59480000  0.64230000  0.07720000  1.0 -0.0408492631
C  C111  1  0.53680000  0.65680000  0.05670000  1.0 0.5712598867
C  C112  1  0.65500000  0.69000000  0.10400000  1.0 -0.0908323023
C  C113  1  0.70200000  0.67100000  0.13300000  1.0 -0.0514616587
C  C114  1  0.65770000  0.58720000  0.04900000  1.0 -0.0794237506
C  C115  1  0.60440000  0.59630000  0.03400000  1.0 -0.0514616587
C  C116  1  0.67690000  0.64630000  0.17500000  1.0 -0.0794237506
C  C117  1  0.63250000  0.67350000  0.14400000  1.0 -0.0271174038
C  C118  1  0.54120000  0.82340000  0.71610000  1.0 -0.1428970663
C  C119  1  0.58260000  0.84460000  0.64920000  1.0 -0.0408492631
C  C120  1  0.60610000  0.91480000  0.61650000  1.0 0.0203253545
C  C121  1  0.55900000  0.92900000  0.57200000  1.0 -0.0794237506
C  C122  1  0.57600000  0.99700000  0.55900000  1.0 -0.0514616587
C  C123  1  0.64230000  0.04750000  0.57720000  1.0 -0.0408492631
C  C124  1  0.65680000  0.12000000  0.55670000  1.0 0.5712598867
C  C125  1  0.69000000  0.03500000  0.60400000  1.0 -0.0908323023
C  C126  1  0.67100000  0.96900000  0.63300000  1.0 -0.0514616587
C  C127  1  0.58720000  0.92950000  0.54900000  1.0 -0.0794237506
C  C128  1  0.59630000  0.99190000  0.53400000  1.0 -0.0514616587
C  C129  1  0.64630000  0.96940000  0.67500000  1.0 -0.0794237506
C  C130  1  0.67350000  0.04100000  0.64400000  1.0 -0.0271174038
C  C131  1  0.17660000  0.71780000  0.71610000  1.0 -0.1428970663
C  C132  1  0.15540000  0.73800000  0.64920000  1.0 -0.0408492631
C  C133  1  0.08520000  0.69130000  0.61650000  1.0 0.0203253545
C  C134  1  0.07100000  0.63000000  0.57200000  1.0 -0.0794237506
C  C135  1  0.00300000  0.57900000  0.55900000  1.0 -0.0514616587
C  C136  1  0.95250000  0.59480000  0.57720000  1.0 -0.0408492631
C  C137  1  0.88000000  0.53680000  0.55670000  1.0 0.5712598867
C  C138  1  0.96500000  0.65500000  0.60400000  1.0 -0.0908323023
C  C139  1  0.03100000  0.70200000  0.63300000  1.0 -0.0514616587
C  C140  1  0.07050000  0.65770000  0.54900000  1.0 -0.0794237506
C  C141  1  0.00810000  0.60440000  0.53400000  1.0 -0.0514616587
C  C142  1  0.03060000  0.67690000  0.67500000  1.0 -0.0794237506
C  C143  1  0.95900000  0.63250000  0.64400000  1.0 -0.0271174038
C  C144  1  0.28220000  0.45880000  0.71610000  1.0 -0.1428970663
C  C145  1  0.26200000  0.41740000  0.64920000  1.0 -0.0408492631
C  C146  1  0.30870000  0.39390000  0.61650000  1.0 0.0203253545
C  C147  1  0.37000000  0.44100000  0.57200000  1.0 -0.0794237506
C  C148  1  0.42100000  0.42400000  0.55900000  1.0 -0.0514616587
C  C149  1  0.40520000  0.35770000  0.57720000  1.0 -0.0408492631
C  C150  1  0.46320000  0.34320000  0.55670000  1.0 0.5712598867
C  C151  1  0.34500000  0.31000000  0.60400000  1.0 -0.0908323023
C  C152  1  0.29800000  0.32900000  0.63300000  1.0 -0.0514616587
C  C153  1  0.34230000  0.41280000  0.54900000  1.0 -0.0794237506
C  C154  1  0.39560000  0.40370000  0.53400000  1.0 -0.0514616587
C  C155  1  0.32310000  0.35370000  0.67500000  1.0 -0.0794237506
C  C156  1  0.36750000  0.32650000  0.64400000  1.0 -0.0271174038
C  C157  1  0.59110000  0.18220000  0.76800000  1.0 0.4132715798
C  C158  1  0.59110000  0.40890000  0.76800000  1.0 0.4132715798
C  C159  1  0.81780000  0.40890000  0.76800000  1.0 0.4157571948
C  C160  1  0.40890000  0.81780000  0.26800000  1.0 0.4132715798
C  C161  1  0.40890000  0.59110000  0.26800000  1.0 0.4132715798
C  C162  1  0.18220000  0.59110000  0.26800000  1.0 0.4132715798
C  C163  1  0.73975000  0.26025000  0.32400000  1.0 0.6523774223
C  C164  1  0.75960000  0.24040000  0.25120000  1.0 -0.0514616587
C  C165  1  0.80310000  0.19690000  0.11580000  1.0 0.0459498919
C  C166  1  0.52050000  0.26025000  0.32400000  1.0 0.6523774223
C  C167  1  0.48080000  0.24040000  0.25120000  1.0 -0.0514616587
C  C168  1  0.39380000  0.19690000  0.11580000  1.0 0.0439315864
C  C169  1  0.73975000  0.47950000  0.32400000  1.0 0.6523774223
C  C170  1  0.75960000  0.51920000  0.25120000  1.0 -0.0514616587
C  C171  1  0.80310000  0.60620000  0.11580000  1.0 0.0459498919
C  C172  1  0.26025000  0.73975000  0.82400000  1.0 0.6523774223
C  C173  1  0.24040000  0.75960000  0.75120000  1.0 -0.0514616587
C  C174  1  0.19690000  0.80310000  0.61580000  1.0 0.0439315864
C  C175  1  0.47950000  0.73975000  0.82400000  1.0 0.6523774223
C  C176  1  0.51920000  0.75960000  0.75120000  1.0 -0.0514616587
C  C177  1  0.60620000  0.80310000  0.61580000  1.0 0.0439315864
C  C178  1  0.26025000  0.52050000  0.82400000  1.0 0.6523774223
C  C179  1  0.24040000  0.48080000  0.75120000  1.0 -0.0514616587
C  C180  1  0.19690000  0.39380000  0.61580000  1.0 0.0439315864
N  N1  1  0.82405000  0.17595000  0.03580000  1.0 -0.5401138905
N  N2  1  0.35190000  0.17595000  0.03580000  1.0 -0.5401138905
N  N3  1  0.82405000  0.64810000  0.03580000  1.0 -0.5401138905
N  N4  1  0.17595000  0.82405000  0.53580000  1.0 -0.5401138905
N  N5  1  0.64810000  0.82405000  0.53580000  1.0 -0.5401138905
N  N6  1  0.17595000  0.35190000  0.53580000  1.0 -0.5401138905
O  O1  1  0.65480000  0.21000000  0.76150000  1.0 -0.5518926822
O  O2  1  0.67830000  0.22110000  0.35050000  1.0 -0.638992592
O  O3  1  0.50010000  0.87040000  0.99660000  1.0 -0.5778649294
O  O4  1  0.53360000  0.83400000  0.10740000  1.0 -0.6114479495
O  O5  1  0.55520000  0.34520000  0.76150000  1.0 -0.5518926822
O  O6  1  0.54280000  0.32170000  0.35050000  1.0 -0.638992592
O  O7  1  0.37030000  0.49990000  0.99660000  1.0 -0.5778649294
O  O8  1  0.30040000  0.46640000  0.10740000  1.0 -0.6114479495
O  O9  1  0.79000000  0.44480000  0.76150000  1.0 -0.5518926822
O  O10  1  0.77890000  0.45720000  0.35050000  1.0 -0.638992592
O  O11  1  0.12960000  0.62970000  0.99660000  1.0 -0.5778649294
O  O12  1  0.16600000  0.69960000  0.10740000  1.0 -0.6114479495
O  O13  1  0.34520000  0.79000000  0.26150000  1.0 -0.5518926822
O  O14  1  0.32170000  0.77890000  0.85050000  1.0 -0.638992592
O  O15  1  0.49990000  0.12960000  0.49660000  1.0 -0.5778649294
O  O16  1  0.46640000  0.16600000  0.60740000  1.0 -0.6114479495
O  O17  1  0.44480000  0.65480000  0.26150000  1.0 -0.5518926822
O  O18  1  0.45720000  0.67830000  0.85050000  1.0 -0.638992592
O  O19  1  0.62970000  0.50010000  0.49660000  1.0 -0.5778649294
O  O20  1  0.69960000  0.53360000  0.60740000  1.0 -0.6114479495
O  O21  1  0.21000000  0.55520000  0.26150000  1.0 -0.5518926822
O  O22  1  0.22110000  0.54280000  0.85050000  1.0 -0.638992592
O  O23  1  0.87040000  0.37030000  0.49660000  1.0 -0.5778649294
O  O24  1  0.83400000  0.30040000  0.60740000  1.0 -0.6114479495
O  O25  1  0.55520000  0.21000000  0.76150000  1.0 -0.5518926822
O  O26  1  0.54280000  0.22110000  0.35050000  1.0 -0.638992592
O  O27  1  0.37030000  0.87040000  0.99660000  1.0 -0.5778649294
O  O28  1  0.30040000  0.83400000  0.10740000  1.0 -0.6114479495
O  O29  1  0.79000000  0.34520000  0.76150000  1.0 -0.5518926822
O  O30  1  0.77890000  0.32170000  0.35050000  1.0 -0.638992592
O  O31  1  0.12960000  0.49990000  0.99660000  1.0 -0.5778649294
O  O32  1  0.16600000  0.46640000  0.10740000  1.0 -0.6114479495
O  O33  1  0.65480000  0.44480000  0.76150000  1.0 -0.5518926822
O  O34  1  0.67830000  0.45720000  0.35050000  1.0 -0.638992592
O  O35  1  0.50010000  0.62970000  0.99660000  1.0 -0.5778649294
O  O36  1  0.53360000  0.69960000  0.10740000  1.0 -0.6114479495
O  O37  1  0.44480000  0.79000000  0.26150000  1.0 -0.5518926822
O  O38  1  0.45720000  0.77890000  0.85050000  1.0 -0.638992592
O  O39  1  0.62970000  0.12960000  0.49660000  1.0 -0.5778649294
O  O40  1  0.69960000  0.16600000  0.60740000  1.0 -0.6114479495
O  O41  1  0.21000000  0.65480000  0.26150000  1.0 -0.5518926822
O  O42  1  0.22110000  0.67830000  0.85050000  1.0 -0.638992592
O  O43  1  0.87040000  0.50010000  0.49660000  1.0 -0.5778649294
O  O44  1  0.83400000  0.53360000  0.60740000  1.0 -0.6114479495
O  O45  1  0.34520000  0.55520000  0.26150000  1.0 -0.5518926822
O  O46  1  0.32170000  0.54280000  0.85050000  1.0 -0.638992592
O  O47  1  0.49990000  0.37030000  0.49660000  1.0 -0.5778649294
O  O48  1  0.46640000  0.30040000  0.60740000  1.0 -0.6114479495
O  O49  1  0.61220000  0.22440000  0.60120000  1.0 -0.962415024
O  O50  1  0.61220000  0.38780000  0.60120000  1.0 -0.962415024
O  O51  1  0.77560000  0.38780000  0.60120000  1.0 -0.962415024
O  O52  1  0.38780000  0.77560000  0.10120000  1.0 -0.962415024
O  O53  1  0.38780000  0.61220000  0.10120000  1.0 -0.962415024
O  O54  1  0.22440000  0.61220000  0.10120000  1.0 -0.962415024
O  O55  1  0.56320000  0.28160000  0.51110000  1.0 -0.9786114438
O  O56  1  0.71840000  0.43680000  0.51110000  1.0 -0.9786114438
O  O57  1  0.71840000  0.28160000  0.51110000  1.0 -0.9786114438
O  O58  1  0.43680000  0.71840000  0.01110000  1.0 -0.9786114438
O  O59  1  0.28160000  0.56320000  0.01110000  1.0 -0.9786114438
O  O60  1  0.28160000  0.71840000  0.01110000  1.0 -0.9786114438
O  O61  1  0.66666667  0.33333333  0.68630000  1.0 -1.0612979376
O  O62  1  0.66666667  0.33333333  0.41840000  1.0 -0.9956552827
O  O63  1  0.33333333  0.66666667  0.18630000  1.0 -1.0612979376
O  O64  1  0.33333333  0.66666667  0.91840000  1.0 -0.9956552827
