# DDEC6 charges by PACMAN v1.1 (https://github.com/mtap-research/PACMAN-charge/)
data_JOGHIY_FSR_pacman
_symmetry_space_group_name_H-M   'P 1'
_cell_length_a   11.37970000
_cell_length_b   11.37970000
_cell_length_c   8.10900000
_cell_angle_alpha   84.38850000
_cell_angle_beta   95.61150000
_cell_angle_gamma   54.81220000
_symmetry_Int_Tables_number   1
_chemical_formula_structural   CoH11C13(NO3)2
_chemical_formula_sum   'Co2 H22 C26 N4 O12'
_cell_volume   838.62083556
_cell_formula_units_Z   2
loop_
 _symmetry_equiv_pos_site_id
 _symmetry_equiv_pos_as_xyz
  1  'x, y, z'
loop_
 _atom_site_type_symbol
 _atom_site_label
 _atom_site_symmetry_multiplicity
 _atom_site_fract_x
 _atom_site_fract_y
 _atom_site_fract_z
 _atom_site_occupancy
 _atom_site_charge
Co  Co1  1  0.00000000  0.50000000  0.00000000  1.0 0.8463652121
Co  Co2  1  0.50000000  0.00000000  0.50000000  1.0 0.8463652121
H  H1  1  0.89260000  0.31420000  0.92070000  1.0 0.1415798788
H  H2  1  0.31420000  0.89260000  0.57930000  1.0 0.1415798788
H  H3  1  0.10740000  0.68580000  0.07930000  1.0 0.1415798788
H  H4  1  0.68580000  0.10740000  0.42070000  1.0 0.1415798788
H  H5  1  0.69910000  0.31130000  0.91620000  1.0 0.1415798788
H  H6  1  0.31130000  0.69910000  0.58380000  1.0 0.1415798788
H  H7  1  0.30090000  0.68870000  0.08380000  1.0 0.1415798788
H  H8  1  0.68870000  0.30090000  0.41620000  1.0 0.1415798788
H  H9  1  0.48570000  0.69450000  0.07590000  1.0 0.1415798788
H  H10  1  0.69450000  0.48570000  0.42410000  1.0 0.1415798788
H  H11  1  0.51430000  0.30550000  0.92410000  1.0 0.1415798788
H  H12  1  0.30550000  0.51430000  0.57590000  1.0 0.1415798788
H  H13  1  0.67940000  0.69740000  0.06870000  1.0 0.102554537
H  H14  1  0.69740000  0.67940000  0.43130000  1.0 0.102554537
H  H15  1  0.32060000  0.30260000  0.93130000  1.0 0.102554537
H  H16  1  0.30260000  0.32060000  0.56870000  1.0 0.102554537
H  H17  1  0.04050000  0.46790000  0.56360000  1.0 0.0375108333
H  H18  1  0.46790000  0.04050000  0.93640000  1.0 0.0375108333
H  H19  1  0.95950000  0.53210000  0.43640000  1.0 0.0375108333
H  H20  1  0.53210000  0.95950000  0.06360000  1.0 0.0375108333
H  H21  1  0.72680000  0.72680000  0.75000000  1.0 0.1135434495
H  H22  1  0.27320000  0.27320000  0.25000000  1.0 0.1135434495
C  C1  1  0.80798000  0.39178000  0.94950000  1.0 0.0913830089
C  C2  1  0.39178000  0.80798000  0.55050000  1.0 0.0913830089
C  C3  1  0.19202000  0.60822000  0.05050000  1.0 0.0913830089
C  C4  1  0.60822000  0.19202000  0.44950000  1.0 0.0913830089
C  C5  1  0.69635000  0.38935000  0.94690000  1.0 -0.1895127458
C  C6  1  0.38935000  0.69635000  0.55310000  1.0 -0.1895127458
C  C7  1  0.30365000  0.61065000  0.05310000  1.0 -0.1895127458
C  C8  1  0.61065000  0.30365000  0.44690000  1.0 -0.1895127458
C  C9  1  0.56555000  0.50115000  0.99700000  1.0 0.102554537
C  C10  1  0.50115000  0.56555000  0.50300000  1.0 0.102554537
C  C11  1  0.43445000  0.49885000  0.00300000  1.0 0.102554537
C  C12  1  0.49885000  0.43445000  0.49700000  1.0 0.102554537
C  C13  1  0.56938000  0.61778000  0.04460000  1.0 -0.1963085396
C  C14  1  0.61778000  0.56938000  0.45540000  1.0 -0.1963085396
C  C15  1  0.43062000  0.38222000  0.95540000  1.0 -0.1963085396
C  C16  1  0.38222000  0.43062000  0.54460000  1.0 -0.1963085396
C  C17  1  0.68195000  0.61895000  0.04010000  1.0 0.0547081517
C  C18  1  0.61895000  0.68195000  0.45990000  1.0 0.0550168255
C  C19  1  0.31805000  0.38105000  0.95990000  1.0 0.0550168255
C  C20  1  0.38105000  0.31805000  0.54010000  1.0 0.0550168255
C  C21  1  0.05300000  0.39520000  0.64350000  1.0 0.4620389925
C  C22  1  0.39520000  0.05300000  0.85650000  1.0 0.4620389925
C  C23  1  0.94700000  0.60480000  0.35650000  1.0 0.4620389925
C  C24  1  0.60480000  0.94700000  0.14350000  1.0 0.4620389925
C  C25  1  0.77280000  0.77280000  0.75000000  1.0 0.4804404365
C  C26  1  0.22720000  0.22720000  0.25000000  1.0 0.4804404365
N  N1  1  0.80443000  0.50663000  0.99390000  1.0 -0.3084439351
N  N2  1  0.50663000  0.80443000  0.50610000  1.0 -0.3084439351
N  N3  1  0.19557000  0.49337000  0.00610000  1.0 -0.3084439351
N  N4  1  0.49337000  0.19557000  0.49390000  1.0 -0.3084439351
O  O1  1  0.04410000  0.41090000  0.78760000  1.0 -0.438600005
O  O2  1  0.41090000  0.04410000  0.71240000  1.0 -0.438600005
O  O3  1  0.95590000  0.58910000  0.21240000  1.0 -0.438600005
O  O4  1  0.58910000  0.95590000  0.28760000  1.0 -0.438600005
O  O5  1  0.07990000  0.27830000  0.60170000  1.0 -0.4244305206
O  O6  1  0.27830000  0.07990000  0.89830000  1.0 -0.4244305206
O  O7  1  0.92010000  0.72170000  0.39830000  1.0 -0.4244305206
O  O8  1  0.72170000  0.92010000  0.10170000  1.0 -0.4244305206
O  O9  1  0.88697000  0.70997000  0.84990000  1.0 -0.438600005
O  O10  1  0.70997000  0.88697000  0.65010000  1.0 -0.438600005
O  O11  1  0.11303000  0.29003000  0.15010000  1.0 -0.438600005
O  O12  1  0.29003000  0.11303000  0.34990000  1.0 -0.438600005
