# DDEC6 charges by PACMAN v1.1 (https://github.com/mtap-research/PACMAN-charge/)
data_JOGSAA_ASR_pacman
_symmetry_space_group_name_H-M   'P 1'
_cell_length_a   15.07210000
_cell_length_b   24.76940000
_cell_length_c   15.17070000
_cell_angle_alpha   90.00000000
_cell_angle_beta   110.54100000
_cell_angle_gamma   90.00000000
_symmetry_Int_Tables_number   1
_chemical_formula_structural   NiPH13W9C16N3O32
_chemical_formula_sum   'Ni4 P4 H52 W36 C64 N12 O128'
_cell_volume   5303.54403281
_cell_formula_units_Z   4
loop_
 _symmetry_equiv_pos_site_id
 _symmetry_equiv_pos_as_xyz
  1  'x, y, z'
loop_
 _atom_site_type_symbol
 _atom_site_label
 _atom_site_symmetry_multiplicity
 _atom_site_fract_x
 _atom_site_fract_y
 _atom_site_fract_z
 _atom_site_occupancy
 _atom_site_charge
Ni  Ni1  1  0.60379000  0.47773000  0.89188000  1.0 0.6612275127
Ni  Ni2  1  0.39621000  0.97773000  0.10812000  1.0 0.6612275127
Ni  Ni3  1  0.39621000  0.52227000  0.10812000  1.0 0.6612275127
Ni  Ni4  1  0.60379000  0.02227000  0.89188000  1.0 0.6612275127
P  P1  1  0.99370000  0.25000000  0.30500000  1.0 1.3602620844
P  P2  1  0.27260000  0.25000000  0.36580000  1.0 1.3832788947
P  P3  1  0.00630000  0.75000000  0.69500000  1.0 1.3542941097
P  P4  1  0.72740000  0.75000000  0.63420000  1.0 1.3832788947
H  H1  1  0.75170000  0.51570000  0.81060000  1.0 0.1097813306
H  H2  1  0.24830000  0.01570000  0.18940000  1.0 0.1097813306
H  H3  1  0.24830000  0.48430000  0.18940000  1.0 0.1097813306
H  H4  1  0.75170000  0.98430000  0.81060000  1.0 0.1097813306
H  H5  1  0.91520000  0.52220000  0.85260000  1.0 0.148816872
H  H6  1  0.08480000  0.02220000  0.14740000  1.0 0.148816872
H  H7  1  0.08480000  0.47780000  0.14740000  1.0 0.148816872
H  H8  1  0.91520000  0.97780000  0.85260000  1.0 0.148816872
H  H9  1  0.94290000  0.46830000  0.10520000  1.0 0.148816872
H  H10  1  0.05710000  0.96830000  0.89480000  1.0 0.148816872
H  H11  1  0.05710000  0.53170000  0.89480000  1.0 0.148816872
H  H12  1  0.94290000  0.03170000  0.10520000  1.0 0.148816872
H  H13  1  0.78040000  0.45870000  0.05860000  1.0 0.1269417244
H  H14  1  0.21960000  0.95870000  0.94140000  1.0 0.1269417244
H  H15  1  0.21960000  0.54130000  0.94140000  1.0 0.1269417244
H  H16  1  0.78040000  0.04130000  0.05860000  1.0 0.1269417244
H  H17  1  0.73480000  0.28990000  0.94380000  1.0 0.1787952292
H  H18  1  0.26520000  0.78990000  0.05620000  1.0 0.1787952292
H  H19  1  0.26520000  0.71010000  0.05620000  1.0 0.1787952292
H  H20  1  0.73480000  0.21010000  0.94380000  1.0 0.1787952292
H  H21  1  0.46190000  0.29090000  0.82720000  1.0 0.148816872
H  H22  1  0.53810000  0.79090000  0.17280000  1.0 0.148816872
H  H23  1  0.53810000  0.70910000  0.17280000  1.0 0.148816872
H  H24  1  0.46190000  0.20910000  0.82720000  1.0 0.148816872
H  H25  1  0.46770000  0.38590000  0.81790000  1.0 0.1269417244
H  H26  1  0.53230000  0.88590000  0.18210000  1.0 0.1269417244
H  H27  1  0.53230000  0.61410000  0.18210000  1.0 0.1269417244
H  H28  1  0.46770000  0.11410000  0.81790000  1.0 0.1269417244
H  H29  1  0.48280000  0.54440000  0.73660000  1.0 0.1201431561
H  H30  1  0.51720000  0.04440000  0.26340000  1.0 0.1201431561
H  H31  1  0.51720000  0.45560000  0.26340000  1.0 0.1201431561
H  H32  1  0.48280000  0.95560000  0.73660000  1.0 0.1201431561
H  H33  1  0.43840000  0.55530000  0.57740000  1.0 0.1367401812
H  H34  1  0.56160000  0.05530000  0.42260000  1.0 0.1367401812
H  H35  1  0.56160000  0.44470000  0.42260000  1.0 0.1367401812
H  H36  1  0.43840000  0.94470000  0.57740000  1.0 0.1367401812
H  H37  1  0.58950000  0.42650000  0.56520000  1.0 0.148816872
H  H38  1  0.41050000  0.92650000  0.43480000  1.0 0.148816872
H  H39  1  0.41050000  0.57350000  0.43480000  1.0 0.148816872
H  H40  1  0.58950000  0.07350000  0.56520000  1.0 0.148816872
H  H41  1  0.62260000  0.41480000  0.72180000  1.0 0.1097813306
H  H42  1  0.37740000  0.91480000  0.27820000  1.0 0.1097813306
H  H43  1  0.37740000  0.58520000  0.27820000  1.0 0.1097813306
H  H44  1  0.62260000  0.08520000  0.72180000  1.0 0.1097813306
H  H45  1  0.63070000  0.57940000  0.85610000  1.0 0.3337786529
H  H46  1  0.36930000  0.07940000  0.14390000  1.0 0.3337786529
H  H47  1  0.36930000  0.42060000  0.14390000  1.0 0.3337786529
H  H48  1  0.63070000  0.92060000  0.85610000  1.0 0.3337786529
H  H49  1  0.57430000  0.58740000  0.90150000  1.0 0.3337786529
H  H50  1  0.42570000  0.08740000  0.09850000  1.0 0.3337786529
H  H51  1  0.42570000  0.41260000  0.09850000  1.0 0.3337786529
H  H52  1  0.57430000  0.91260000  0.90150000  1.0 0.3337786529
W  W1  1  0.00316000  0.10753000  0.31425000  1.0 2.4404759291
W  W2  1  0.00316000  0.39247000  0.31425000  1.0 2.4404759291
W  W3  1  0.26698000  0.10771000  0.37189000  1.0 2.4013438573
W  W4  1  0.26698000  0.39229000  0.37189000  1.0 2.4013438573
W  W5  1  0.23487000  0.18201000  0.15398000  1.0 2.4314733628
W  W6  1  0.23487000  0.31799000  0.15398000  1.0 2.4314733628
W  W7  1  0.97161000  0.18220000  0.09569000  1.0 2.4314733628
W  W8  1  0.97161000  0.31780000  0.09569000  1.0 2.4314733628
W  W9  1  0.03013000  0.17578000  0.51272000  1.0 2.3141972307
W  W10  1  0.03013000  0.32422000  0.51272000  1.0 2.3141972307
W  W11  1  0.46971000  0.18182000  0.34490000  1.0 2.4013438573
W  W12  1  0.46971000  0.31818000  0.34490000  1.0 2.4013438573
W  W13  1  0.29438000  0.17558000  0.57069000  1.0 2.4404759291
W  W14  1  0.29438000  0.32442000  0.57069000  1.0 2.4404759291
W  W15  1  0.77976000  0.18170000  0.19557000  1.0 2.4225683692
W  W16  1  0.77976000  0.31830000  0.19557000  1.0 2.4225683692
W  W17  1  0.49788000  0.25000000  0.54668000  1.0 2.4072865728
W  W18  1  0.80613000  0.25000000  0.39535000  1.0 2.4761645082
W  W19  1  0.99684000  0.60753000  0.68575000  1.0 2.4404759291
W  W20  1  0.99684000  0.89247000  0.68575000  1.0 2.4404759291
W  W21  1  0.73302000  0.60771000  0.62811000  1.0 2.4013438573
W  W22  1  0.73302000  0.89229000  0.62811000  1.0 2.4013438573
W  W23  1  0.76513000  0.68201000  0.84602000  1.0 2.4314733628
W  W24  1  0.76513000  0.81799000  0.84602000  1.0 2.4314733628
W  W25  1  0.02839000  0.68220000  0.90431000  1.0 2.4314733628
W  W26  1  0.02839000  0.81780000  0.90431000  1.0 2.4314733628
W  W27  1  0.96987000  0.67578000  0.48728000  1.0 2.3244325403
W  W28  1  0.96987000  0.82422000  0.48728000  1.0 2.3244325403
W  W29  1  0.53029000  0.68182000  0.65510000  1.0 2.4013438573
W  W30  1  0.53029000  0.81818000  0.65510000  1.0 2.4013438573
W  W31  1  0.70562000  0.67558000  0.42931000  1.0 2.4404759291
W  W32  1  0.70562000  0.82442000  0.42931000  1.0 2.4404759291
W  W33  1  0.22024000  0.68170000  0.80443000  1.0 2.4225683692
W  W34  1  0.22024000  0.81830000  0.80443000  1.0 2.4225683692
W  W35  1  0.50212000  0.75000000  0.45332000  1.0 2.4013438573
W  W36  1  0.19387000  0.75000000  0.60465000  1.0 2.4746186021
C  C1  1  0.79050000  0.50410000  0.86990000  1.0 0.1097813306
C  C2  1  0.20950000  0.00410000  0.13010000  1.0 0.1097813306
C  C3  1  0.20950000  0.49590000  0.13010000  1.0 0.1097813306
C  C4  1  0.79050000  0.99590000  0.86990000  1.0 0.1097813306
C  C5  1  0.88930000  0.50960000  0.89600000  1.0 -0.1520370324
C  C6  1  0.11070000  0.00960000  0.10400000  1.0 -0.1520370324
C  C7  1  0.11070000  0.49040000  0.10400000  1.0 -0.1520370324
C  C8  1  0.88930000  0.99040000  0.89600000  1.0 -0.1520370324
C  C9  1  0.94730000  0.49650000  0.98560000  1.0 0.1269417244
C  C10  1  0.05270000  0.99650000  0.01440000  1.0 0.1269417244
C  C11  1  0.05270000  0.50350000  0.01440000  1.0 0.1269417244
C  C12  1  0.94730000  0.00350000  0.98560000  1.0 0.1269417244
C  C13  1  0.90550000  0.47750000  0.04400000  1.0 -0.1520370324
C  C14  1  0.09450000  0.97750000  0.95600000  1.0 -0.1520370324
C  C15  1  0.09450000  0.52250000  0.95600000  1.0 -0.1520370324
C  C16  1  0.90550000  0.02250000  0.04400000  1.0 -0.1520370324
C  C17  1  0.80730000  0.47110000  0.01580000  1.0 0.1097813306
C  C18  1  0.19270000  0.97110000  0.98420000  1.0 0.1097813306
C  C19  1  0.19270000  0.52890000  0.98420000  1.0 0.1097813306
C  C20  1  0.80730000  0.02890000  0.01580000  1.0 0.1097813306
C  C21  1  0.67730000  0.36370000  0.91930000  1.0 0.1031628731
C  C22  1  0.32270000  0.86370000  0.08070000  1.0 0.1097813306
C  C23  1  0.32270000  0.63630000  0.08070000  1.0 0.1097813306
C  C24  1  0.67730000  0.13630000  0.91930000  1.0 0.1031628731
C  C25  1  0.67770000  0.30820000  0.91810000  1.0 -0.234784719
C  C26  1  0.32230000  0.80820000  0.08190000  1.0 -0.234784719
C  C27  1  0.32230000  0.69180000  0.08190000  1.0 -0.234784719
C  C28  1  0.67770000  0.19180000  0.91810000  1.0 -0.234784719
C  C29  1  0.59600000  0.27980000  0.88020000  1.0 0.1201431561
C  C30  1  0.40400000  0.77980000  0.11980000  1.0 0.1201431561
C  C31  1  0.40400000  0.72020000  0.11980000  1.0 0.1201431561
C  C32  1  0.59600000  0.22020000  0.88020000  1.0 0.1201431561
C  C33  1  0.52030000  0.30830000  0.84950000  1.0 -0.1784145054
C  C34  1  0.47970000  0.80830000  0.15050000  1.0 -0.1784145054
C  C35  1  0.47970000  0.69170000  0.15050000  1.0 -0.1784145054
C  C36  1  0.52030000  0.19170000  0.84950000  1.0 -0.1784145054
C  C37  1  0.52320000  0.36680000  0.84850000  1.0 0.1269417244
C  C38  1  0.47680000  0.86680000  0.15150000  1.0 0.1269417244
C  C39  1  0.47680000  0.63320000  0.15150000  1.0 0.1269417244
C  C40  1  0.52320000  0.13320000  0.84850000  1.0 0.1269417244
C  C41  1  0.45350000  0.50170000  0.95600000  1.0 0.4502006057
C  C42  1  0.54650000  0.00170000  0.04400000  1.0 0.4502006057
C  C43  1  0.54650000  0.49830000  0.04400000  1.0 0.4502006057
C  C44  1  0.45350000  0.99830000  0.95600000  1.0 0.4502006057
C  C45  1  0.50470000  0.52040000  0.70170000  1.0 0.0775979958
C  C46  1  0.49530000  0.02040000  0.29830000  1.0 0.0775979958
C  C47  1  0.49530000  0.47960000  0.29830000  1.0 0.0775979958
C  C48  1  0.50470000  0.97960000  0.70170000  1.0 0.0775979958
C  C49  1  0.47930000  0.52720000  0.60580000  1.0 -0.1520370324
C  C50  1  0.52070000  0.02720000  0.39420000  1.0 -0.1520370324
C  C51  1  0.52070000  0.47280000  0.39420000  1.0 -0.1520370324
C  C52  1  0.47930000  0.97280000  0.60580000  1.0 -0.1520370324
C  C53  1  0.51100000  0.49460000  0.55010000  1.0 0.1269417244
C  C54  1  0.48900000  0.99460000  0.44990000  1.0 0.1269417244
C  C55  1  0.48900000  0.50540000  0.44990000  1.0 0.1269417244
C  C56  1  0.51100000  0.00540000  0.55010000  1.0 0.1269417244
C  C57  1  0.56660000  0.45130000  0.59810000  1.0 -0.1520370324
C  C58  1  0.43340000  0.95130000  0.40190000  1.0 -0.1520370324
C  C59  1  0.43340000  0.54870000  0.40190000  1.0 -0.1520370324
C  C60  1  0.56660000  0.04870000  0.59810000  1.0 -0.1520370324
C  C61  1  0.58770000  0.44500000  0.69300000  1.0 0.1097813306
C  C62  1  0.41230000  0.94500000  0.30700000  1.0 0.1097813306
C  C63  1  0.41230000  0.55500000  0.30700000  1.0 0.1097813306
C  C64  1  0.58770000  0.05500000  0.69300000  1.0 0.1097813306
N  N1  1  0.56200000  0.47870000  0.74530000  1.0 -0.217731778
N  N2  1  0.43800000  0.97870000  0.25470000  1.0 -0.217731778
N  N3  1  0.43800000  0.52130000  0.25470000  1.0 -0.217731778
N  N4  1  0.56200000  0.02130000  0.74530000  1.0 -0.217731778
N  N5  1  0.75150000  0.48280000  0.92700000  1.0 -0.217731778
N  N6  1  0.24850000  0.98280000  0.07300000  1.0 -0.217731778
N  N7  1  0.24850000  0.51720000  0.07300000  1.0 -0.217731778
N  N8  1  0.75150000  0.01720000  0.92700000  1.0 -0.217731778
N  N9  1  0.60150000  0.39340000  0.88930000  1.0 -0.1935407151
N  N10  1  0.39850000  0.89340000  0.11070000  1.0 -0.1935407151
N  N11  1  0.39850000  0.60660000  0.11070000  1.0 -0.1935407151
N  N12  1  0.60150000  0.10660000  0.88930000  1.0 -0.1935407151
O  O1  1  0.37960000  0.51730000  0.96520000  1.0 -0.4662950379
O  O2  1  0.62040000  0.01730000  0.03480000  1.0 -0.4662950379
O  O3  1  0.62040000  0.48270000  0.03480000  1.0 -0.4662950379
O  O4  1  0.37960000  0.98270000  0.96520000  1.0 -0.4662950379
O  O5  1  0.46340000  0.48740000  0.87990000  1.0 -0.4921072837
O  O6  1  0.53660000  0.98740000  0.12010000  1.0 -0.4921072837
O  O7  1  0.53660000  0.51260000  0.12010000  1.0 -0.4921072837
O  O8  1  0.46340000  0.01260000  0.87990000  1.0 -0.4921072837
O  O9  1  0.61110000  0.56300000  0.89480000  1.0 -0.5868016001
O  O10  1  0.38890000  0.06300000  0.10520000  1.0 -0.5868016001
O  O11  1  0.38890000  0.43700000  0.10520000  1.0 -0.5868016001
O  O12  1  0.61110000  0.93700000  0.89480000  1.0 -0.5868016001
O  O13  1  0.00210000  0.11120000  0.43840000  1.0 -0.8785374877
O  O14  1  0.00210000  0.38880000  0.43840000  1.0 -0.8785374877
O  O15  1  0.10080000  0.18940000  0.11010000  1.0 -0.8638142378
O  O16  1  0.10080000  0.31060000  0.11010000  1.0 -0.8638142378
O  O17  1  0.13710000  0.10370000  0.36080000  1.0 -0.8685632067
O  O18  1  0.13710000  0.39630000  0.36080000  1.0 -0.8685632067
O  O19  1  0.38860000  0.13360000  0.37950000  1.0 -0.8927109357
O  O20  1  0.38860000  0.36640000  0.37950000  1.0 -0.8927109357
O  O21  1  0.22600000  0.25000000  0.26130000  1.0 -0.8455112692
O  O22  1  0.01110000  0.25000000  0.21210000  1.0 -0.8685632067
O  O23  1  0.16130000  0.16480000  0.53710000  1.0 -0.8785374877
O  O24  1  0.16130000  0.33520000  0.53710000  1.0 -0.8785374877
O  O25  1  0.03270000  0.19910000  0.36250000  1.0 -0.8358998613
O  O26  1  0.03270000  0.30090000  0.36250000  1.0 -0.8358998613
O  O27  1  0.97740000  0.04050000  0.29000000  1.0 -0.660104942
O  O28  1  0.97740000  0.45950000  0.29000000  1.0 -0.660104942
O  O29  1  0.24260000  0.25000000  0.09670000  1.0 -0.8988139546
O  O30  1  0.30250000  0.11130000  0.50320000  1.0 -0.8358998613
O  O31  1  0.30250000  0.38870000  0.50320000  1.0 -0.8358998613
O  O32  1  0.00820000  0.13340000  0.19780000  1.0 -0.8785374877
O  O33  1  0.00820000  0.36660000  0.19780000  1.0 -0.8785374877
O  O34  1  0.27390000  0.25000000  0.58740000  1.0 -0.8785374877
O  O35  1  0.41650000  0.19840000  0.56970000  1.0 -0.9196766656
O  O36  1  0.41650000  0.30160000  0.56970000  1.0 -0.9196766656
O  O37  1  0.36680000  0.18610000  0.22700000  1.0 -0.9196766656
O  O38  1  0.36680000  0.31390000  0.22700000  1.0 -0.9196766656
O  O39  1  0.05980000  0.25000000  0.54190000  1.0 -0.8988139546
O  O40  1  0.88390000  0.25000000  0.28260000  1.0 -0.9825179097
O  O41  1  0.28310000  0.04080000  0.35670000  1.0 -0.6820631739
O  O42  1  0.28310000  0.45920000  0.35670000  1.0 -0.6820631739
O  O43  1  0.87380000  0.13420000  0.26990000  1.0 -0.9196766656
O  O44  1  0.87380000  0.36580000  0.26990000  1.0 -0.9196766656
O  O45  1  0.90050000  0.19810000  0.45550000  1.0 -0.9396038767
O  O46  1  0.90050000  0.30190000  0.45550000  1.0 -0.9396038767
O  O47  1  0.02390000  0.15190000  0.61500000  1.0 -0.5641609546
O  O48  1  0.02390000  0.34810000  0.61500000  1.0 -0.5641609546
O  O49  1  0.53510000  0.19520000  0.47390000  1.0 -0.9127009627
O  O50  1  0.53510000  0.30480000  0.47390000  1.0 -0.9127009627
O  O51  1  0.24270000  0.13880000  0.06990000  1.0 -0.660104942
O  O52  1  0.24270000  0.36120000  0.06990000  1.0 -0.660104942
O  O53  1  0.85220000  0.18660000  0.11610000  1.0 -0.9311487492
O  O54  1  0.85220000  0.31340000  0.11610000  1.0 -0.9311487492
O  O55  1  0.32880000  0.15070000  0.68210000  1.0 -0.6682573226
O  O56  1  0.32880000  0.34930000  0.68210000  1.0 -0.6682573226
O  O57  1  0.51220000  0.25000000  0.31500000  1.0 -0.8638142378
O  O58  1  0.93530000  0.14050000  0.99950000  1.0 -0.6682573226
O  O59  1  0.93530000  0.35950000  0.99950000  1.0 -0.6682573226
O  O60  1  0.72220000  0.25000000  0.14750000  1.0 -0.9311487492
O  O61  1  0.74520000  0.19590000  0.30390000  1.0 -0.9196766656
O  O62  1  0.74520000  0.30410000  0.30390000  1.0 -0.9196766656
O  O63  1  0.22500000  0.13440000  0.24690000  1.0 -0.8638142378
O  O64  1  0.22500000  0.36560000  0.24690000  1.0 -0.8638142378
O  O65  1  0.38320000  0.25000000  0.39200000  1.0 -0.9878982421
O  O66  1  0.94350000  0.25000000  0.03120000  1.0 -0.8988139546
O  O67  1  0.24810000  0.19870000  0.40940000  1.0 -0.8638142378
O  O68  1  0.24810000  0.30130000  0.40940000  1.0 -0.8638142378
O  O69  1  0.54760000  0.14080000  0.32080000  1.0 -0.6493438002
O  O70  1  0.54760000  0.35920000  0.32080000  1.0 -0.6493438002
O  O71  1  0.99790000  0.61120000  0.56160000  1.0 -0.8785374877
O  O72  1  0.99790000  0.88880000  0.56160000  1.0 -0.8785374877
O  O73  1  0.89920000  0.68940000  0.88990000  1.0 -0.8638142378
O  O74  1  0.89920000  0.81060000  0.88990000  1.0 -0.8638142378
O  O75  1  0.86290000  0.60370000  0.63920000  1.0 -0.8685632067
O  O76  1  0.86290000  0.89630000  0.63920000  1.0 -0.8685632067
O  O77  1  0.61140000  0.63360000  0.62050000  1.0 -0.8927109357
O  O78  1  0.61140000  0.86640000  0.62050000  1.0 -0.8927109357
O  O79  1  0.77400000  0.75000000  0.73870000  1.0 -0.8455112692
O  O80  1  0.98890000  0.75000000  0.78790000  1.0 -0.8685632067
O  O81  1  0.83870000  0.66480000  0.46290000  1.0 -0.8785374877
O  O82  1  0.83870000  0.83520000  0.46290000  1.0 -0.8785374877
O  O83  1  0.96730000  0.69910000  0.63750000  1.0 -0.8358998613
O  O84  1  0.96730000  0.80090000  0.63750000  1.0 -0.8358998613
O  O85  1  0.02260000  0.54050000  0.71000000  1.0 -0.660104942
O  O86  1  0.02260000  0.95950000  0.71000000  1.0 -0.660104942
O  O87  1  0.75740000  0.75000000  0.90330000  1.0 -0.8988139546
O  O88  1  0.69750000  0.61130000  0.49680000  1.0 -0.8339151856
O  O89  1  0.69750000  0.88870000  0.49680000  1.0 -0.8339151856
O  O90  1  0.99180000  0.63340000  0.80220000  1.0 -0.8785374877
O  O91  1  0.99180000  0.86660000  0.80220000  1.0 -0.8785374877
O  O92  1  0.72610000  0.75000000  0.41260000  1.0 -0.8785374877
O  O93  1  0.58350000  0.69840000  0.43030000  1.0 -0.9196766656
O  O94  1  0.58350000  0.80160000  0.43030000  1.0 -0.9196766656
O  O95  1  0.63320000  0.68610000  0.77300000  1.0 -0.9196766656
O  O96  1  0.63320000  0.81390000  0.77300000  1.0 -0.9196766656
O  O97  1  0.94020000  0.75000000  0.45810000  1.0 -0.8988139546
O  O98  1  0.11610000  0.75000000  0.71740000  1.0 -0.9825179097
O  O99  1  0.71690000  0.54080000  0.64330000  1.0 -0.6820631739
O  O100  1  0.71690000  0.95920000  0.64330000  1.0 -0.6820631739
O  O101  1  0.12620000  0.63420000  0.73010000  1.0 -0.9196766656
O  O102  1  0.12620000  0.86580000  0.73010000  1.0 -0.9196766656
O  O103  1  0.09950000  0.69810000  0.54450000  1.0 -0.9396038767
O  O104  1  0.09950000  0.80190000  0.54450000  1.0 -0.9396038767
O  O105  1  0.97610000  0.65190000  0.38500000  1.0 -0.5641609546
O  O106  1  0.97610000  0.84810000  0.38500000  1.0 -0.5641609546
O  O107  1  0.46490000  0.69520000  0.52610000  1.0 -0.9127009627
O  O108  1  0.46490000  0.80480000  0.52610000  1.0 -0.9127009627
O  O109  1  0.75730000  0.63880000  0.93010000  1.0 -0.660104942
O  O110  1  0.75730000  0.86120000  0.93010000  1.0 -0.660104942
O  O111  1  0.14780000  0.68660000  0.88390000  1.0 -0.9311487492
O  O112  1  0.14780000  0.81340000  0.88390000  1.0 -0.9311487492
O  O113  1  0.67120000  0.65070000  0.31790000  1.0 -0.6682573226
O  O114  1  0.67120000  0.84930000  0.31790000  1.0 -0.6682573226
O  O115  1  0.48780000  0.75000000  0.68500000  1.0 -0.8638142378
O  O116  1  0.06470000  0.64050000  0.00050000  1.0 -0.6682573226
O  O117  1  0.06470000  0.85950000  0.00050000  1.0 -0.6682573226
O  O118  1  0.27780000  0.75000000  0.85250000  1.0 -0.9311487492
O  O119  1  0.25480000  0.69590000  0.69610000  1.0 -0.9196766656
O  O120  1  0.25480000  0.80410000  0.69610000  1.0 -0.9196766656
O  O121  1  0.77500000  0.63440000  0.75310000  1.0 -0.8638142378
O  O122  1  0.77500000  0.86560000  0.75310000  1.0 -0.8638142378
O  O123  1  0.61680000  0.75000000  0.60800000  1.0 -0.9878982421
O  O124  1  0.05650000  0.75000000  0.96880000  1.0 -0.8988139546
O  O125  1  0.75190000  0.69870000  0.59060000  1.0 -0.8638142378
O  O126  1  0.75190000  0.80130000  0.59060000  1.0 -0.8638142378
O  O127  1  0.45240000  0.64080000  0.67920000  1.0 -0.6493438002
O  O128  1  0.45240000  0.85920000  0.67920000  1.0 -0.6493438002
