# DDEC6 charges by PACMAN v1.1 (https://github.com/mtap-research/PACMAN-charge/)
data_JOHSIJ_ASR_pacman
_symmetry_space_group_name_H-M   'P 1'
_cell_length_a   9.01500000
_cell_length_b   9.47390000
_cell_length_c   19.73730000
_cell_angle_alpha   88.96400000
_cell_angle_beta   78.93800000
_cell_angle_gamma   85.48900000
_symmetry_Int_Tables_number   1
_chemical_formula_structural   Al6P7HO28
_chemical_formula_sum   'Al12 P14 H2 O56'
_cell_volume   1649.25489643
_cell_formula_units_Z   2
loop_
 _symmetry_equiv_pos_site_id
 _symmetry_equiv_pos_as_xyz
  1  'x, y, z'
loop_
 _atom_site_type_symbol
 _atom_site_label
 _atom_site_symmetry_multiplicity
 _atom_site_fract_x
 _atom_site_fract_y
 _atom_site_fract_z
 _atom_site_occupancy
 _atom_site_charge
Al  Al1  1  0.16210000  0.63200000  0.02539000  1.0 1.7454444926
Al  Al2  1  0.83790000  0.36800000  0.97461000  1.0 1.7385257046
Al  Al3  1  0.72172000  0.87537000  0.11067000  1.0 1.7559566061
Al  Al4  1  0.27828000  0.12463000  0.88933000  1.0 1.7559566061
Al  Al5  1  0.14558000  0.84136000  0.29482000  1.0 1.7385257046
Al  Al6  1  0.85442000  0.15864000  0.70518000  1.0 1.7301704447
Al  Al7  1  0.73847000  0.11098000  0.51139000  1.0 1.7922573845
Al  Al8  1  0.26153000  0.88902000  0.48861000  1.0 1.7968476574
Al  Al9  1  0.14927000  0.32640000  0.45179000  1.0 1.7385257046
Al  Al10  1  0.85073000  0.67360000  0.54821000  1.0 1.7385257046
Al  Al11  1  0.71042000  0.93893000  0.89877000  1.0 1.771404342
Al  Al12  1  0.28958000  0.06107000  0.10123000  1.0 1.771404342
P  P1  1  0.44890000  0.15540000  0.43388000  1.0 1.5220184784
P  P2  1  0.55110000  0.84460000  0.56612000  1.0 1.5220184784
P  P3  1  0.44680000  0.94681000  0.22161000  1.0 1.5302168092
P  P4  1  0.55320000  0.05319000  0.77839000  1.0 1.5302168092
P  P5  1  0.13666000  0.64403000  0.42345000  1.0 1.5302168092
P  P6  1  0.86334000  0.35597000  0.57655000  1.0 1.5302168092
P  P7  1  0.03448000  0.07155000  0.39627000  1.0 1.5493607085
P  P8  1  0.96552000  0.92845000  0.60373000  1.0 1.5493607085
P  P9  1  0.37494000  0.85906000  0.96784000  1.0 1.5493607085
P  P10  1  0.62506000  0.14094000  0.03216000  1.0 1.5493607085
P  P11  1  0.04184000  0.82960000  0.15341000  1.0 1.5220184784
P  P12  1  0.95816000  0.17040000  0.84659000  1.0 1.5220184784
P  P13  1  0.15744000  0.31069000  0.02183000  1.0 1.5302168092
P  P14  1  0.84256000  0.68931000  0.97817000  1.0 1.5302168092
H  H1  1  0.50672000  0.12655000  0.31417000  1.0 0.4832111757
H  H2  1  0.49328000  0.87345000  0.68583000  1.0 0.4860057096
O  O1  1  0.48086000  0.20023000  0.35703000  1.0 -0.6165063818
O  O2  1  0.51914000  0.79977000  0.64297000  1.0 -0.6165063818
O  O3  1  0.54991000  0.85085000  0.16614000  1.0 -0.7796823223
O  O4  1  0.45009000  0.14915000  0.83386000  1.0 -0.7796823223
O  O5  1  0.53993000  0.03232000  0.26006000  1.0 -0.6541603048
O  O6  1  0.46007000  0.96768000  0.73994000  1.0 -0.6541603048
O  O7  1  0.11859000  0.96410000  0.12761000  1.0 -0.7708607752
O  O8  1  0.88141000  0.03590000  0.87239000  1.0 -0.7708607752
O  O9  1  0.36710000  0.92153000  0.04006000  1.0 -0.82825568
O  O10  1  0.63290000  0.07847000  0.95994000  1.0 -0.82825568
O  O11  1  0.33758000  0.04590000  0.18598000  1.0 -0.7980623682
O  O12  1  0.66242000  0.95410000  0.81402000  1.0 -0.7980623682
O  O13  1  0.31678000  0.25102000  0.47405000  1.0 -0.7914645768
O  O14  1  0.68322000  0.74898000  0.52595000  1.0 -0.7914645768
O  O15  1  0.25237000  0.25138000  0.95365000  1.0 -0.809050842
O  O16  1  0.74763000  0.74862000  0.04635000  1.0 -0.809050842
O  O17  1  0.27676000  0.95452000  0.92671000  1.0 -0.82825568
O  O18  1  0.72324000  0.04548000  0.07329000  1.0 -0.82825568
O  O19  1  0.98949000  0.33322000  0.01660000  1.0 -0.82825568
O  O20  1  0.01051000  0.66678000  0.98340000  1.0 -0.82825568
O  O21  1  0.06371000  0.79555000  0.22671000  1.0 -0.7708607752
O  O22  1  0.93629000  0.20445000  0.77329000  1.0 -0.7708607752
O  O23  1  0.19107000  0.48785000  0.41442000  1.0 -0.7708607752
O  O24  1  0.80893000  0.51215000  0.58558000  1.0 -0.7708607752
O  O25  1  0.87140000  0.85340000  0.15452000  1.0 -0.7796823223
O  O26  1  0.12860000  0.14660000  0.84548000  1.0 -0.7796823223
O  O27  1  0.34331000  0.85005000  0.27042000  1.0 -0.7914645768
O  O28  1  0.65669000  0.14995000  0.72958000  1.0 -0.7914645768
O  O29  1  0.25417000  0.72067000  0.45232000  1.0 -0.7708607752
O  O30  1  0.74583000  0.27933000  0.54768000  1.0 -0.7708607752
O  O31  1  0.98199000  0.66070000  0.47233000  1.0 -0.8238391478
O  O32  1  0.01801000  0.33930000  0.52767000  1.0 -0.8238391478
O  O33  1  0.13060000  0.97874000  0.43872000  1.0 -0.8238391478
O  O34  1  0.86940000  0.02126000  0.56128000  1.0 -0.8238391478
O  O35  1  0.08530000  0.22357000  0.39138000  1.0 -0.7980623682
O  O36  1  0.91470000  0.77643000  0.60862000  1.0 -0.7914645768
O  O37  1  0.05625000  0.00741000  0.32362000  1.0 -0.7796823223
O  O38  1  0.94375000  0.99259000  0.67638000  1.0 -0.7708607752
O  O39  1  0.11079000  0.70240000  0.10810000  1.0 -0.8238391478
O  O40  1  0.88921000  0.29760000  0.89190000  1.0 -0.82825568
O  O41  1  0.17186000  0.20980000  0.08173000  1.0 -0.7398870427
O  O42  1  0.82814000  0.79020000  0.91827000  1.0 -0.7398870427
O  O43  1  0.40319000  0.00066000  0.44057000  1.0 -0.7914645768
O  O44  1  0.59681000  0.99934000  0.55943000  1.0 -0.7914645768
O  O45  1  0.31756000  0.71045000  0.97642000  1.0 -0.7708607752
O  O46  1  0.68244000  0.28955000  0.02358000  1.0 -0.7708607752
O  O47  1  0.21522000  0.45348000  0.03543000  1.0 -0.7708607752
O  O48  1  0.78478000  0.54652000  0.96457000  1.0 -0.7708607752
O  O49  1  0.86658000  0.07251000  0.43093000  1.0 -0.7796823223
O  O50  1  0.13342000  0.92749000  0.56907000  1.0 -0.7796823223
O  O51  1  0.58720000  0.17018000  0.46589000  1.0 -0.7398870427
O  O52  1  0.41280000  0.82982000  0.53411000  1.0 -0.7398870427
O  O53  1  0.11759000  0.70226000  0.35253000  1.0 -0.7708607752
O  O54  1  0.88241000  0.29774000  0.64747000  1.0 -0.7708607752
O  O55  1  0.53907000  0.84428000  0.92884000  1.0 -0.759241714
O  O56  1  0.46093000  0.15572000  0.07116000  1.0 -0.759241714
