# DDEC6 charges by PACMAN v1.1 (https://github.com/mtap-research/PACMAN-charge/)
data_JOKXOW_ASR_pacman
_symmetry_space_group_name_H-M   'P 1'
_cell_length_a   14.00360000
_cell_length_b   14.00360000
_cell_length_c   14.01400000
_cell_angle_alpha   88.32490000
_cell_angle_beta   91.67510000
_cell_angle_gamma   148.61200000
_symmetry_Int_Tables_number   1
_chemical_formula_structural   CdNiC7N6
_chemical_formula_sum   'Cd4 Ni4 C28 N24'
_cell_volume   1430.66488222
_cell_formula_units_Z   4
loop_
 _symmetry_equiv_pos_site_id
 _symmetry_equiv_pos_as_xyz
  1  'x, y, z'
loop_
 _atom_site_type_symbol
 _atom_site_label
 _atom_site_symmetry_multiplicity
 _atom_site_fract_x
 _atom_site_fract_y
 _atom_site_fract_z
 _atom_site_occupancy
 _atom_site_charge
Cd  Cd1  1  0.98353000  0.25439000  0.72516000  1.0 1.0131463892
Cd  Cd2  1  0.25439000  0.98353000  0.77484000  1.0 1.0131463892
Cd  Cd3  1  0.01647000  0.74561000  0.27484000  1.0 1.0131463892
Cd  Cd4  1  0.74561000  0.01647000  0.22516000  1.0 1.0181343442
Ni  Ni1  1  0.62560000  0.62560000  0.75000000  1.0 0.0764883346
Ni  Ni2  1  0.37440000  0.37440000  0.25000000  1.0 0.0764883346
Ni  Ni3  1  0.50000000  0.00000000  0.50000000  1.0 0.0903706959
Ni  Ni4  1  0.00000000  0.50000000  0.00000000  1.0 0.0903706959
C  C1  1  0.74850000  0.84690000  0.74800000  1.0 0.1588723398
C  C2  1  0.84690000  0.74850000  0.75200000  1.0 0.1588723398
C  C3  1  0.25150000  0.15310000  0.25200000  1.0 0.1588723398
C  C4  1  0.15310000  0.25150000  0.24800000  1.0 0.1715429461
C  C5  1  0.40180000  0.49900000  0.75060000  1.0 0.1588723398
C  C6  1  0.49900000  0.40180000  0.74940000  1.0 0.1588723398
C  C7  1  0.59820000  0.50100000  0.24940000  1.0 0.1588723398
C  C8  1  0.50100000  0.59820000  0.25060000  1.0 0.154944349
C  C9  1  0.62830000  0.06590000  0.60810000  1.0 0.1246401033
C  C10  1  0.06590000  0.62830000  0.89190000  1.0 0.1251358649
C  C11  1  0.37170000  0.93410000  0.39190000  1.0 0.1246401033
C  C12  1  0.93410000  0.37170000  0.10810000  1.0 0.1246401033
C  C13  1  0.97580000  0.37240000  0.92460000  1.0 0.1715429461
C  C14  1  0.37240000  0.97580000  0.57540000  1.0 0.1715429461
C  C15  1  0.02420000  0.62760000  0.07540000  1.0 0.1715429461
C  C16  1  0.62760000  0.02420000  0.42460000  1.0 0.1715429461
C  C17  1  0.14900000  0.46300000  0.52620000  1.0 0.1864818818
C  C18  1  0.46300000  0.14900000  0.97380000  1.0 0.1864818818
C  C19  1  0.85100000  0.53700000  0.47380000  1.0 0.1864818818
C  C20  1  0.53700000  0.85100000  0.02620000  1.0 0.1864818818
C  C21  1  0.18320000  0.56480000  0.58090000  1.0 0.1395276821
C  C22  1  0.56480000  0.18320000  0.91910000  1.0 0.1395276821
C  C23  1  0.81680000  0.43520000  0.41910000  1.0 0.1395276821
C  C24  1  0.43520000  0.81680000  0.08090000  1.0 0.1395276821
C  C25  1  0.18660000  0.50140000  0.42050000  1.0 0.106442755
C  C26  1  0.50140000  0.18660000  0.07950000  1.0 0.106442755
C  C27  1  0.81340000  0.49860000  0.57950000  1.0 0.106442755
C  C28  1  0.49860000  0.81340000  0.92050000  1.0 0.106442755
N  N1  1  0.82140000  0.98060000  0.74560000  1.0 -0.3913705462
N  N2  1  0.98060000  0.82140000  0.75440000  1.0 -0.3913705462
N  N3  1  0.17860000  0.01940000  0.25440000  1.0 -0.3913705462
N  N4  1  0.01940000  0.17860000  0.24560000  1.0 -0.3997759634
N  N5  1  0.26660000  0.42240000  0.75120000  1.0 -0.3768961542
N  N6  1  0.42240000  0.26660000  0.74880000  1.0 -0.3768961542
N  N7  1  0.73340000  0.57760000  0.24880000  1.0 -0.3768961542
N  N8  1  0.57760000  0.73340000  0.25120000  1.0 -0.3768961542
N  N9  1  0.71020000  0.10980000  0.67410000  1.0 -0.3702925557
N  N10  1  0.10980000  0.71020000  0.82590000  1.0 -0.3702925557
N  N11  1  0.28980000  0.89020000  0.32590000  1.0 -0.3702925557
N  N12  1  0.89020000  0.28980000  0.17410000  1.0 -0.3702925557
N  N13  1  0.96050000  0.29650000  0.87660000  1.0 -0.4171466195
N  N14  1  0.29650000  0.96050000  0.62340000  1.0 -0.4171466195
N  N15  1  0.03950000  0.70350000  0.12340000  1.0 -0.4171466195
N  N16  1  0.70350000  0.03950000  0.37660000  1.0 -0.4171466195
N  N17  1  0.03730000  0.28870000  0.55900000  1.0 -0.3529181196
N  N18  1  0.28870000  0.03730000  0.94100000  1.0 -0.3608425671
N  N19  1  0.96270000  0.71130000  0.44100000  1.0 -0.3529181196
N  N20  1  0.71130000  0.96270000  0.05900000  1.0 -0.3529181196
N  N21  1  0.15490000  0.54010000  0.68220000  1.0 -0.2364115679
N  N22  1  0.54010000  0.15490000  0.81780000  1.0 -0.2329375757
N  N23  1  0.84510000  0.45990000  0.31780000  1.0 -0.2329375757
N  N24  1  0.45990000  0.84510000  0.18220000  1.0 -0.2329375757
