# DDEC6 charges by PACMAN v1.1 (https://github.com/mtap-research/PACMAN-charge/)
data_JOKXUC10_FSR_pacman
_symmetry_space_group_name_H-M   'P 1'
_cell_length_a   14.02220000
_cell_length_b   14.02220000
_cell_length_c   13.96100000
_cell_angle_alpha   89.19130000
_cell_angle_beta   90.80870000
_cell_angle_gamma   148.59900000
_symmetry_Int_Tables_number   1
_chemical_formula_structural   CdNiC7N6
_chemical_formula_sum   'Cd4 Ni4 C28 N24'
_cell_volume   1430.07999464
_cell_formula_units_Z   4
loop_
 _symmetry_equiv_pos_site_id
 _symmetry_equiv_pos_as_xyz
  1  'x, y, z'
loop_
 _atom_site_type_symbol
 _atom_site_label
 _atom_site_symmetry_multiplicity
 _atom_site_fract_x
 _atom_site_fract_y
 _atom_site_fract_z
 _atom_site_occupancy
 _atom_site_charge
Cd  Cd1  1  0.01122000  0.74212000  0.71375000  1.0 1.0195969829
Cd  Cd2  1  0.74212000  0.01122000  0.78625000  1.0 1.0195969829
Cd  Cd3  1  0.98878000  0.25788000  0.28625000  1.0 1.0195969829
Cd  Cd4  1  0.25788000  0.98878000  0.21375000  1.0 1.0195969829
Ni  Ni1  1  0.36790000  0.36790000  0.75000000  1.0 0.0806324688
Ni  Ni2  1  0.63210000  0.63210000  0.25000000  1.0 0.0806324688
Ni  Ni3  1  0.50000000  0.00000000  0.50000000  1.0 0.0806324688
Ni  Ni4  1  0.00000000  0.50000000  0.00000000  1.0 0.0806324688
C  C1  1  0.24370000  0.14630000  0.74230000  1.0 0.1912529097
C  C2  1  0.14630000  0.24370000  0.75770000  1.0 0.1912529097
C  C3  1  0.75630000  0.85370000  0.25770000  1.0 0.1912529097
C  C4  1  0.85370000  0.75630000  0.24230000  1.0 0.1912529097
C  C5  1  0.59050000  0.49350000  0.74250000  1.0 0.1602394508
C  C6  1  0.49350000  0.59050000  0.75750000  1.0 0.1602394508
C  C7  1  0.40950000  0.50650000  0.25750000  1.0 0.1602394508
C  C8  1  0.50650000  0.40950000  0.24250000  1.0 0.1602394508
C  C9  1  0.36910000  0.93290000  0.60450000  1.0 0.1317336598
C  C10  1  0.93290000  0.36910000  0.89550000  1.0 0.1317336598
C  C11  1  0.63090000  0.06710000  0.39550000  1.0 0.1317336598
C  C12  1  0.06710000  0.63090000  0.10450000  1.0 0.1317336598
C  C13  1  0.02500000  0.62700000  0.91870000  1.0 0.1784906798
C  C14  1  0.62700000  0.02500000  0.58130000  1.0 0.1784906798
C  C15  1  0.97500000  0.37300000  0.08130000  1.0 0.1784906798
C  C16  1  0.37300000  0.97500000  0.41870000  1.0 0.1784906798
C  C17  1  0.82000000  0.43600000  0.57150000  1.0 0.1602394508
C  C18  1  0.43600000  0.82000000  0.92850000  1.0 0.1602394508
C  C19  1  0.18000000  0.56400000  0.42850000  1.0 0.1602394508
C  C20  1  0.56400000  0.18000000  0.07150000  1.0 0.1602394508
C  C21  1  0.83790000  0.53210000  0.51770000  1.0 0.1962481924
C  C22  1  0.53210000  0.83790000  0.98230000  1.0 0.1962481924
C  C23  1  0.16210000  0.46790000  0.48230000  1.0 0.1962481924
C  C24  1  0.46790000  0.16210000  0.01770000  1.0 0.1962481924
C  C25  1  0.80720000  0.49680000  0.40970000  1.0 0.0891502761
C  C26  1  0.49680000  0.80720000  0.09030000  1.0 0.0891502761
C  C27  1  0.19280000  0.50320000  0.59030000  1.0 0.0891502761
C  C28  1  0.50320000  0.19280000  0.90970000  1.0 0.0891502761
N  N1  1  0.16930000  0.01150000  0.73660000  1.0 -0.399825435
N  N2  1  0.01150000  0.16930000  0.76340000  1.0 -0.399825435
N  N3  1  0.83070000  0.98850000  0.26340000  1.0 -0.399825435
N  N4  1  0.98850000  0.83070000  0.23660000  1.0 -0.399825435
N  N5  1  0.72720000  0.57120000  0.73800000  1.0 -0.3885686136
N  N6  1  0.57120000  0.72720000  0.76200000  1.0 -0.3885686136
N  N7  1  0.27280000  0.42880000  0.26200000  1.0 -0.3885686136
N  N8  1  0.42880000  0.27280000  0.23800000  1.0 -0.3885686136
N  N9  1  0.28560000  0.88840000  0.66760000  1.0 -0.3685715309
N  N10  1  0.88840000  0.28560000  0.83240000  1.0 -0.3685715309
N  N11  1  0.71440000  0.11160000  0.33240000  1.0 -0.3685715309
N  N12  1  0.11160000  0.71440000  0.16760000  1.0 -0.3685715309
N  N13  1  0.03880000  0.70120000  0.86700000  1.0 -0.4089704564
N  N14  1  0.70120000  0.03880000  0.63300000  1.0 -0.4089704564
N  N15  1  0.96120000  0.29880000  0.13300000  1.0 -0.4089704564
N  N16  1  0.29880000  0.96120000  0.36700000  1.0 -0.4089704564
N  N17  1  0.84020000  0.45580000  0.67560000  1.0 -0.2288341521
N  N18  1  0.45580000  0.84020000  0.82440000  1.0 -0.2288341521
N  N19  1  0.15980000  0.54420000  0.32440000  1.0 -0.2288341521
N  N20  1  0.54420000  0.15980000  0.17560000  1.0 -0.2288341521
N  N21  1  0.95840000  0.70920000  0.54710000  1.0 -0.4166573099
N  N22  1  0.70920000  0.95840000  0.95290000  1.0 -0.4166573099
N  N23  1  0.04160000  0.29080000  0.45290000  1.0 -0.4089704564
N  N24  1  0.29080000  0.04160000  0.04710000  1.0 -0.4089704564
