# DDEC6 charges by PACMAN v1.1 (https://github.com/mtap-research/PACMAN-charge/)
data_JOKXEM10_ASR_pacman
_symmetry_space_group_name_H-M   'P 1'
_cell_length_a   14.01000000
_cell_length_b   14.01000000
_cell_length_c   13.98700000
_cell_angle_alpha   88.32520000
_cell_angle_beta   91.67480000
_cell_angle_gamma   148.54600000
_symmetry_Int_Tables_number   1
_chemical_formula_structural   CdNiC7N6
_chemical_formula_sum   'Cd4 Ni4 C28 N24'
_cell_volume   1431.91145440
_cell_formula_units_Z   4
loop_
 _symmetry_equiv_pos_site_id
 _symmetry_equiv_pos_as_xyz
  1  'x, y, z'
loop_
 _atom_site_type_symbol
 _atom_site_label
 _atom_site_symmetry_multiplicity
 _atom_site_fract_x
 _atom_site_fract_y
 _atom_site_fract_z
 _atom_site_occupancy
 _atom_site_charge
Cd  Cd1  1  0.25614000  0.98566000  0.27557000  1.0 1.0129079986
Cd  Cd2  1  0.98566000  0.25614000  0.22443000  1.0 1.0129079986
Cd  Cd3  1  0.74386000  0.01434000  0.72443000  1.0 1.0129079986
Cd  Cd4  1  0.01434000  0.74386000  0.77557000  1.0 1.0129079986
Ni  Ni1  1  0.62780000  0.62780000  0.25000000  1.0 0.0690343677
Ni  Ni2  1  0.37220000  0.37220000  0.75000000  1.0 0.0690343677
Ni  Ni3  1  0.50000000  0.00000000  0.00000000  1.0 0.0826749932
Ni  Ni4  1  0.00000000  0.50000000  0.50000000  1.0 0.0826749932
C  C1  1  0.85000000  0.75160000  0.25210000  1.0 0.1695544477
C  C2  1  0.75160000  0.85000000  0.24790000  1.0 0.1695544477
C  C3  1  0.15000000  0.24840000  0.74790000  1.0 0.1695544477
C  C4  1  0.24840000  0.15000000  0.75210000  1.0 0.1695544477
C  C5  1  0.50280000  0.40520000  0.25000000  1.0 0.1520368326
C  C6  1  0.40520000  0.50280000  0.25000000  1.0 0.1520368326
C  C7  1  0.49720000  0.59480000  0.75000000  1.0 0.1520368326
C  C8  1  0.59480000  0.49720000  0.75000000  1.0 0.1520368326
C  C9  1  0.62970000  0.06730000  0.10830000  1.0 0.1315161204
C  C10  1  0.06730000  0.62970000  0.39170000  1.0 0.1315161204
C  C11  1  0.37030000  0.93270000  0.89170000  1.0 0.1315161204
C  C12  1  0.93270000  0.37030000  0.60830000  1.0 0.1315161204
C  C13  1  0.62610000  0.02330000  0.92430000  1.0 0.1695544477
C  C14  1  0.02330000  0.62610000  0.57570000  1.0 0.1695544477
C  C15  1  0.37390000  0.97670000  0.07570000  1.0 0.1695544477
C  C16  1  0.97670000  0.37390000  0.42430000  1.0 0.1695544477
C  C17  1  0.56810000  0.18790000  0.42020000  1.0 0.1315161204
C  C18  1  0.18790000  0.56810000  0.07980000  1.0 0.1315161204
C  C19  1  0.43190000  0.81210000  0.57980000  1.0 0.1315161204
C  C20  1  0.81210000  0.43190000  0.92020000  1.0 0.1315161204
C  C21  1  0.45950000  0.14050000  0.47640000  1.0 0.1796557996
C  C22  1  0.14050000  0.45950000  0.02360000  1.0 0.1796557996
C  C23  1  0.54050000  0.85950000  0.52360000  1.0 0.1796557996
C  C24  1  0.85950000  0.54050000  0.97640000  1.0 0.1796557996
C  C25  1  0.50230000  0.18570000  0.58160000  1.0 0.1091429684
C  C26  1  0.18570000  0.50230000  0.91840000  1.0 0.1091429684
C  C27  1  0.49770000  0.81430000  0.41840000  1.0 0.1091429684
C  C28  1  0.81430000  0.49770000  0.08160000  1.0 0.1091429684
N  N1  1  0.98420000  0.82420000  0.25490000  1.0 -0.4007391762
N  N2  1  0.82420000  0.98420000  0.24510000  1.0 -0.4007391762
N  N3  1  0.01580000  0.17580000  0.74510000  1.0 -0.4007391762
N  N4  1  0.17580000  0.01580000  0.75490000  1.0 -0.4007391762
N  N5  1  0.26810000  0.42470000  0.24990000  1.0 -0.3859141078
N  N6  1  0.42470000  0.26810000  0.25010000  1.0 -0.3859141078
N  N7  1  0.73190000  0.57530000  0.75010000  1.0 -0.3859141078
N  N8  1  0.57530000  0.73190000  0.74990000  1.0 -0.3859141078
N  N9  1  0.71120000  0.11040000  0.17390000  1.0 -0.3696824443
N  N10  1  0.11040000  0.71120000  0.32610000  1.0 -0.3696824443
N  N11  1  0.28880000  0.88960000  0.82610000  1.0 -0.3696824443
N  N12  1  0.88960000  0.28880000  0.67390000  1.0 -0.3696824443
N  N13  1  0.70100000  0.03660000  0.87580000  1.0 -0.4165536073
N  N14  1  0.03660000  0.70100000  0.62420000  1.0 -0.4165536073
N  N15  1  0.29900000  0.96340000  0.12420000  1.0 -0.4165536073
N  N16  1  0.96340000  0.29900000  0.37580000  1.0 -0.4165536073
N  N17  1  0.54090000  0.15490000  0.31810000  1.0 -0.2142994907
N  N18  1  0.15490000  0.54090000  0.18190000  1.0 -0.2142994907
N  N19  1  0.45910000  0.84510000  0.68190000  1.0 -0.2162109148
N  N20  1  0.84510000  0.45910000  0.81810000  1.0 -0.2162109148
N  N21  1  0.28930000  0.03810000  0.44250000  1.0 -0.3435948771
N  N22  1  0.03810000  0.28930000  0.05750000  1.0 -0.3435948771
N  N23  1  0.71070000  0.96190000  0.55750000  1.0 -0.3435948771
N  N24  1  0.96190000  0.71070000  0.94250000  1.0 -0.3435948771
