# DDEC6 charges by PACMAN v1.1 (https://github.com/mtap-research/PACMAN-charge/)
data_JOMZOD_ASR_pacman
_symmetry_space_group_name_H-M   'P 1'
_cell_length_a   32.81420000
_cell_length_b   32.81420000
_cell_length_c   26.99860000
_cell_angle_alpha   90.00000000
_cell_angle_beta   90.00000000
_cell_angle_gamma   120.00000000
_symmetry_Int_Tables_number   1
_chemical_formula_structural   Zr3H15C29O17
_chemical_formula_sum   'Zr36 H180 C348 O204'
_cell_volume   25176.50943913
_cell_formula_units_Z   12
loop_
 _symmetry_equiv_pos_site_id
 _symmetry_equiv_pos_as_xyz
  1  'x, y, z'
loop_
 _atom_site_type_symbol
 _atom_site_label
 _atom_site_symmetry_multiplicity
 _atom_site_fract_x
 _atom_site_fract_y
 _atom_site_fract_z
 _atom_site_occupancy
 _atom_site_charge
Zr  Zr1  1  0.92755000  0.40996000  0.31548000  1.0 2.2913566547
Zr  Zr2  1  0.48241000  0.07245000  0.31548000  1.0 2.2913566547
Zr  Zr3  1  0.59004000  0.51759000  0.31548000  1.0 2.2913566547
Zr  Zr4  1  0.07245000  0.59004000  0.81548000  1.0 2.2913566547
Zr  Zr5  1  0.51759000  0.92755000  0.81548000  1.0 2.2913566547
Zr  Zr6  1  0.40996000  0.48241000  0.81548000  1.0 2.2965686636
Zr  Zr7  1  0.51759000  0.59004000  0.68452000  1.0 2.2913566547
Zr  Zr8  1  0.40996000  0.92755000  0.68452000  1.0 2.2913566547
Zr  Zr9  1  0.07245000  0.48241000  0.68452000  1.0 2.2965686636
Zr  Zr10  1  0.48241000  0.40996000  0.18452000  1.0 2.2913566547
Zr  Zr11  1  0.59004000  0.07245000  0.18452000  1.0 2.2965686636
Zr  Zr12  1  0.92755000  0.51759000  0.18452000  1.0 2.2965686636
Zr  Zr13  1  0.07245000  0.59004000  0.68452000  1.0 2.2913566547
Zr  Zr14  1  0.51759000  0.92755000  0.68452000  1.0 2.2913566547
Zr  Zr15  1  0.40996000  0.48241000  0.68452000  1.0 2.2965686636
Zr  Zr16  1  0.92755000  0.40996000  0.18452000  1.0 2.2913566547
Zr  Zr17  1  0.48241000  0.07245000  0.18452000  1.0 2.2913566547
Zr  Zr18  1  0.59004000  0.51759000  0.18452000  1.0 2.2913566547
Zr  Zr19  1  0.48241000  0.40996000  0.31548000  1.0 2.2913566547
Zr  Zr20  1  0.59004000  0.07245000  0.31548000  1.0 2.2965686636
Zr  Zr21  1  0.92755000  0.51759000  0.31548000  1.0 2.2965686636
Zr  Zr22  1  0.51759000  0.59004000  0.81548000  1.0 2.2913566547
Zr  Zr23  1  0.40996000  0.92755000  0.81548000  1.0 2.2913566547
Zr  Zr24  1  0.07245000  0.48241000  0.81548000  1.0 2.2965686636
Zr  Zr25  1  0.84050000  0.42025000  0.25000000  1.0 2.3875996587
Zr  Zr26  1  0.01384000  0.50692000  0.25000000  1.0 2.3597233611
Zr  Zr27  1  0.57975000  0.15950000  0.25000000  1.0 2.3875996587
Zr  Zr28  1  0.49308000  0.98616000  0.25000000  1.0 2.3597233611
Zr  Zr29  1  0.57975000  0.42025000  0.25000000  1.0 2.3875996587
Zr  Zr30  1  0.49308000  0.50692000  0.25000000  1.0 2.3597233611
Zr  Zr31  1  0.15950000  0.57975000  0.75000000  1.0 2.3875996587
Zr  Zr32  1  0.98616000  0.49308000  0.75000000  1.0 2.3664994555
Zr  Zr33  1  0.42025000  0.84050000  0.75000000  1.0 2.3875996587
Zr  Zr34  1  0.50692000  0.01384000  0.75000000  1.0 2.3597233611
Zr  Zr35  1  0.42025000  0.57975000  0.75000000  1.0 2.3875996587
Zr  Zr36  1  0.50692000  0.49308000  0.75000000  1.0 2.3664994555
H  H1  1  0.13141000  0.50077000  0.31658000  1.0 0.122537288
H  H2  1  0.19209000  0.50133000  0.35982000  1.0 0.1100079033
H  H3  1  0.10260000  0.41794000  0.46334000  1.0 0.1100079033
H  H4  1  0.04072000  0.41631000  0.41948000  1.0 0.129843425
H  H5  1  0.17561000  0.47292000  0.51114000  1.0 0.1100079033
H  H6  1  0.30550000  0.48916000  0.58492000  1.0 0.1100079033
H  H7  1  0.36936000  0.86859000  0.31658000  1.0 0.122537288
H  H8  1  0.30924000  0.80791000  0.35982000  1.0 0.1100079033
H  H9  1  0.31534000  0.89740000  0.46334000  1.0 0.1100079033
H  H10  1  0.37559000  0.95928000  0.41948000  1.0 0.129843425
H  H11  1  0.29731000  0.82439000  0.51114000  1.0 0.1100079033
H  H12  1  0.18366000  0.69450000  0.58492000  1.0 0.1100079033
H  H13  1  0.49923000  0.63064000  0.31658000  1.0 0.122537288
H  H14  1  0.49867000  0.69076000  0.35982000  1.0 0.1100079033
H  H15  1  0.58206000  0.68466000  0.46334000  1.0 0.1100079033
H  H16  1  0.58369000  0.62441000  0.41948000  1.0 0.129843425
H  H17  1  0.52708000  0.70269000  0.51114000  1.0 0.1100079033
H  H18  1  0.51084000  0.81634000  0.58492000  1.0 0.1100079033
H  H19  1  0.86859000  0.49923000  0.81658000  1.0 0.122537288
H  H20  1  0.80791000  0.49867000  0.85982000  1.0 0.1100079033
H  H21  1  0.89740000  0.58206000  0.96334000  1.0 0.1100079033
H  H22  1  0.95928000  0.58369000  0.91948000  1.0 0.129843425
H  H23  1  0.82439000  0.52708000  0.01114000  1.0 0.1100079033
H  H24  1  0.69450000  0.51084000  0.08492000  1.0 0.1100079033
H  H25  1  0.63064000  0.13141000  0.81658000  1.0 0.122537288
H  H26  1  0.69076000  0.19209000  0.85982000  1.0 0.1100079033
H  H27  1  0.68466000  0.10260000  0.96334000  1.0 0.1100079033
H  H28  1  0.62441000  0.04072000  0.91948000  1.0 0.129843425
H  H29  1  0.70269000  0.17561000  0.01114000  1.0 0.1100079033
H  H30  1  0.81634000  0.30550000  0.08492000  1.0 0.1100079033
H  H31  1  0.50077000  0.36936000  0.81658000  1.0 0.122537288
H  H32  1  0.50133000  0.30924000  0.85982000  1.0 0.1100079033
H  H33  1  0.41794000  0.31534000  0.96334000  1.0 0.1100079033
H  H34  1  0.41631000  0.37559000  0.91948000  1.0 0.129843425
H  H35  1  0.47292000  0.29731000  0.01114000  1.0 0.1100079033
H  H36  1  0.48916000  0.18366000  0.08492000  1.0 0.1100079033
H  H37  1  0.63064000  0.49923000  0.68342000  1.0 0.122537288
H  H38  1  0.69076000  0.49867000  0.64018000  1.0 0.1100079033
H  H39  1  0.68466000  0.58206000  0.53666000  1.0 0.1100079033
H  H40  1  0.62441000  0.58369000  0.58052000  1.0 0.129843425
H  H41  1  0.70269000  0.52708000  0.48886000  1.0 0.1100079033
H  H42  1  0.81634000  0.51084000  0.41508000  1.0 0.1100079033
H  H43  1  0.50077000  0.13141000  0.68342000  1.0 0.122537288
H  H44  1  0.50133000  0.19209000  0.64018000  1.0 0.1100079033
H  H45  1  0.41794000  0.10260000  0.53666000  1.0 0.1100079033
H  H46  1  0.41631000  0.04072000  0.58052000  1.0 0.129843425
H  H47  1  0.47292000  0.17561000  0.48886000  1.0 0.1100079033
H  H48  1  0.48916000  0.30550000  0.41508000  1.0 0.1100079033
H  H49  1  0.86859000  0.36936000  0.68342000  1.0 0.122537288
H  H50  1  0.80791000  0.30924000  0.64018000  1.0 0.1100079033
H  H51  1  0.89740000  0.31534000  0.53666000  1.0 0.1100079033
H  H52  1  0.95928000  0.37559000  0.58052000  1.0 0.129843425
H  H53  1  0.82439000  0.29731000  0.48886000  1.0 0.1100079033
H  H54  1  0.69450000  0.18366000  0.41508000  1.0 0.1100079033
H  H55  1  0.36936000  0.50077000  0.18342000  1.0 0.122537288
H  H56  1  0.30924000  0.50133000  0.14018000  1.0 0.1100079033
H  H57  1  0.31534000  0.41794000  0.03666000  1.0 0.1100079033
H  H58  1  0.37559000  0.41631000  0.08052000  1.0 0.129843425
H  H59  1  0.29731000  0.47292000  0.98886000  1.0 0.1100079033
H  H60  1  0.18366000  0.48916000  0.91508000  1.0 0.1100079033
H  H61  1  0.49923000  0.86859000  0.18342000  1.0 0.122537288
H  H62  1  0.49867000  0.80791000  0.14018000  1.0 0.1100079033
H  H63  1  0.58206000  0.89740000  0.03666000  1.0 0.1100079033
H  H64  1  0.58369000  0.95928000  0.08052000  1.0 0.129843425
H  H65  1  0.52708000  0.82439000  0.98886000  1.0 0.1100079033
H  H66  1  0.51084000  0.69450000  0.91508000  1.0 0.1100079033
H  H67  1  0.13141000  0.63064000  0.18342000  1.0 0.122537288
H  H68  1  0.19209000  0.69076000  0.14018000  1.0 0.1100079033
H  H69  1  0.10260000  0.68466000  0.03666000  1.0 0.1100079033
H  H70  1  0.04072000  0.62441000  0.08052000  1.0 0.129843425
H  H71  1  0.17561000  0.70269000  0.98886000  1.0 0.1100079033
H  H72  1  0.30550000  0.81634000  0.91508000  1.0 0.1100079033
H  H73  1  0.86859000  0.49923000  0.68342000  1.0 0.122537288
H  H74  1  0.80791000  0.49867000  0.64018000  1.0 0.1100079033
H  H75  1  0.89740000  0.58206000  0.53666000  1.0 0.1100079033
H  H76  1  0.95928000  0.58369000  0.58052000  1.0 0.129843425
H  H77  1  0.82439000  0.52708000  0.48886000  1.0 0.1100079033
H  H78  1  0.69450000  0.51084000  0.41508000  1.0 0.1100079033
H  H79  1  0.63064000  0.13141000  0.68342000  1.0 0.122537288
H  H80  1  0.69076000  0.19209000  0.64018000  1.0 0.1100079033
H  H81  1  0.68466000  0.10260000  0.53666000  1.0 0.1100079033
H  H82  1  0.62441000  0.04072000  0.58052000  1.0 0.129843425
H  H83  1  0.70269000  0.17561000  0.48886000  1.0 0.1100079033
H  H84  1  0.81634000  0.30550000  0.41508000  1.0 0.1100079033
H  H85  1  0.50077000  0.36936000  0.68342000  1.0 0.122537288
H  H86  1  0.50133000  0.30924000  0.64018000  1.0 0.1100079033
H  H87  1  0.41794000  0.31534000  0.53666000  1.0 0.1100079033
H  H88  1  0.41631000  0.37559000  0.58052000  1.0 0.129843425
H  H89  1  0.47292000  0.29731000  0.48886000  1.0 0.1100079033
H  H90  1  0.48916000  0.18366000  0.41508000  1.0 0.1100079033
H  H91  1  0.13141000  0.50077000  0.18342000  1.0 0.122537288
H  H92  1  0.19209000  0.50133000  0.14018000  1.0 0.1100079033
H  H93  1  0.10260000  0.41794000  0.03666000  1.0 0.1100079033
H  H94  1  0.04072000  0.41631000  0.08052000  1.0 0.129843425
H  H95  1  0.17561000  0.47292000  0.98886000  1.0 0.1100079033
H  H96  1  0.30550000  0.48916000  0.91508000  1.0 0.1100079033
H  H97  1  0.36936000  0.86859000  0.18342000  1.0 0.122537288
H  H98  1  0.30924000  0.80791000  0.14018000  1.0 0.1100079033
H  H99  1  0.31534000  0.89740000  0.03666000  1.0 0.1100079033
H  H100  1  0.37559000  0.95928000  0.08052000  1.0 0.129843425
H  H101  1  0.29731000  0.82439000  0.98886000  1.0 0.1100079033
H  H102  1  0.18366000  0.69450000  0.91508000  1.0 0.1100079033
H  H103  1  0.49923000  0.63064000  0.18342000  1.0 0.122537288
H  H104  1  0.49867000  0.69076000  0.14018000  1.0 0.1100079033
H  H105  1  0.58206000  0.68466000  0.03666000  1.0 0.1100079033
H  H106  1  0.58369000  0.62441000  0.08052000  1.0 0.129843425
H  H107  1  0.52708000  0.70269000  0.98886000  1.0 0.1100079033
H  H108  1  0.51084000  0.81634000  0.91508000  1.0 0.1100079033
H  H109  1  0.36936000  0.50077000  0.31658000  1.0 0.122537288
H  H110  1  0.30924000  0.50133000  0.35982000  1.0 0.1100079033
H  H111  1  0.31534000  0.41794000  0.46334000  1.0 0.1100079033
H  H112  1  0.37559000  0.41631000  0.41948000  1.0 0.129843425
H  H113  1  0.29731000  0.47292000  0.51114000  1.0 0.1100079033
H  H114  1  0.18366000  0.48916000  0.58492000  1.0 0.1100079033
H  H115  1  0.49923000  0.86859000  0.31658000  1.0 0.122537288
H  H116  1  0.49867000  0.80791000  0.35982000  1.0 0.1100079033
H  H117  1  0.58206000  0.89740000  0.46334000  1.0 0.1100079033
H  H118  1  0.58369000  0.95928000  0.41948000  1.0 0.129843425
H  H119  1  0.52708000  0.82439000  0.51114000  1.0 0.1100079033
H  H120  1  0.51084000  0.69450000  0.58492000  1.0 0.1100079033
H  H121  1  0.13141000  0.63064000  0.31658000  1.0 0.122537288
H  H122  1  0.19209000  0.69076000  0.35982000  1.0 0.1100079033
H  H123  1  0.10260000  0.68466000  0.46334000  1.0 0.1100079033
H  H124  1  0.04072000  0.62441000  0.41948000  1.0 0.129843425
H  H125  1  0.17561000  0.70269000  0.51114000  1.0 0.1100079033
H  H126  1  0.30550000  0.81634000  0.58492000  1.0 0.1100079033
H  H127  1  0.63064000  0.49923000  0.81658000  1.0 0.122537288
H  H128  1  0.69076000  0.49867000  0.85982000  1.0 0.1100079033
H  H129  1  0.68466000  0.58206000  0.96334000  1.0 0.1100079033
H  H130  1  0.62441000  0.58369000  0.91948000  1.0 0.129843425
H  H131  1  0.70269000  0.52708000  0.01114000  1.0 0.1100079033
H  H132  1  0.81634000  0.51084000  0.08492000  1.0 0.1100079033
H  H133  1  0.50077000  0.13141000  0.81658000  1.0 0.122537288
H  H134  1  0.50133000  0.19209000  0.85982000  1.0 0.1100079033
H  H135  1  0.41794000  0.10260000  0.96334000  1.0 0.1100079033
H  H136  1  0.41631000  0.04072000  0.91948000  1.0 0.129843425
H  H137  1  0.47292000  0.17561000  0.01114000  1.0 0.1100079033
H  H138  1  0.48916000  0.30550000  0.08492000  1.0 0.1100079033
H  H139  1  0.86859000  0.36936000  0.81658000  1.0 0.122537288
H  H140  1  0.80791000  0.30924000  0.85982000  1.0 0.1100079033
H  H141  1  0.89740000  0.31534000  0.96334000  1.0 0.1100079033
H  H142  1  0.95928000  0.37559000  0.91948000  1.0 0.129843425
H  H143  1  0.82439000  0.29731000  0.01114000  1.0 0.1100079033
H  H144  1  0.69450000  0.18366000  0.08492000  1.0 0.1100079033
H  H145  1  0.92421000  0.29779000  0.25000000  1.0 0.2597051876
H  H146  1  0.37358000  0.07579000  0.25000000  1.0 0.2597051876
H  H147  1  0.70221000  0.62642000  0.25000000  1.0 0.2597051876
H  H148  1  0.07579000  0.70221000  0.75000000  1.0 0.2538051324
H  H149  1  0.62642000  0.92421000  0.75000000  1.0 0.2597051876
H  H150  1  0.29779000  0.37358000  0.75000000  1.0 0.2597051876
H  H151  1  0.62642000  0.70221000  0.75000000  1.0 0.2597051876
H  H152  1  0.29779000  0.92421000  0.75000000  1.0 0.2597051876
H  H153  1  0.07579000  0.37358000  0.75000000  1.0 0.2597051876
H  H154  1  0.37358000  0.29779000  0.25000000  1.0 0.2597051876
H  H155  1  0.70221000  0.07579000  0.25000000  1.0 0.2658220248
H  H156  1  0.92421000  0.62642000  0.25000000  1.0 0.2597051876
H  H157  1  0.22685000  0.45370000  0.38495000  1.0 0.1100079033
H  H158  1  0.27113000  0.54226000  0.70107000  1.0 0.129843425
H  H159  1  0.22685000  0.77315000  0.38495000  1.0 0.1100079033
H  H160  1  0.27113000  0.72887000  0.70107000  1.0 0.129843425
H  H161  1  0.54630000  0.77315000  0.38495000  1.0 0.1100079033
H  H162  1  0.45774000  0.72887000  0.70107000  1.0 0.129843425
H  H163  1  0.77315000  0.54630000  0.88495000  1.0 0.1100079033
H  H164  1  0.72887000  0.45774000  0.20107000  1.0 0.129843425
H  H165  1  0.77315000  0.22685000  0.88495000  1.0 0.1100079033
H  H166  1  0.72887000  0.27113000  0.20107000  1.0 0.129843425
H  H167  1  0.45370000  0.22685000  0.88495000  1.0 0.1100079033
H  H168  1  0.54226000  0.27113000  0.20107000  1.0 0.129843425
H  H169  1  0.77315000  0.54630000  0.61505000  1.0 0.1100079033
H  H170  1  0.72887000  0.45774000  0.29893000  1.0 0.129843425
H  H171  1  0.45370000  0.22685000  0.61505000  1.0 0.1100079033
H  H172  1  0.54226000  0.27113000  0.29893000  1.0 0.129843425
H  H173  1  0.77315000  0.22685000  0.61505000  1.0 0.1100079033
H  H174  1  0.72887000  0.27113000  0.29893000  1.0 0.129843425
H  H175  1  0.22685000  0.45370000  0.11505000  1.0 0.1100079033
H  H176  1  0.27113000  0.54226000  0.79893000  1.0 0.129843425
H  H177  1  0.54630000  0.77315000  0.11505000  1.0 0.1100079033
H  H178  1  0.45774000  0.72887000  0.79893000  1.0 0.129843425
H  H179  1  0.22685000  0.77315000  0.11505000  1.0 0.1100079033
H  H180  1  0.27113000  0.72887000  0.79893000  1.0 0.129843425
C  C1  1  0.04091000  0.45652000  0.33392000  1.0 0.6191170233
C  C2  1  0.07913000  0.45658000  0.36379000  1.0 -0.0491633072
C  C3  1  0.12541000  0.48361000  0.34574000  1.0 -0.0930741829
C  C4  1  0.16159000  0.48415000  0.37210000  1.0 -0.1595263522
C  C5  1  0.15407000  0.46001000  0.41611000  1.0 0.0614430296
C  C6  1  0.10855000  0.43445000  0.43374000  1.0 -0.1595263522
C  C7  1  0.07120000  0.43329000  0.40712000  1.0 -0.0955693407
C  C8  1  0.19467000  0.46302000  0.44355000  1.0 0.0717404061
C  C9  1  0.19921000  0.47090000  0.49420000  1.0 -0.2060683266
C  C10  1  0.28461000  0.49677000  0.59981000  1.0 -0.1595263522
C  C11  1  0.29366000  0.51526000  0.64699000  1.0 -0.0266385552
C  C12  1  0.33759000  0.52257000  0.67253000  1.0 0.6332699574
C  C13  1  0.41561000  0.95909000  0.33392000  1.0 0.6191170233
C  C14  1  0.37745000  0.92087000  0.36379000  1.0 -0.0491633072
C  C15  1  0.35820000  0.87459000  0.34574000  1.0 -0.0930741829
C  C16  1  0.32256000  0.83841000  0.37210000  1.0 -0.1595263522
C  C17  1  0.30594000  0.84593000  0.41611000  1.0 0.0614430296
C  C18  1  0.32590000  0.89145000  0.43374000  1.0 -0.1595263522
C  C19  1  0.36209000  0.92880000  0.40712000  1.0 -0.0930741829
C  C20  1  0.26835000  0.80533000  0.44355000  1.0 0.0717404061
C  C21  1  0.27169000  0.80079000  0.49420000  1.0 -0.2060683266
C  C22  1  0.21216000  0.71539000  0.59981000  1.0 -0.1595263522
C  C23  1  0.22160000  0.70634000  0.64699000  1.0 -0.0266385552
C  C24  1  0.18498000  0.66241000  0.67253000  1.0 0.6332699574
C  C25  1  0.54348000  0.58439000  0.33392000  1.0 0.6191170233
C  C26  1  0.54342000  0.62255000  0.36379000  1.0 -0.0491633072
C  C27  1  0.51639000  0.64180000  0.34574000  1.0 -0.0930741829
C  C28  1  0.51585000  0.67744000  0.37210000  1.0 -0.1595263522
C  C29  1  0.53999000  0.69406000  0.41611000  1.0 0.0614430296
C  C30  1  0.56555000  0.67410000  0.43374000  1.0 -0.1595263522
C  C31  1  0.56671000  0.63791000  0.40712000  1.0 -0.0930741829
C  C32  1  0.53698000  0.73165000  0.44355000  1.0 0.0717404061
C  C33  1  0.52910000  0.72831000  0.49420000  1.0 -0.2060683266
C  C34  1  0.50323000  0.78784000  0.59981000  1.0 -0.1595263522
C  C35  1  0.48474000  0.77840000  0.64699000  1.0 -0.0266385552
C  C36  1  0.47743000  0.81502000  0.67253000  1.0 0.6332699574
C  C37  1  0.95909000  0.54348000  0.83392000  1.0 0.6191170233
C  C38  1  0.92087000  0.54342000  0.86379000  1.0 -0.0491633072
C  C39  1  0.87459000  0.51639000  0.84574000  1.0 -0.0930741829
C  C40  1  0.83841000  0.51585000  0.87210000  1.0 -0.1595263522
C  C41  1  0.84593000  0.53999000  0.91611000  1.0 0.0614430296
C  C42  1  0.89145000  0.56555000  0.93374000  1.0 -0.1595263522
C  C43  1  0.92880000  0.56671000  0.90712000  1.0 -0.0955693407
C  C44  1  0.80533000  0.53698000  0.94355000  1.0 0.0717404061
C  C45  1  0.80079000  0.52910000  0.99420000  1.0 -0.2060683266
C  C46  1  0.71539000  0.50323000  0.09981000  1.0 -0.1595263522
C  C47  1  0.70634000  0.48474000  0.14699000  1.0 -0.0266385552
C  C48  1  0.66241000  0.47743000  0.17253000  1.0 0.6332699574
C  C49  1  0.58439000  0.04091000  0.83392000  1.0 0.6191170233
C  C50  1  0.62255000  0.07913000  0.86379000  1.0 -0.0491633072
C  C51  1  0.64180000  0.12541000  0.84574000  1.0 -0.0930741829
C  C52  1  0.67744000  0.16159000  0.87210000  1.0 -0.1595263522
C  C53  1  0.69406000  0.15407000  0.91611000  1.0 0.0614430296
C  C54  1  0.67410000  0.10855000  0.93374000  1.0 -0.1595263522
C  C55  1  0.63791000  0.07120000  0.90712000  1.0 -0.0930741829
C  C56  1  0.73165000  0.19467000  0.94355000  1.0 0.0717404061
C  C57  1  0.72831000  0.19921000  0.99420000  1.0 -0.2060683266
C  C58  1  0.78784000  0.28461000  0.09981000  1.0 -0.1595263522
C  C59  1  0.77840000  0.29366000  0.14699000  1.0 -0.0266385552
C  C60  1  0.81502000  0.33759000  0.17253000  1.0 0.6332699574
C  C61  1  0.45652000  0.41561000  0.83392000  1.0 0.6191170233
C  C62  1  0.45658000  0.37745000  0.86379000  1.0 -0.0491633072
C  C63  1  0.48361000  0.35820000  0.84574000  1.0 -0.0930741829
C  C64  1  0.48415000  0.32256000  0.87210000  1.0 -0.1595263522
C  C65  1  0.46001000  0.30594000  0.91611000  1.0 0.0614430296
C  C66  1  0.43445000  0.32590000  0.93374000  1.0 -0.1595263522
C  C67  1  0.43329000  0.36209000  0.90712000  1.0 -0.0930741829
C  C68  1  0.46302000  0.26835000  0.94355000  1.0 0.0717404061
C  C69  1  0.47090000  0.27169000  0.99420000  1.0 -0.2060683266
C  C70  1  0.49677000  0.21216000  0.09981000  1.0 -0.1595263522
C  C71  1  0.51526000  0.22160000  0.14699000  1.0 -0.0266385552
C  C72  1  0.52257000  0.18498000  0.17253000  1.0 0.6332699574
C  C73  1  0.58439000  0.54348000  0.66608000  1.0 0.6191170233
C  C74  1  0.62255000  0.54342000  0.63621000  1.0 -0.0491633072
C  C75  1  0.64180000  0.51639000  0.65426000  1.0 -0.0930741829
C  C76  1  0.67744000  0.51585000  0.62790000  1.0 -0.1595263522
C  C77  1  0.69406000  0.53999000  0.58389000  1.0 0.0614430296
C  C78  1  0.67410000  0.56555000  0.56626000  1.0 -0.1595263522
C  C79  1  0.63791000  0.56671000  0.59288000  1.0 -0.0930741829
C  C80  1  0.73165000  0.53698000  0.55645000  1.0 0.0717404061
C  C81  1  0.72831000  0.52910000  0.50580000  1.0 -0.2060683266
C  C82  1  0.78784000  0.50323000  0.40019000  1.0 -0.1595263522
C  C83  1  0.77840000  0.48474000  0.35301000  1.0 -0.0266385552
C  C84  1  0.81502000  0.47743000  0.32747000  1.0 0.6332699574
C  C85  1  0.45652000  0.04091000  0.66608000  1.0 0.6191170233
C  C86  1  0.45658000  0.07913000  0.63621000  1.0 -0.0491633072
C  C87  1  0.48361000  0.12541000  0.65426000  1.0 -0.0930741829
C  C88  1  0.48415000  0.16159000  0.62790000  1.0 -0.1595263522
C  C89  1  0.46001000  0.15407000  0.58389000  1.0 0.0614430296
C  C90  1  0.43445000  0.10855000  0.56626000  1.0 -0.1595263522
C  C91  1  0.43329000  0.07120000  0.59288000  1.0 -0.0930741829
C  C92  1  0.46302000  0.19467000  0.55645000  1.0 0.0717404061
C  C93  1  0.47090000  0.19921000  0.50580000  1.0 -0.2060683266
C  C94  1  0.49677000  0.28461000  0.40019000  1.0 -0.1595263522
C  C95  1  0.51526000  0.29366000  0.35301000  1.0 -0.0266385552
C  C96  1  0.52257000  0.33759000  0.32747000  1.0 0.6332699574
C  C97  1  0.95909000  0.41561000  0.66608000  1.0 0.6191170233
C  C98  1  0.92087000  0.37745000  0.63621000  1.0 -0.0491633072
C  C99  1  0.87459000  0.35820000  0.65426000  1.0 -0.0930741829
C  C100  1  0.83841000  0.32256000  0.62790000  1.0 -0.1595263522
C  C101  1  0.84593000  0.30594000  0.58389000  1.0 0.0614430296
C  C102  1  0.89145000  0.32590000  0.56626000  1.0 -0.1595263522
C  C103  1  0.92880000  0.36209000  0.59288000  1.0 -0.0930741829
C  C104  1  0.80533000  0.26835000  0.55645000  1.0 0.0717404061
C  C105  1  0.80079000  0.27169000  0.50580000  1.0 -0.2060683266
C  C106  1  0.71539000  0.21216000  0.40019000  1.0 -0.1595263522
C  C107  1  0.70634000  0.22160000  0.35301000  1.0 -0.0266385552
C  C108  1  0.66241000  0.18498000  0.32747000  1.0 0.6332699574
C  C109  1  0.41561000  0.45652000  0.16608000  1.0 0.6191170233
C  C110  1  0.37745000  0.45658000  0.13621000  1.0 -0.0491633072
C  C111  1  0.35820000  0.48361000  0.15426000  1.0 -0.0930741829
C  C112  1  0.32256000  0.48415000  0.12790000  1.0 -0.1595263522
C  C113  1  0.30594000  0.46001000  0.08389000  1.0 0.0614430296
C  C114  1  0.32590000  0.43445000  0.06626000  1.0 -0.1595263522
C  C115  1  0.36209000  0.43329000  0.09288000  1.0 -0.0930741829
C  C116  1  0.26835000  0.46302000  0.05645000  1.0 0.0717404061
C  C117  1  0.27169000  0.47090000  0.00580000  1.0 -0.2060683266
C  C118  1  0.21216000  0.49677000  0.90019000  1.0 -0.1595263522
C  C119  1  0.22160000  0.51526000  0.85301000  1.0 -0.0266385552
C  C120  1  0.18498000  0.52257000  0.82747000  1.0 0.6332699574
C  C121  1  0.54348000  0.95909000  0.16608000  1.0 0.6191170233
C  C122  1  0.54342000  0.92087000  0.13621000  1.0 -0.0491633072
C  C123  1  0.51639000  0.87459000  0.15426000  1.0 -0.0930741829
C  C124  1  0.51585000  0.83841000  0.12790000  1.0 -0.1595263522
C  C125  1  0.53999000  0.84593000  0.08389000  1.0 0.0614430296
C  C126  1  0.56555000  0.89145000  0.06626000  1.0 -0.1595263522
C  C127  1  0.56671000  0.92880000  0.09288000  1.0 -0.0930741829
C  C128  1  0.53698000  0.80533000  0.05645000  1.0 0.0717404061
C  C129  1  0.52910000  0.80079000  0.00580000  1.0 -0.2060683266
C  C130  1  0.50323000  0.71539000  0.90019000  1.0 -0.1595263522
C  C131  1  0.48474000  0.70634000  0.85301000  1.0 -0.0266385552
C  C132  1  0.47743000  0.66241000  0.82747000  1.0 0.6332699574
C  C133  1  0.04091000  0.58439000  0.16608000  1.0 0.6191170233
C  C134  1  0.07913000  0.62255000  0.13621000  1.0 -0.0491633072
C  C135  1  0.12541000  0.64180000  0.15426000  1.0 -0.0930741829
C  C136  1  0.16159000  0.67744000  0.12790000  1.0 -0.1595263522
C  C137  1  0.15407000  0.69406000  0.08389000  1.0 0.0614430296
C  C138  1  0.10855000  0.67410000  0.06626000  1.0 -0.1595263522
C  C139  1  0.07120000  0.63791000  0.09288000  1.0 -0.0930741829
C  C140  1  0.19467000  0.73165000  0.05645000  1.0 0.0717404061
C  C141  1  0.19921000  0.72831000  0.00580000  1.0 -0.2060683266
C  C142  1  0.28461000  0.78784000  0.90019000  1.0 -0.1595263522
C  C143  1  0.29366000  0.77840000  0.85301000  1.0 -0.0266385552
C  C144  1  0.33759000  0.81502000  0.82747000  1.0 0.6332699574
C  C145  1  0.95909000  0.54348000  0.66608000  1.0 0.6191170233
C  C146  1  0.92087000  0.54342000  0.63621000  1.0 -0.0491633072
C  C147  1  0.87459000  0.51639000  0.65426000  1.0 -0.0930741829
C  C148  1  0.83841000  0.51585000  0.62790000  1.0 -0.1595263522
C  C149  1  0.84593000  0.53999000  0.58389000  1.0 0.0614430296
C  C150  1  0.89145000  0.56555000  0.56626000  1.0 -0.1595263522
C  C151  1  0.92880000  0.56671000  0.59288000  1.0 -0.0955693407
C  C152  1  0.80533000  0.53698000  0.55645000  1.0 0.0717404061
C  C153  1  0.80079000  0.52910000  0.50580000  1.0 -0.2060683266
C  C154  1  0.71539000  0.50323000  0.40019000  1.0 -0.1595263522
C  C155  1  0.70634000  0.48474000  0.35301000  1.0 -0.0266385552
C  C156  1  0.66241000  0.47743000  0.32747000  1.0 0.6332699574
C  C157  1  0.58439000  0.04091000  0.66608000  1.0 0.6191170233
C  C158  1  0.62255000  0.07913000  0.63621000  1.0 -0.0491633072
C  C159  1  0.64180000  0.12541000  0.65426000  1.0 -0.0930741829
C  C160  1  0.67744000  0.16159000  0.62790000  1.0 -0.1595263522
C  C161  1  0.69406000  0.15407000  0.58389000  1.0 0.0614430296
C  C162  1  0.67410000  0.10855000  0.56626000  1.0 -0.1595263522
C  C163  1  0.63791000  0.07120000  0.59288000  1.0 -0.0930741829
C  C164  1  0.73165000  0.19467000  0.55645000  1.0 0.0717404061
C  C165  1  0.72831000  0.19921000  0.50580000  1.0 -0.2060683266
C  C166  1  0.78784000  0.28461000  0.40019000  1.0 -0.1595263522
C  C167  1  0.77840000  0.29366000  0.35301000  1.0 -0.0266385552
C  C168  1  0.81502000  0.33759000  0.32747000  1.0 0.6332699574
C  C169  1  0.45652000  0.41561000  0.66608000  1.0 0.6191170233
C  C170  1  0.45658000  0.37745000  0.63621000  1.0 -0.0491633072
C  C171  1  0.48361000  0.35820000  0.65426000  1.0 -0.0930741829
C  C172  1  0.48415000  0.32256000  0.62790000  1.0 -0.1595263522
C  C173  1  0.46001000  0.30594000  0.58389000  1.0 0.0614430296
C  C174  1  0.43445000  0.32590000  0.56626000  1.0 -0.1595263522
C  C175  1  0.43329000  0.36209000  0.59288000  1.0 -0.0930741829
C  C176  1  0.46302000  0.26835000  0.55645000  1.0 0.0717404061
C  C177  1  0.47090000  0.27169000  0.50580000  1.0 -0.2060683266
C  C178  1  0.49677000  0.21216000  0.40019000  1.0 -0.1595263522
C  C179  1  0.51526000  0.22160000  0.35301000  1.0 -0.0266385552
C  C180  1  0.52257000  0.18498000  0.32747000  1.0 0.6332699574
C  C181  1  0.04091000  0.45652000  0.16608000  1.0 0.6191170233
C  C182  1  0.07913000  0.45658000  0.13621000  1.0 -0.0491633072
C  C183  1  0.12541000  0.48361000  0.15426000  1.0 -0.0930741829
C  C184  1  0.16159000  0.48415000  0.12790000  1.0 -0.1595263522
C  C185  1  0.15407000  0.46001000  0.08389000  1.0 0.0614430296
C  C186  1  0.10855000  0.43445000  0.06626000  1.0 -0.1595263522
C  C187  1  0.07120000  0.43329000  0.09288000  1.0 -0.0955693407
C  C188  1  0.19467000  0.46302000  0.05645000  1.0 0.0717404061
C  C189  1  0.19921000  0.47090000  0.00580000  1.0 -0.2060683266
C  C190  1  0.28461000  0.49677000  0.90019000  1.0 -0.1595263522
C  C191  1  0.29366000  0.51526000  0.85301000  1.0 -0.0266385552
C  C192  1  0.33759000  0.52257000  0.82747000  1.0 0.6332699574
C  C193  1  0.41561000  0.95909000  0.16608000  1.0 0.6191170233
C  C194  1  0.37745000  0.92087000  0.13621000  1.0 -0.0491633072
C  C195  1  0.35820000  0.87459000  0.15426000  1.0 -0.0930741829
C  C196  1  0.32256000  0.83841000  0.12790000  1.0 -0.1595263522
C  C197  1  0.30594000  0.84593000  0.08389000  1.0 0.0614430296
C  C198  1  0.32590000  0.89145000  0.06626000  1.0 -0.1595263522
C  C199  1  0.36209000  0.92880000  0.09288000  1.0 -0.0930741829
C  C200  1  0.26835000  0.80533000  0.05645000  1.0 0.0717404061
C  C201  1  0.27169000  0.80079000  0.00580000  1.0 -0.2060683266
C  C202  1  0.21216000  0.71539000  0.90019000  1.0 -0.1595263522
C  C203  1  0.22160000  0.70634000  0.85301000  1.0 -0.0266385552
C  C204  1  0.18498000  0.66241000  0.82747000  1.0 0.6332699574
C  C205  1  0.54348000  0.58439000  0.16608000  1.0 0.6191170233
C  C206  1  0.54342000  0.62255000  0.13621000  1.0 -0.0491633072
C  C207  1  0.51639000  0.64180000  0.15426000  1.0 -0.0930741829
C  C208  1  0.51585000  0.67744000  0.12790000  1.0 -0.1595263522
C  C209  1  0.53999000  0.69406000  0.08389000  1.0 0.0614430296
C  C210  1  0.56555000  0.67410000  0.06626000  1.0 -0.1595263522
C  C211  1  0.56671000  0.63791000  0.09288000  1.0 -0.0930741829
C  C212  1  0.53698000  0.73165000  0.05645000  1.0 0.0717404061
C  C213  1  0.52910000  0.72831000  0.00580000  1.0 -0.2060683266
C  C214  1  0.50323000  0.78784000  0.90019000  1.0 -0.1595263522
C  C215  1  0.48474000  0.77840000  0.85301000  1.0 -0.0266385552
C  C216  1  0.47743000  0.81502000  0.82747000  1.0 0.6332699574
C  C217  1  0.41561000  0.45652000  0.33392000  1.0 0.6191170233
C  C218  1  0.37745000  0.45658000  0.36379000  1.0 -0.0491633072
C  C219  1  0.35820000  0.48361000  0.34574000  1.0 -0.0930741829
C  C220  1  0.32256000  0.48415000  0.37210000  1.0 -0.1595263522
C  C221  1  0.30594000  0.46001000  0.41611000  1.0 0.0614430296
C  C222  1  0.32590000  0.43445000  0.43374000  1.0 -0.1595263522
C  C223  1  0.36209000  0.43329000  0.40712000  1.0 -0.0930741829
C  C224  1  0.26835000  0.46302000  0.44355000  1.0 0.0717404061
C  C225  1  0.27169000  0.47090000  0.49420000  1.0 -0.2060683266
C  C226  1  0.21216000  0.49677000  0.59981000  1.0 -0.1595263522
C  C227  1  0.22160000  0.51526000  0.64699000  1.0 -0.0266385552
C  C228  1  0.18498000  0.52257000  0.67253000  1.0 0.6332699574
C  C229  1  0.54348000  0.95909000  0.33392000  1.0 0.6191170233
C  C230  1  0.54342000  0.92087000  0.36379000  1.0 -0.0491633072
C  C231  1  0.51639000  0.87459000  0.34574000  1.0 -0.0930741829
C  C232  1  0.51585000  0.83841000  0.37210000  1.0 -0.1595263522
C  C233  1  0.53999000  0.84593000  0.41611000  1.0 0.0614430296
C  C234  1  0.56555000  0.89145000  0.43374000  1.0 -0.1595263522
C  C235  1  0.56671000  0.92880000  0.40712000  1.0 -0.0930741829
C  C236  1  0.53698000  0.80533000  0.44355000  1.0 0.0717404061
C  C237  1  0.52910000  0.80079000  0.49420000  1.0 -0.2060683266
C  C238  1  0.50323000  0.71539000  0.59981000  1.0 -0.1595263522
C  C239  1  0.48474000  0.70634000  0.64699000  1.0 -0.0266385552
C  C240  1  0.47743000  0.66241000  0.67253000  1.0 0.6332699574
C  C241  1  0.04091000  0.58439000  0.33392000  1.0 0.6191170233
C  C242  1  0.07913000  0.62255000  0.36379000  1.0 -0.0491633072
C  C243  1  0.12541000  0.64180000  0.34574000  1.0 -0.0930741829
C  C244  1  0.16159000  0.67744000  0.37210000  1.0 -0.1595263522
C  C245  1  0.15407000  0.69406000  0.41611000  1.0 0.0614430296
C  C246  1  0.10855000  0.67410000  0.43374000  1.0 -0.1595263522
C  C247  1  0.07120000  0.63791000  0.40712000  1.0 -0.0930741829
C  C248  1  0.19467000  0.73165000  0.44355000  1.0 0.0717404061
C  C249  1  0.19921000  0.72831000  0.49420000  1.0 -0.2060683266
C  C250  1  0.28461000  0.78784000  0.59981000  1.0 -0.1595263522
C  C251  1  0.29366000  0.77840000  0.64699000  1.0 -0.0266385552
C  C252  1  0.33759000  0.81502000  0.67253000  1.0 0.6332699574
C  C253  1  0.58439000  0.54348000  0.83392000  1.0 0.6191170233
C  C254  1  0.62255000  0.54342000  0.86379000  1.0 -0.0491633072
C  C255  1  0.64180000  0.51639000  0.84574000  1.0 -0.0930741829
C  C256  1  0.67744000  0.51585000  0.87210000  1.0 -0.1595263522
C  C257  1  0.69406000  0.53999000  0.91611000  1.0 0.0614430296
C  C258  1  0.67410000  0.56555000  0.93374000  1.0 -0.1595263522
C  C259  1  0.63791000  0.56671000  0.90712000  1.0 -0.0930741829
C  C260  1  0.73165000  0.53698000  0.94355000  1.0 0.0717404061
C  C261  1  0.72831000  0.52910000  0.99420000  1.0 -0.2060683266
C  C262  1  0.78784000  0.50323000  0.09981000  1.0 -0.1595263522
C  C263  1  0.77840000  0.48474000  0.14699000  1.0 -0.0266385552
C  C264  1  0.81502000  0.47743000  0.17253000  1.0 0.6332699574
C  C265  1  0.45652000  0.04091000  0.83392000  1.0 0.6191170233
C  C266  1  0.45658000  0.07913000  0.86379000  1.0 -0.0491633072
C  C267  1  0.48361000  0.12541000  0.84574000  1.0 -0.0930741829
C  C268  1  0.48415000  0.16159000  0.87210000  1.0 -0.1595263522
C  C269  1  0.46001000  0.15407000  0.91611000  1.0 0.0614430296
C  C270  1  0.43445000  0.10855000  0.93374000  1.0 -0.1595263522
C  C271  1  0.43329000  0.07120000  0.90712000  1.0 -0.0930741829
C  C272  1  0.46302000  0.19467000  0.94355000  1.0 0.0717404061
C  C273  1  0.47090000  0.19921000  0.99420000  1.0 -0.2060683266
C  C274  1  0.49677000  0.28461000  0.09981000  1.0 -0.1595263522
C  C275  1  0.51526000  0.29366000  0.14699000  1.0 -0.0266385552
C  C276  1  0.52257000  0.33759000  0.17253000  1.0 0.6332699574
C  C277  1  0.95909000  0.41561000  0.83392000  1.0 0.6191170233
C  C278  1  0.92087000  0.37745000  0.86379000  1.0 -0.0491633072
C  C279  1  0.87459000  0.35820000  0.84574000  1.0 -0.0930741829
C  C280  1  0.83841000  0.32256000  0.87210000  1.0 -0.1595263522
C  C281  1  0.84593000  0.30594000  0.91611000  1.0 0.0614430296
C  C282  1  0.89145000  0.32590000  0.93374000  1.0 -0.1595263522
C  C283  1  0.92880000  0.36209000  0.90712000  1.0 -0.0930741829
C  C284  1  0.80533000  0.26835000  0.94355000  1.0 0.0717404061
C  C285  1  0.80079000  0.27169000  0.99420000  1.0 -0.2060683266
C  C286  1  0.71539000  0.21216000  0.09981000  1.0 -0.1595263522
C  C287  1  0.70634000  0.22160000  0.14699000  1.0 -0.0266385552
C  C288  1  0.66241000  0.18498000  0.17253000  1.0 0.6332699574
C  C289  1  0.92510000  0.32650000  0.25000000  1.0 0.3396606239
C  C290  1  0.40140000  0.07490000  0.25000000  1.0 0.3316018412
C  C291  1  0.67350000  0.59860000  0.25000000  1.0 0.3396606239
C  C292  1  0.07490000  0.67350000  0.75000000  1.0 0.3316018412
C  C293  1  0.59860000  0.92510000  0.75000000  1.0 0.3316018412
C  C294  1  0.32650000  0.40140000  0.75000000  1.0 0.3316018412
C  C295  1  0.59860000  0.67350000  0.75000000  1.0 0.3316018412
C  C296  1  0.32650000  0.92510000  0.75000000  1.0 0.3316018412
C  C297  1  0.07490000  0.40140000  0.75000000  1.0 0.3396606239
C  C298  1  0.40140000  0.32650000  0.25000000  1.0 0.3396606239
C  C299  1  0.67350000  0.07490000  0.25000000  1.0 0.3316018412
C  C300  1  0.92510000  0.59860000  0.25000000  1.0 0.3316018412
C  C301  1  0.23797000  0.47594000  0.52060000  1.0 0.0787080692
C  C302  1  0.24465000  0.48930000  0.57410000  1.0 0.0614430296
C  C303  1  0.22955000  0.45910000  0.41890000  1.0 -0.2028047997
C  C304  1  0.26352000  0.52704000  0.67060000  1.0 -0.1144313199
C  C305  1  0.23797000  0.76203000  0.52060000  1.0 0.0787080692
C  C306  1  0.24465000  0.75535000  0.57410000  1.0 0.0614430296
C  C307  1  0.22955000  0.77045000  0.41890000  1.0 -0.2028047997
C  C308  1  0.26352000  0.73648000  0.67060000  1.0 -0.1144313199
C  C309  1  0.52406000  0.76203000  0.52060000  1.0 0.0787080692
C  C310  1  0.51070000  0.75535000  0.57410000  1.0 0.0614430296
C  C311  1  0.54090000  0.77045000  0.41890000  1.0 -0.2028047997
C  C312  1  0.47296000  0.73648000  0.67060000  1.0 -0.1144313199
C  C313  1  0.76203000  0.52406000  0.02060000  1.0 0.0787080692
C  C314  1  0.75535000  0.51070000  0.07410000  1.0 0.0614430296
C  C315  1  0.77045000  0.54090000  0.91890000  1.0 -0.2028047997
C  C316  1  0.73648000  0.47296000  0.17060000  1.0 -0.1144313199
C  C317  1  0.76203000  0.23797000  0.02060000  1.0 0.0787080692
C  C318  1  0.75535000  0.24465000  0.07410000  1.0 0.0614430296
C  C319  1  0.77045000  0.22955000  0.91890000  1.0 -0.2028047997
C  C320  1  0.73648000  0.26352000  0.17060000  1.0 -0.1144313199
C  C321  1  0.47594000  0.23797000  0.02060000  1.0 0.0787080692
C  C322  1  0.48930000  0.24465000  0.07410000  1.0 0.0614430296
C  C323  1  0.45910000  0.22955000  0.91890000  1.0 -0.2028047997
C  C324  1  0.52704000  0.26352000  0.17060000  1.0 -0.1144313199
C  C325  1  0.76203000  0.52406000  0.47940000  1.0 0.0787080692
C  C326  1  0.75535000  0.51070000  0.42590000  1.0 0.0614430296
C  C327  1  0.77045000  0.54090000  0.58110000  1.0 -0.2028047997
C  C328  1  0.73648000  0.47296000  0.32940000  1.0 -0.1144313199
C  C329  1  0.47594000  0.23797000  0.47940000  1.0 0.0787080692
C  C330  1  0.48930000  0.24465000  0.42590000  1.0 0.0614430296
C  C331  1  0.45910000  0.22955000  0.58110000  1.0 -0.2028047997
C  C332  1  0.52704000  0.26352000  0.32940000  1.0 -0.1144313199
C  C333  1  0.76203000  0.23797000  0.47940000  1.0 0.0787080692
C  C334  1  0.75535000  0.24465000  0.42590000  1.0 0.0614430296
C  C335  1  0.77045000  0.22955000  0.58110000  1.0 -0.2028047997
C  C336  1  0.73648000  0.26352000  0.32940000  1.0 -0.1144313199
C  C337  1  0.23797000  0.47594000  0.97940000  1.0 0.0787080692
C  C338  1  0.24465000  0.48930000  0.92590000  1.0 0.0614430296
C  C339  1  0.22955000  0.45910000  0.08110000  1.0 -0.2028047997
C  C340  1  0.26352000  0.52704000  0.82940000  1.0 -0.1144313199
C  C341  1  0.52406000  0.76203000  0.97940000  1.0 0.0787080692
C  C342  1  0.51070000  0.75535000  0.92590000  1.0 0.0614430296
C  C343  1  0.54090000  0.77045000  0.08110000  1.0 -0.2028047997
C  C344  1  0.47296000  0.73648000  0.82940000  1.0 -0.1144313199
C  C345  1  0.23797000  0.76203000  0.97940000  1.0 0.0787080692
C  C346  1  0.24465000  0.75535000  0.92590000  1.0 0.0614430296
C  C347  1  0.22955000  0.77045000  0.08110000  1.0 -0.2028047997
C  C348  1  0.26352000  0.73648000  0.82940000  1.0 -0.1144313199
O  O1  1  0.05287000  0.48619000  0.30015000  1.0 -0.5720136695
O  O2  1  0.99884000  0.42603000  0.34522000  1.0 -0.5940775123
O  O3  1  0.35014000  0.49289000  0.66216000  1.0 -0.5997552011
O  O4  1  0.35834000  0.55697000  0.70169000  1.0 -0.5940775123
O  O5  1  0.92570000  0.34310000  0.29310000  1.0 -0.1595263522
O  O6  1  0.93160000  0.34650000  0.31230000  1.0 -0.0703538304
O  O7  1  0.43332000  0.94713000  0.30015000  1.0 -0.5720136695
O  O8  1  0.42719000  0.00116000  0.34522000  1.0 -0.5997552011
O  O9  1  0.14275000  0.64986000  0.66216000  1.0 -0.5997552011
O  O10  1  0.19863000  0.64166000  0.70169000  1.0 -0.5940775123
O  O11  1  0.41740000  0.07430000  0.29310000  1.0 -0.1595263522
O  O12  1  0.41490000  0.06840000  0.31230000  1.0 -0.0703538304
O  O13  1  0.51381000  0.56668000  0.30015000  1.0 -0.5720136695
O  O14  1  0.57397000  0.57281000  0.34522000  1.0 -0.5997552011
O  O15  1  0.50711000  0.85725000  0.66216000  1.0 -0.5997552011
O  O16  1  0.44303000  0.80137000  0.70169000  1.0 -0.5997552011
O  O17  1  0.65690000  0.58260000  0.29310000  1.0 -0.1595263522
O  O18  1  0.65350000  0.58510000  0.31230000  1.0 -0.0703538304
O  O19  1  0.94713000  0.51381000  0.80015000  1.0 -0.5720136695
O  O20  1  0.00116000  0.57397000  0.84522000  1.0 -0.5997552011
O  O21  1  0.64986000  0.50711000  0.16216000  1.0 -0.5997552011
O  O22  1  0.64166000  0.44303000  0.20169000  1.0 -0.5940775123
O  O23  1  0.07430000  0.65690000  0.79310000  1.0 -0.1595263522
O  O24  1  0.06840000  0.65350000  0.81230000  1.0 -0.0703538304
O  O25  1  0.56668000  0.05287000  0.80015000  1.0 -0.5720136695
O  O26  1  0.57281000  0.99884000  0.84522000  1.0 -0.5997552011
O  O27  1  0.85725000  0.35014000  0.16216000  1.0 -0.5997552011
O  O28  1  0.80137000  0.35834000  0.20169000  1.0 -0.5940775123
O  O29  1  0.58260000  0.92570000  0.79310000  1.0 -0.1595263522
O  O30  1  0.58510000  0.93160000  0.81230000  1.0 -0.0703538304
O  O31  1  0.48619000  0.43332000  0.80015000  1.0 -0.5720136695
O  O32  1  0.42603000  0.42719000  0.84522000  1.0 -0.5997552011
O  O33  1  0.49289000  0.14275000  0.16216000  1.0 -0.5997552011
O  O34  1  0.55697000  0.19863000  0.20169000  1.0 -0.5940775123
O  O35  1  0.34310000  0.41740000  0.79310000  1.0 -0.1595263522
O  O36  1  0.34650000  0.41490000  0.81230000  1.0 -0.0703538304
O  O37  1  0.56668000  0.51381000  0.69985000  1.0 -0.5720136695
O  O38  1  0.57281000  0.57397000  0.65478000  1.0 -0.5997552011
O  O39  1  0.85725000  0.50711000  0.33784000  1.0 -0.5997552011
O  O40  1  0.80137000  0.44303000  0.29831000  1.0 -0.5940775123
O  O41  1  0.58260000  0.65690000  0.70690000  1.0 -0.1595263522
O  O42  1  0.58510000  0.65350000  0.68770000  1.0 -0.0703538304
O  O43  1  0.48619000  0.05287000  0.69985000  1.0 -0.5720136695
O  O44  1  0.42603000  0.99884000  0.65478000  1.0 -0.5997552011
O  O45  1  0.49289000  0.35014000  0.33784000  1.0 -0.5997552011
O  O46  1  0.55697000  0.35834000  0.29831000  1.0 -0.5940775123
O  O47  1  0.34310000  0.92570000  0.70690000  1.0 -0.1595263522
O  O48  1  0.34650000  0.93160000  0.68770000  1.0 -0.0755878819
O  O49  1  0.94713000  0.43332000  0.69985000  1.0 -0.5720136695
O  O50  1  0.00116000  0.42719000  0.65478000  1.0 -0.5997552011
O  O51  1  0.64986000  0.14275000  0.33784000  1.0 -0.5997552011
O  O52  1  0.64166000  0.19863000  0.29831000  1.0 -0.5940775123
O  O53  1  0.07430000  0.41740000  0.70690000  1.0 -0.1595263522
O  O54  1  0.06840000  0.41490000  0.68770000  1.0 -0.0703538304
O  O55  1  0.43332000  0.48619000  0.19985000  1.0 -0.5720136695
O  O56  1  0.42719000  0.42603000  0.15478000  1.0 -0.5997552011
O  O57  1  0.14275000  0.49289000  0.83784000  1.0 -0.5997552011
O  O58  1  0.19863000  0.55697000  0.79831000  1.0 -0.5940775123
O  O59  1  0.41740000  0.34310000  0.20690000  1.0 -0.1595263522
O  O60  1  0.41490000  0.34650000  0.18770000  1.0 -0.0703538304
O  O61  1  0.51381000  0.94713000  0.19985000  1.0 -0.5720136695
O  O62  1  0.57397000  0.00116000  0.15478000  1.0 -0.5940775123
O  O63  1  0.50711000  0.64986000  0.83784000  1.0 -0.6055177135
O  O64  1  0.44303000  0.64166000  0.79831000  1.0 -0.5997552011
O  O65  1  0.65690000  0.07430000  0.20690000  1.0 -0.1595263522
O  O66  1  0.65350000  0.06840000  0.18770000  1.0 -0.0703538304
O  O67  1  0.05287000  0.56668000  0.19985000  1.0 -0.5720136695
O  O68  1  0.99884000  0.57281000  0.15478000  1.0 -0.5997552011
O  O69  1  0.35014000  0.85725000  0.83784000  1.0 -0.5997552011
O  O70  1  0.35834000  0.80137000  0.79831000  1.0 -0.5997552011
O  O71  1  0.92570000  0.58260000  0.20690000  1.0 -0.1595263522
O  O72  1  0.93160000  0.58510000  0.18770000  1.0 -0.0703538304
O  O73  1  0.94713000  0.51381000  0.69985000  1.0 -0.5720136695
O  O74  1  0.00116000  0.57397000  0.65478000  1.0 -0.5997552011
O  O75  1  0.64986000  0.50711000  0.33784000  1.0 -0.5997552011
O  O76  1  0.64166000  0.44303000  0.29831000  1.0 -0.5940775123
O  O77  1  0.07430000  0.65690000  0.70690000  1.0 -0.1595263522
O  O78  1  0.06840000  0.65350000  0.68770000  1.0 -0.0703538304
O  O79  1  0.56668000  0.05287000  0.69985000  1.0 -0.5720136695
O  O80  1  0.57281000  0.99884000  0.65478000  1.0 -0.5997552011
O  O81  1  0.85725000  0.35014000  0.33784000  1.0 -0.5997552011
O  O82  1  0.80137000  0.35834000  0.29831000  1.0 -0.5940775123
O  O83  1  0.58260000  0.92570000  0.70690000  1.0 -0.1595263522
O  O84  1  0.58510000  0.93160000  0.68770000  1.0 -0.0703538304
O  O85  1  0.48619000  0.43332000  0.69985000  1.0 -0.5720136695
O  O86  1  0.42603000  0.42719000  0.65478000  1.0 -0.5997552011
O  O87  1  0.49289000  0.14275000  0.33784000  1.0 -0.5997552011
O  O88  1  0.55697000  0.19863000  0.29831000  1.0 -0.5940775123
O  O89  1  0.34310000  0.41740000  0.70690000  1.0 -0.1595263522
O  O90  1  0.34650000  0.41490000  0.68770000  1.0 -0.0703538304
O  O91  1  0.05287000  0.48619000  0.19985000  1.0 -0.5720136695
O  O92  1  0.99884000  0.42603000  0.15478000  1.0 -0.5940775123
O  O93  1  0.35014000  0.49289000  0.83784000  1.0 -0.5997552011
O  O94  1  0.35834000  0.55697000  0.79831000  1.0 -0.5940775123
O  O95  1  0.92570000  0.34310000  0.20690000  1.0 -0.1595263522
O  O96  1  0.93160000  0.34650000  0.18770000  1.0 -0.0703538304
O  O97  1  0.43332000  0.94713000  0.19985000  1.0 -0.5720136695
O  O98  1  0.42719000  0.00116000  0.15478000  1.0 -0.5997552011
O  O99  1  0.14275000  0.64986000  0.83784000  1.0 -0.5997552011
O  O100  1  0.19863000  0.64166000  0.79831000  1.0 -0.5940775123
O  O101  1  0.41740000  0.07430000  0.20690000  1.0 -0.1595263522
O  O102  1  0.41490000  0.06840000  0.18770000  1.0 -0.0703538304
O  O103  1  0.51381000  0.56668000  0.19985000  1.0 -0.5720136695
O  O104  1  0.57397000  0.57281000  0.15478000  1.0 -0.5997552011
O  O105  1  0.50711000  0.85725000  0.83784000  1.0 -0.5997552011
O  O106  1  0.44303000  0.80137000  0.79831000  1.0 -0.5997552011
O  O107  1  0.65690000  0.58260000  0.20690000  1.0 -0.1595263522
O  O108  1  0.65350000  0.58510000  0.18770000  1.0 -0.0703538304
O  O109  1  0.43332000  0.48619000  0.30015000  1.0 -0.5720136695
O  O110  1  0.42719000  0.42603000  0.34522000  1.0 -0.5997552011
O  O111  1  0.14275000  0.49289000  0.66216000  1.0 -0.5997552011
O  O112  1  0.19863000  0.55697000  0.70169000  1.0 -0.5940775123
O  O113  1  0.41740000  0.34310000  0.29310000  1.0 -0.1595263522
O  O114  1  0.41490000  0.34650000  0.31230000  1.0 -0.0703538304
O  O115  1  0.51381000  0.94713000  0.30015000  1.0 -0.5720136695
O  O116  1  0.57397000  0.00116000  0.34522000  1.0 -0.5940775123
O  O117  1  0.50711000  0.64986000  0.66216000  1.0 -0.6055177135
O  O118  1  0.44303000  0.64166000  0.70169000  1.0 -0.5997552011
O  O119  1  0.65690000  0.07430000  0.29310000  1.0 -0.1595263522
O  O120  1  0.65350000  0.06840000  0.31230000  1.0 -0.0703538304
O  O121  1  0.05287000  0.56668000  0.30015000  1.0 -0.5720136695
O  O122  1  0.99884000  0.57281000  0.34522000  1.0 -0.5997552011
O  O123  1  0.35014000  0.85725000  0.66216000  1.0 -0.5997552011
O  O124  1  0.35834000  0.80137000  0.70169000  1.0 -0.5997552011
O  O125  1  0.92570000  0.58260000  0.29310000  1.0 -0.1595263522
O  O126  1  0.93160000  0.58510000  0.31230000  1.0 -0.0703538304
O  O127  1  0.56668000  0.51381000  0.80015000  1.0 -0.5720136695
O  O128  1  0.57281000  0.57397000  0.84522000  1.0 -0.5997552011
O  O129  1  0.85725000  0.50711000  0.16216000  1.0 -0.5997552011
O  O130  1  0.80137000  0.44303000  0.20169000  1.0 -0.5940775123
O  O131  1  0.58260000  0.65690000  0.79310000  1.0 -0.1595263522
O  O132  1  0.58510000  0.65350000  0.81230000  1.0 -0.0703538304
O  O133  1  0.48619000  0.05287000  0.80015000  1.0 -0.5720136695
O  O134  1  0.42603000  0.99884000  0.84522000  1.0 -0.5997552011
O  O135  1  0.49289000  0.35014000  0.16216000  1.0 -0.5997552011
O  O136  1  0.55697000  0.35834000  0.20169000  1.0 -0.5940775123
O  O137  1  0.34310000  0.92570000  0.79310000  1.0 -0.1595263522
O  O138  1  0.34650000  0.93160000  0.81230000  1.0 -0.0755878819
O  O139  1  0.94713000  0.43332000  0.80015000  1.0 -0.5720136695
O  O140  1  0.00116000  0.42719000  0.84522000  1.0 -0.5997552011
O  O141  1  0.64986000  0.14275000  0.16216000  1.0 -0.5997552011
O  O142  1  0.64166000  0.19863000  0.20169000  1.0 -0.5940775123
O  O143  1  0.07430000  0.41740000  0.79310000  1.0 -0.1595263522
O  O144  1  0.06840000  0.41490000  0.81230000  1.0 -0.0703538304
O  O145  1  0.97526000  0.42660000  0.25000000  1.0 -1.0383184039
O  O146  1  0.89076000  0.40017000  0.25000000  1.0 -1.0989585005
O  O147  1  0.98980000  0.35070000  0.25000000  1.0 -0.3708019001
O  O148  1  0.45134000  0.02474000  0.25000000  1.0 -1.0383184039
O  O149  1  0.50941000  0.10924000  0.25000000  1.0 -1.1116109176
O  O150  1  0.36090000  0.01020000  0.25000000  1.0 -0.3490745706
O  O151  1  0.57340000  0.54866000  0.25000000  1.0 -1.0383184039
O  O152  1  0.59983000  0.49059000  0.25000000  1.0 -1.1116109176
O  O153  1  0.64930000  0.63910000  0.25000000  1.0 -0.3708019001
O  O154  1  0.02474000  0.57340000  0.75000000  1.0 -1.0383184039
O  O155  1  0.10924000  0.59983000  0.75000000  1.0 -1.1116109176
O  O156  1  0.01020000  0.64930000  0.75000000  1.0 -0.3587037656
O  O157  1  0.54866000  0.97526000  0.75000000  1.0 -1.0383184039
O  O158  1  0.49059000  0.89076000  0.75000000  1.0 -1.1116109176
O  O159  1  0.63910000  0.98980000  0.75000000  1.0 -0.3587037656
O  O160  1  0.42660000  0.45134000  0.75000000  1.0 -1.0383184039
O  O161  1  0.40017000  0.50941000  0.75000000  1.0 -1.1159037037
O  O162  1  0.35070000  0.36090000  0.75000000  1.0 -0.3708019001
O  O163  1  0.54866000  0.57340000  0.75000000  1.0 -1.0383184039
O  O164  1  0.49059000  0.59983000  0.75000000  1.0 -1.1116109176
O  O165  1  0.63910000  0.64930000  0.75000000  1.0 -0.3708019001
O  O166  1  0.42660000  0.97526000  0.75000000  1.0 -1.0383184039
O  O167  1  0.40017000  0.89076000  0.75000000  1.0 -1.1116109176
O  O168  1  0.35070000  0.98980000  0.75000000  1.0 -0.3587037656
O  O169  1  0.02474000  0.45134000  0.75000000  1.0 -1.0383184039
O  O170  1  0.10924000  0.50941000  0.75000000  1.0 -1.1116109176
O  O171  1  0.01020000  0.36090000  0.75000000  1.0 -0.3587037656
O  O172  1  0.45134000  0.42660000  0.25000000  1.0 -1.0383184039
O  O173  1  0.50941000  0.40017000  0.25000000  1.0 -1.1116109176
O  O174  1  0.36090000  0.35070000  0.25000000  1.0 -0.3587037656
O  O175  1  0.57340000  0.02474000  0.25000000  1.0 -1.0383184039
O  O176  1  0.59983000  0.10924000  0.25000000  1.0 -1.1116109176
O  O177  1  0.64930000  0.01020000  0.25000000  1.0 -0.3587037656
O  O178  1  0.97526000  0.54866000  0.25000000  1.0 -1.0383184039
O  O179  1  0.89076000  0.49059000  0.25000000  1.0 -1.1116109176
O  O180  1  0.98980000  0.63910000  0.25000000  1.0 -0.3708019001
O  O181  1  0.96451000  0.48226000  0.30628000  1.0 -1.0903041246
O  O182  1  0.87948000  0.43974000  0.32586000  1.0 -1.0803764267
O  O183  1  0.51775000  0.03549000  0.30628000  1.0 -1.0903041246
O  O184  1  0.56026000  0.12052000  0.32586000  1.0 -1.0803764267
O  O185  1  0.51775000  0.48226000  0.30628000  1.0 -1.0989585005
O  O186  1  0.56026000  0.43974000  0.32586000  1.0 -1.0803764267
O  O187  1  0.03549000  0.51775000  0.80628000  1.0 -1.0903041246
O  O188  1  0.12052000  0.56026000  0.82586000  1.0 -1.0903041246
O  O189  1  0.48226000  0.96451000  0.80628000  1.0 -1.0903041246
O  O190  1  0.43974000  0.87948000  0.82586000  1.0 -1.0803764267
O  O191  1  0.48225000  0.51775000  0.80628000  1.0 -1.0903041246
O  O192  1  0.43974000  0.56026000  0.82586000  1.0 -1.0803764267
O  O193  1  0.48225000  0.51775000  0.69372000  1.0 -1.0903041246
O  O194  1  0.43974000  0.56026000  0.67414000  1.0 -1.0803764267
O  O195  1  0.48226000  0.96451000  0.69372000  1.0 -1.0903041246
O  O196  1  0.43974000  0.87948000  0.67414000  1.0 -1.0803764267
O  O197  1  0.03549000  0.51775000  0.69372000  1.0 -1.0903041246
O  O198  1  0.12052000  0.56026000  0.67414000  1.0 -1.0903041246
O  O199  1  0.51775000  0.48226000  0.19372000  1.0 -1.0989585005
O  O200  1  0.56026000  0.43974000  0.17414000  1.0 -1.0803764267
O  O201  1  0.51775000  0.03549000  0.19372000  1.0 -1.0903041246
O  O202  1  0.56026000  0.12052000  0.17414000  1.0 -1.0803764267
O  O203  1  0.96451000  0.48226000  0.19372000  1.0 -1.0903041246
O  O204  1  0.87948000  0.43974000  0.17414000  1.0 -1.0803764267
