# DDEC6 charges by PACMAN v1.1 (https://github.com/mtap-research/PACMAN-charge/)
data_JOMZIX_ASR_pacman
_symmetry_space_group_name_H-M   'P 1'
_cell_length_a   32.87450000
_cell_length_b   32.87450000
_cell_length_c   26.60310000
_cell_angle_alpha   90.00000000
_cell_angle_beta   90.00000000
_cell_angle_gamma   120.00000000
_symmetry_Int_Tables_number   1
_chemical_formula_structural   Zr3H15C29O14
_chemical_formula_sum   'Zr36 H180 C348 O168'
_cell_volume   24898.95905698
_cell_formula_units_Z   12
loop_
 _symmetry_equiv_pos_site_id
 _symmetry_equiv_pos_as_xyz
  1  'x, y, z'
loop_
 _atom_site_type_symbol
 _atom_site_label
 _atom_site_symmetry_multiplicity
 _atom_site_fract_x
 _atom_site_fract_y
 _atom_site_fract_z
 _atom_site_occupancy
 _atom_site_charge
Zr  Zr1  1  0.51699000  0.92647000  0.81623000  1.0 2.4221145493
Zr  Zr2  1  0.40948000  0.48301000  0.81623000  1.0 2.4221145493
Zr  Zr3  1  0.07353000  0.59052000  0.81623000  1.0 2.4221145493
Zr  Zr4  1  0.48301000  0.07353000  0.31623000  1.0 2.4221145493
Zr  Zr5  1  0.59052000  0.51699000  0.31623000  1.0 2.4221145493
Zr  Zr6  1  0.92647000  0.40948000  0.31623000  1.0 2.4221145493
Zr  Zr7  1  0.59052000  0.07353000  0.18377000  1.0 2.4221145493
Zr  Zr8  1  0.92647000  0.51699000  0.18377000  1.0 2.4221145493
Zr  Zr9  1  0.48301000  0.40948000  0.18377000  1.0 2.4221145493
Zr  Zr10  1  0.40948000  0.92647000  0.68377000  1.0 2.4221145493
Zr  Zr11  1  0.07353000  0.48301000  0.68377000  1.0 2.4221145493
Zr  Zr12  1  0.51699000  0.59052000  0.68377000  1.0 2.4221145493
Zr  Zr13  1  0.48301000  0.07353000  0.18377000  1.0 2.4221145493
Zr  Zr14  1  0.59052000  0.51699000  0.18377000  1.0 2.4221145493
Zr  Zr15  1  0.92647000  0.40948000  0.18377000  1.0 2.4221145493
Zr  Zr16  1  0.51699000  0.92647000  0.68377000  1.0 2.4221145493
Zr  Zr17  1  0.40948000  0.48301000  0.68377000  1.0 2.4221145493
Zr  Zr18  1  0.07353000  0.59052000  0.68377000  1.0 2.4221145493
Zr  Zr19  1  0.40948000  0.92647000  0.81623000  1.0 2.4221145493
Zr  Zr20  1  0.07353000  0.48301000  0.81623000  1.0 2.4221145493
Zr  Zr21  1  0.51699000  0.59052000  0.81623000  1.0 2.4221145493
Zr  Zr22  1  0.59052000  0.07353000  0.31623000  1.0 2.4221145493
Zr  Zr23  1  0.92647000  0.51699000  0.31623000  1.0 2.4221145493
Zr  Zr24  1  0.48301000  0.40948000  0.31623000  1.0 2.4221145493
Zr  Zr25  1  0.50635000  0.01270000  0.75000000  1.0 2.3694811148
Zr  Zr26  1  0.50635000  0.49365000  0.75000000  1.0 2.3694811148
Zr  Zr27  1  0.98730000  0.49365000  0.75000000  1.0 2.3694811148
Zr  Zr28  1  0.49365000  0.98730000  0.25000000  1.0 2.3627624196
Zr  Zr29  1  0.49365000  0.50635000  0.25000000  1.0 2.3627624196
Zr  Zr30  1  0.01270000  0.50635000  0.25000000  1.0 2.3627624196
Zr  Zr31  1  0.83969000  0.41985000  0.25000000  1.0 2.3759762925
Zr  Zr32  1  0.58015000  0.16031000  0.25000000  1.0 2.3759762925
Zr  Zr33  1  0.58015000  0.41985000  0.25000000  1.0 2.3694811148
Zr  Zr34  1  0.16031000  0.58015000  0.75000000  1.0 2.3759762925
Zr  Zr35  1  0.41985000  0.83969000  0.75000000  1.0 2.3759762925
Zr  Zr36  1  0.41985000  0.58015000  0.75000000  1.0 2.3759762925
H  H1  1  0.62268000  0.03821000  0.92176000  1.0 0.1316275411
H  H2  1  0.68666000  0.09909000  0.96413000  1.0 0.1186990408
H  H3  1  0.69909000  0.18731000  0.85416000  1.0 0.1146341097
H  H4  1  0.63739000  0.12739000  0.81207000  1.0 0.1316275411
H  H5  1  0.70691000  0.17193000  0.01046000  1.0 0.1186990408
H  H6  1  0.81739000  0.30399000  0.08352000  1.0 0.1186990408
H  H7  1  0.41553000  0.37732000  0.92176000  1.0 0.1316275411
H  H8  1  0.41243000  0.31334000  0.96413000  1.0 0.1186990408
H  H9  1  0.48822000  0.30091000  0.85416000  1.0 0.1146341097
H  H10  1  0.49000000  0.36261000  0.81207000  1.0 0.1316275411
H  H11  1  0.46502000  0.29309000  0.01046000  1.0 0.1186990408
H  H12  1  0.48660000  0.18261000  0.08352000  1.0 0.1186990408
H  H13  1  0.96179000  0.58447000  0.92176000  1.0 0.1316275411
H  H14  1  0.90091000  0.58757000  0.96413000  1.0 0.1186990408
H  H15  1  0.81269000  0.51178000  0.85416000  1.0 0.1146341097
H  H16  1  0.87261000  0.51000000  0.81207000  1.0 0.1316275411
H  H17  1  0.82807000  0.53498000  0.01046000  1.0 0.1186990408
H  H18  1  0.69601000  0.51340000  0.08352000  1.0 0.1186990408
H  H19  1  0.37732000  0.96179000  0.42176000  1.0 0.1316275411
H  H20  1  0.31334000  0.90091000  0.46413000  1.0 0.1186990408
H  H21  1  0.30091000  0.81269000  0.35416000  1.0 0.1146341097
H  H22  1  0.36261000  0.87261000  0.31207000  1.0 0.1316275411
H  H23  1  0.29309000  0.82807000  0.51046000  1.0 0.1186990408
H  H24  1  0.18261000  0.69601000  0.58352000  1.0 0.1186990408
H  H25  1  0.58447000  0.62268000  0.42176000  1.0 0.1316275411
H  H26  1  0.58757000  0.68666000  0.46413000  1.0 0.1186990408
H  H27  1  0.51178000  0.69909000  0.35416000  1.0 0.1146341097
H  H28  1  0.51000000  0.63739000  0.31207000  1.0 0.1316275411
H  H29  1  0.53498000  0.70691000  0.51046000  1.0 0.1186990408
H  H30  1  0.51340000  0.81739000  0.58352000  1.0 0.1186990408
H  H31  1  0.03821000  0.41553000  0.42176000  1.0 0.1316275411
H  H32  1  0.09909000  0.41243000  0.46413000  1.0 0.1186990408
H  H33  1  0.18731000  0.48822000  0.35416000  1.0 0.1146341097
H  H34  1  0.12739000  0.49000000  0.31207000  1.0 0.1316275411
H  H35  1  0.17193000  0.46502000  0.51046000  1.0 0.1186990408
H  H36  1  0.30399000  0.48660000  0.58352000  1.0 0.1186990408
H  H37  1  0.58447000  0.96179000  0.07824000  1.0 0.1316275411
H  H38  1  0.58757000  0.90091000  0.03587000  1.0 0.1186990408
H  H39  1  0.51178000  0.81269000  0.14584000  1.0 0.1146341097
H  H40  1  0.51000000  0.87261000  0.18793000  1.0 0.1316275411
H  H41  1  0.53498000  0.82807000  0.98954000  1.0 0.1186990408
H  H42  1  0.51340000  0.69601000  0.91648000  1.0 0.1186990408
H  H43  1  0.03821000  0.62268000  0.07824000  1.0 0.1316275411
H  H44  1  0.09909000  0.68666000  0.03587000  1.0 0.1186990408
H  H45  1  0.18731000  0.69909000  0.14584000  1.0 0.1146341097
H  H46  1  0.12739000  0.63739000  0.18793000  1.0 0.1316275411
H  H47  1  0.17193000  0.70691000  0.98954000  1.0 0.1186990408
H  H48  1  0.30399000  0.81739000  0.91648000  1.0 0.1186990408
H  H49  1  0.37732000  0.41553000  0.07824000  1.0 0.1316275411
H  H50  1  0.31334000  0.41243000  0.03587000  1.0 0.1186990408
H  H51  1  0.30091000  0.48822000  0.14584000  1.0 0.1146341097
H  H52  1  0.36261000  0.49000000  0.18793000  1.0 0.1316275411
H  H53  1  0.29309000  0.46502000  0.98954000  1.0 0.1186990408
H  H54  1  0.18261000  0.48660000  0.91648000  1.0 0.1186990408
H  H55  1  0.41553000  0.03821000  0.57824000  1.0 0.1316275411
H  H56  1  0.41243000  0.09909000  0.53587000  1.0 0.1186990408
H  H57  1  0.48822000  0.18731000  0.64584000  1.0 0.1146341097
H  H58  1  0.49000000  0.12739000  0.68793000  1.0 0.1316275411
H  H59  1  0.46502000  0.17193000  0.48954000  1.0 0.1186990408
H  H60  1  0.48660000  0.30399000  0.41648000  1.0 0.1186990408
H  H61  1  0.96179000  0.37732000  0.57824000  1.0 0.1316275411
H  H62  1  0.90091000  0.31334000  0.53587000  1.0 0.1186990408
H  H63  1  0.81269000  0.30091000  0.64584000  1.0 0.1146341097
H  H64  1  0.87261000  0.36261000  0.68793000  1.0 0.1316275411
H  H65  1  0.82807000  0.29309000  0.48954000  1.0 0.1186990408
H  H66  1  0.69601000  0.18261000  0.41648000  1.0 0.1186990408
H  H67  1  0.62268000  0.58447000  0.57824000  1.0 0.1316275411
H  H68  1  0.68666000  0.58757000  0.53587000  1.0 0.1186990408
H  H69  1  0.69909000  0.51178000  0.64584000  1.0 0.1146341097
H  H70  1  0.63739000  0.51000000  0.68793000  1.0 0.1316275411
H  H71  1  0.70691000  0.53498000  0.48954000  1.0 0.1186990408
H  H72  1  0.81739000  0.51340000  0.41648000  1.0 0.1186990408
H  H73  1  0.37732000  0.96179000  0.07824000  1.0 0.1316275411
H  H74  1  0.31334000  0.90091000  0.03587000  1.0 0.1186990408
H  H75  1  0.30091000  0.81269000  0.14584000  1.0 0.1146341097
H  H76  1  0.36261000  0.87261000  0.18793000  1.0 0.1316275411
H  H77  1  0.29309000  0.82807000  0.98954000  1.0 0.1186990408
H  H78  1  0.18261000  0.69601000  0.91648000  1.0 0.1186990408
H  H79  1  0.58447000  0.62268000  0.07824000  1.0 0.1316275411
H  H80  1  0.58757000  0.68666000  0.03587000  1.0 0.1186990408
H  H81  1  0.51178000  0.69909000  0.14584000  1.0 0.1146341097
H  H82  1  0.51000000  0.63739000  0.18793000  1.0 0.1316275411
H  H83  1  0.53498000  0.70691000  0.98954000  1.0 0.1186990408
H  H84  1  0.51340000  0.81739000  0.91648000  1.0 0.1186990408
H  H85  1  0.03821000  0.41553000  0.07824000  1.0 0.1316275411
H  H86  1  0.09909000  0.41243000  0.03587000  1.0 0.1186990408
H  H87  1  0.18731000  0.48822000  0.14584000  1.0 0.1146341097
H  H88  1  0.12739000  0.49000000  0.18793000  1.0 0.1316275411
H  H89  1  0.17193000  0.46502000  0.98954000  1.0 0.1186990408
H  H90  1  0.30399000  0.48660000  0.91648000  1.0 0.1186990408
H  H91  1  0.62268000  0.03821000  0.57824000  1.0 0.1316275411
H  H92  1  0.68666000  0.09909000  0.53587000  1.0 0.1186990408
H  H93  1  0.69909000  0.18731000  0.64584000  1.0 0.1146341097
H  H94  1  0.63739000  0.12739000  0.68793000  1.0 0.1316275411
H  H95  1  0.70691000  0.17193000  0.48954000  1.0 0.1186990408
H  H96  1  0.81739000  0.30399000  0.41648000  1.0 0.1186990408
H  H97  1  0.41553000  0.37732000  0.57824000  1.0 0.1316275411
H  H98  1  0.41243000  0.31334000  0.53587000  1.0 0.1186990408
H  H99  1  0.48822000  0.30091000  0.64584000  1.0 0.1146341097
H  H100  1  0.49000000  0.36261000  0.68793000  1.0 0.1316275411
H  H101  1  0.46502000  0.29309000  0.48954000  1.0 0.1186990408
H  H102  1  0.48660000  0.18261000  0.41648000  1.0 0.1186990408
H  H103  1  0.96179000  0.58447000  0.57824000  1.0 0.1316275411
H  H104  1  0.90091000  0.58757000  0.53587000  1.0 0.1186990408
H  H105  1  0.81269000  0.51178000  0.64584000  1.0 0.1146341097
H  H106  1  0.87261000  0.51000000  0.68793000  1.0 0.1316275411
H  H107  1  0.82807000  0.53498000  0.48954000  1.0 0.1186990408
H  H108  1  0.69601000  0.51340000  0.41648000  1.0 0.1186990408
H  H109  1  0.41553000  0.03821000  0.92176000  1.0 0.1316275411
H  H110  1  0.41243000  0.09909000  0.96413000  1.0 0.1186990408
H  H111  1  0.48822000  0.18731000  0.85416000  1.0 0.1146341097
H  H112  1  0.49000000  0.12739000  0.81207000  1.0 0.1316275411
H  H113  1  0.46502000  0.17193000  0.01046000  1.0 0.1186990408
H  H114  1  0.48660000  0.30399000  0.08352000  1.0 0.1186990408
H  H115  1  0.96179000  0.37732000  0.92176000  1.0 0.1316275411
H  H116  1  0.90091000  0.31334000  0.96413000  1.0 0.1186990408
H  H117  1  0.81269000  0.30091000  0.85416000  1.0 0.1146341097
H  H118  1  0.87261000  0.36261000  0.81207000  1.0 0.1316275411
H  H119  1  0.82807000  0.29309000  0.01046000  1.0 0.1186990408
H  H120  1  0.69601000  0.18261000  0.08352000  1.0 0.1186990408
H  H121  1  0.62268000  0.58447000  0.92176000  1.0 0.1316275411
H  H122  1  0.68666000  0.58757000  0.96413000  1.0 0.1186990408
H  H123  1  0.69909000  0.51178000  0.85416000  1.0 0.1146341097
H  H124  1  0.63739000  0.51000000  0.81207000  1.0 0.1316275411
H  H125  1  0.70691000  0.53498000  0.01046000  1.0 0.1186990408
H  H126  1  0.81739000  0.51340000  0.08352000  1.0 0.1186990408
H  H127  1  0.58447000  0.96179000  0.42176000  1.0 0.1316275411
H  H128  1  0.58757000  0.90091000  0.46413000  1.0 0.1186990408
H  H129  1  0.51178000  0.81269000  0.35416000  1.0 0.1146341097
H  H130  1  0.51000000  0.87261000  0.31207000  1.0 0.1316275411
H  H131  1  0.53498000  0.82807000  0.51046000  1.0 0.1186990408
H  H132  1  0.51340000  0.69601000  0.58352000  1.0 0.1186990408
H  H133  1  0.03821000  0.62268000  0.42176000  1.0 0.1316275411
H  H134  1  0.09909000  0.68666000  0.46413000  1.0 0.1186990408
H  H135  1  0.18731000  0.69909000  0.35416000  1.0 0.1146341097
H  H136  1  0.12739000  0.63739000  0.31207000  1.0 0.1316275411
H  H137  1  0.17193000  0.70691000  0.51046000  1.0 0.1186990408
H  H138  1  0.30399000  0.81739000  0.58352000  1.0 0.1186990408
H  H139  1  0.37732000  0.41553000  0.42176000  1.0 0.1316275411
H  H140  1  0.31334000  0.41243000  0.46413000  1.0 0.1186990408
H  H141  1  0.30091000  0.48822000  0.35416000  1.0 0.1146341097
H  H142  1  0.36261000  0.49000000  0.31207000  1.0 0.1316275411
H  H143  1  0.29309000  0.46502000  0.51046000  1.0 0.1186990408
H  H144  1  0.18261000  0.48660000  0.58352000  1.0 0.1186990408
H  H145  1  0.62675000  0.92124000  0.75000000  1.0 0.063070446
H  H146  1  0.29449000  0.37325000  0.75000000  1.0 0.063070446
H  H147  1  0.07876000  0.70551000  0.75000000  1.0 0.063070446
H  H148  1  0.37325000  0.07876000  0.25000000  1.0 0.063070446
H  H149  1  0.70551000  0.62675000  0.25000000  1.0 0.063070446
H  H150  1  0.92124000  0.29449000  0.25000000  1.0 0.063070446
H  H151  1  0.70551000  0.07876000  0.25000000  1.0 0.071185755
H  H152  1  0.92124000  0.62675000  0.25000000  1.0 0.063070446
H  H153  1  0.37325000  0.29449000  0.25000000  1.0 0.063070446
H  H154  1  0.29449000  0.92124000  0.75000000  1.0 0.063070446
H  H155  1  0.07876000  0.37325000  0.75000000  1.0 0.071185755
H  H156  1  0.62675000  0.70551000  0.75000000  1.0 0.063070446
H  H157  1  0.77854000  0.22147000  0.88265000  1.0 0.1186990408
H  H158  1  0.72820000  0.27180000  0.19926000  1.0 0.1384381286
H  H159  1  0.44293000  0.22147000  0.88265000  1.0 0.1186990408
H  H160  1  0.54359000  0.27180000  0.19926000  1.0 0.1384381286
H  H161  1  0.77854000  0.55707000  0.88265000  1.0 0.1186990408
H  H162  1  0.72820000  0.45641000  0.19926000  1.0 0.1384381286
H  H163  1  0.22146000  0.77853000  0.38265000  1.0 0.1146341097
H  H164  1  0.27180000  0.72821000  0.69926000  1.0 0.1384381286
H  H165  1  0.55707000  0.77853000  0.38265000  1.0 0.1186990408
H  H166  1  0.45641000  0.72821000  0.69926000  1.0 0.1384381286
H  H167  1  0.22147000  0.44293000  0.38265000  1.0 0.1186990408
H  H168  1  0.27180000  0.54359000  0.69926000  1.0 0.1384381286
H  H169  1  0.55707000  0.77853000  0.11735000  1.0 0.1186990408
H  H170  1  0.45641000  0.72821000  0.80074000  1.0 0.1384381286
H  H171  1  0.22146000  0.77853000  0.11735000  1.0 0.1146341097
H  H172  1  0.27180000  0.72821000  0.80074000  1.0 0.1384381286
H  H173  1  0.22147000  0.44293000  0.11735000  1.0 0.1186990408
H  H174  1  0.27180000  0.54359000  0.80074000  1.0 0.1384381286
H  H175  1  0.44293000  0.22147000  0.61735000  1.0 0.1186990408
H  H176  1  0.54359000  0.27180000  0.30074000  1.0 0.1384381286
H  H177  1  0.77854000  0.22147000  0.61735000  1.0 0.1186990408
H  H178  1  0.72820000  0.27180000  0.30074000  1.0 0.1384381286
H  H179  1  0.77854000  0.55707000  0.61735000  1.0 0.1186990408
H  H180  1  0.72820000  0.45641000  0.30074000  1.0 0.1384381286
C  C1  1  0.58395000  0.03854000  0.83510000  1.0 0.6382689769
C  C2  1  0.62451000  0.07661000  0.86291000  1.0 -0.0432328636
C  C3  1  0.63834000  0.06821000  0.90795000  1.0 -0.086130974
C  C4  1  0.67655000  0.10509000  0.93382000  1.0 -0.1491767625
C  C5  1  0.69870000  0.14963000  0.91433000  1.0 0.071185755
C  C6  1  0.68382000  0.15732000  0.86806000  1.0 -0.1491767625
C  C7  1  0.64713000  0.12153000  0.84272000  1.0 -0.086130974
C  C8  1  0.73683000  0.18989000  0.94237000  1.0 0.0804843845
C  C9  1  0.73246000  0.19542000  0.99317000  1.0 -0.1961851234
C  C10  1  0.78871000  0.28343000  0.09841000  1.0 -0.1491767625
C  C11  1  0.77853000  0.29383000  0.14554000  1.0 -0.0236614743
C  C12  1  0.81467000  0.33774000  0.17116000  1.0 0.6382689769
C  C13  1  0.45459000  0.41605000  0.83510000  1.0 0.6382689769
C  C14  1  0.45210000  0.37549000  0.86291000  1.0 -0.0432328636
C  C15  1  0.42987000  0.36166000  0.90795000  1.0 -0.086130974
C  C16  1  0.42854000  0.32345000  0.93382000  1.0 -0.1491767625
C  C17  1  0.45093000  0.30130000  0.91433000  1.0 0.071185755
C  C18  1  0.47350000  0.31618000  0.86806000  1.0 -0.1491767625
C  C19  1  0.47440000  0.35287000  0.84272000  1.0 -0.086130974
C  C20  1  0.45306000  0.26317000  0.94237000  1.0 0.0804843845
C  C21  1  0.46296000  0.26754000  0.99317000  1.0 -0.1961851234
C  C22  1  0.49472000  0.21129000  0.09841000  1.0 -0.1491767625
C  C23  1  0.51530000  0.22147000  0.14554000  1.0 -0.0236614743
C  C24  1  0.52307000  0.18533000  0.17116000  1.0 0.6382689769
C  C25  1  0.96146000  0.54541000  0.83510000  1.0 0.6382689769
C  C26  1  0.92339000  0.54790000  0.86291000  1.0 -0.0432328636
C  C27  1  0.93179000  0.57013000  0.90795000  1.0 -0.0843649375
C  C28  1  0.89491000  0.57146000  0.93382000  1.0 -0.1553990709
C  C29  1  0.85037000  0.54907000  0.91433000  1.0 0.071185755
C  C30  1  0.84268000  0.52650000  0.86806000  1.0 -0.1491767625
C  C31  1  0.87847000  0.52560000  0.84272000  1.0 -0.086130974
C  C32  1  0.81011000  0.54694000  0.94237000  1.0 0.0804843845
C  C33  1  0.80458000  0.53704000  0.99317000  1.0 -0.1961851234
C  C34  1  0.71657000  0.50528000  0.09841000  1.0 -0.1491767625
C  C35  1  0.70617000  0.48470000  0.14554000  1.0 -0.0236614743
C  C36  1  0.66226000  0.47693000  0.17116000  1.0 0.6382689769
C  C37  1  0.41605000  0.96146000  0.33510000  1.0 0.6382689769
C  C38  1  0.37549000  0.92339000  0.36291000  1.0 -0.0432328636
C  C39  1  0.36166000  0.93179000  0.40795000  1.0 -0.086130974
C  C40  1  0.32345000  0.89491000  0.43382000  1.0 -0.1553990709
C  C41  1  0.30130000  0.85037000  0.41433000  1.0 0.071185755
C  C42  1  0.31618000  0.84268000  0.36806000  1.0 -0.1491767625
C  C43  1  0.35287000  0.87847000  0.34272000  1.0 -0.086130974
C  C44  1  0.26317000  0.81011000  0.44237000  1.0 0.0804843845
C  C45  1  0.26754000  0.80458000  0.49317000  1.0 -0.1961851234
C  C46  1  0.21129000  0.71657000  0.59841000  1.0 -0.1491767625
C  C47  1  0.22147000  0.70617000  0.64554000  1.0 -0.0236614743
C  C48  1  0.18533000  0.66226000  0.67116000  1.0 0.6382689769
C  C49  1  0.54541000  0.58395000  0.33510000  1.0 0.6382689769
C  C50  1  0.54790000  0.62451000  0.36291000  1.0 -0.0432328636
C  C51  1  0.57013000  0.63834000  0.40795000  1.0 -0.086130974
C  C52  1  0.57146000  0.67655000  0.43382000  1.0 -0.1553990709
C  C53  1  0.54907000  0.69870000  0.41433000  1.0 0.071185755
C  C54  1  0.52650000  0.68382000  0.36806000  1.0 -0.1553990709
C  C55  1  0.52560000  0.64713000  0.34272000  1.0 -0.086130974
C  C56  1  0.54694000  0.73683000  0.44237000  1.0 0.0804843845
C  C57  1  0.53704000  0.73246000  0.49317000  1.0 -0.1961851234
C  C58  1  0.50528000  0.78871000  0.59841000  1.0 -0.1491767625
C  C59  1  0.48470000  0.77853000  0.64554000  1.0 -0.0236614743
C  C60  1  0.47693000  0.81467000  0.67116000  1.0 0.6382689769
C  C61  1  0.03854000  0.45459000  0.33510000  1.0 0.6382689769
C  C62  1  0.07661000  0.45210000  0.36291000  1.0 -0.0432328636
C  C63  1  0.06821000  0.42987000  0.40795000  1.0 -0.0843649375
C  C64  1  0.10509000  0.42854000  0.43382000  1.0 -0.1553990709
C  C65  1  0.14963000  0.45093000  0.41433000  1.0 0.071185755
C  C66  1  0.15732000  0.47350000  0.36806000  1.0 -0.1553990709
C  C67  1  0.12153000  0.47440000  0.34272000  1.0 -0.086130974
C  C68  1  0.18989000  0.45306000  0.44237000  1.0 0.0804843845
C  C69  1  0.19542000  0.46296000  0.49317000  1.0 -0.1961851234
C  C70  1  0.28343000  0.49472000  0.59841000  1.0 -0.1446709352
C  C71  1  0.29383000  0.51530000  0.64554000  1.0 -0.0236614743
C  C72  1  0.33774000  0.52307000  0.67116000  1.0 0.6382689769
C  C73  1  0.54541000  0.96146000  0.16490000  1.0 0.6382689769
C  C74  1  0.54790000  0.92339000  0.13709000  1.0 -0.0432328636
C  C75  1  0.57013000  0.93179000  0.09205000  1.0 -0.086130974
C  C76  1  0.57146000  0.89491000  0.06618000  1.0 -0.1553990709
C  C77  1  0.54907000  0.85037000  0.08567000  1.0 0.071185755
C  C78  1  0.52650000  0.84268000  0.13194000  1.0 -0.1553990709
C  C79  1  0.52560000  0.87847000  0.15728000  1.0 -0.086130974
C  C80  1  0.54694000  0.81011000  0.05763000  1.0 0.0804843845
C  C81  1  0.53704000  0.80458000  0.00683000  1.0 -0.1961851234
C  C82  1  0.50528000  0.71657000  0.90159000  1.0 -0.1491767625
C  C83  1  0.48470000  0.70617000  0.85446000  1.0 -0.0236614743
C  C84  1  0.47693000  0.66226000  0.82884000  1.0 0.6382689769
C  C85  1  0.03854000  0.58395000  0.16490000  1.0 0.6382689769
C  C86  1  0.07661000  0.62451000  0.13709000  1.0 -0.0432328636
C  C87  1  0.06821000  0.63834000  0.09205000  1.0 -0.086130974
C  C88  1  0.10509000  0.67655000  0.06618000  1.0 -0.1553990709
C  C89  1  0.14963000  0.69870000  0.08567000  1.0 0.071185755
C  C90  1  0.15732000  0.68382000  0.13194000  1.0 -0.1553990709
C  C91  1  0.12153000  0.64713000  0.15728000  1.0 -0.086130974
C  C92  1  0.18989000  0.73683000  0.05763000  1.0 0.0804843845
C  C93  1  0.19542000  0.73246000  0.00683000  1.0 -0.1961851234
C  C94  1  0.28343000  0.78871000  0.90159000  1.0 -0.1491767625
C  C95  1  0.29383000  0.77853000  0.85446000  1.0 -0.0236614743
C  C96  1  0.33774000  0.81467000  0.82884000  1.0 0.6382689769
C  C97  1  0.41605000  0.45459000  0.16490000  1.0 0.6382689769
C  C98  1  0.37549000  0.45210000  0.13709000  1.0 -0.0432328636
C  C99  1  0.36166000  0.42987000  0.09205000  1.0 -0.086130974
C  C100  1  0.32345000  0.42854000  0.06618000  1.0 -0.1553990709
C  C101  1  0.30130000  0.45093000  0.08567000  1.0 0.071185755
C  C102  1  0.31618000  0.47350000  0.13194000  1.0 -0.1553990709
C  C103  1  0.35287000  0.47440000  0.15728000  1.0 -0.086130974
C  C104  1  0.26317000  0.45306000  0.05763000  1.0 0.0804843845
C  C105  1  0.26754000  0.46296000  0.00683000  1.0 -0.1961851234
C  C106  1  0.21129000  0.49472000  0.90159000  1.0 -0.1491767625
C  C107  1  0.22147000  0.51530000  0.85446000  1.0 -0.0236614743
C  C108  1  0.18533000  0.52307000  0.82884000  1.0 0.6382689769
C  C109  1  0.45459000  0.03854000  0.66490000  1.0 0.6382689769
C  C110  1  0.45210000  0.07661000  0.63709000  1.0 -0.0432328636
C  C111  1  0.42987000  0.06821000  0.59205000  1.0 -0.086130974
C  C112  1  0.42854000  0.10509000  0.56618000  1.0 -0.1491767625
C  C113  1  0.45093000  0.14963000  0.58567000  1.0 0.071185755
C  C114  1  0.47350000  0.15732000  0.63194000  1.0 -0.1491767625
C  C115  1  0.47440000  0.12153000  0.65728000  1.0 -0.086130974
C  C116  1  0.45306000  0.18989000  0.55763000  1.0 0.0804843845
C  C117  1  0.46296000  0.19542000  0.50683000  1.0 -0.1961851234
C  C118  1  0.49472000  0.28343000  0.40159000  1.0 -0.1491767625
C  C119  1  0.51530000  0.29383000  0.35446000  1.0 -0.0236614743
C  C120  1  0.52307000  0.33774000  0.32884000  1.0 0.6382689769
C  C121  1  0.96146000  0.41605000  0.66490000  1.0 0.6382689769
C  C122  1  0.92339000  0.37549000  0.63709000  1.0 -0.0432328636
C  C123  1  0.93179000  0.36166000  0.59205000  1.0 -0.0843649375
C  C124  1  0.89491000  0.32345000  0.56618000  1.0 -0.1553990709
C  C125  1  0.85037000  0.30130000  0.58567000  1.0 0.071185755
C  C126  1  0.84268000  0.31618000  0.63194000  1.0 -0.1553990709
C  C127  1  0.87847000  0.35287000  0.65728000  1.0 -0.086130974
C  C128  1  0.81011000  0.26317000  0.55763000  1.0 0.0804843845
C  C129  1  0.80458000  0.26754000  0.50683000  1.0 -0.1961851234
C  C130  1  0.71657000  0.21129000  0.40159000  1.0 -0.1491767625
C  C131  1  0.70617000  0.22147000  0.35446000  1.0 -0.0236614743
C  C132  1  0.66226000  0.18533000  0.32884000  1.0 0.6382689769
C  C133  1  0.58395000  0.54541000  0.66490000  1.0 0.6382689769
C  C134  1  0.62451000  0.54790000  0.63709000  1.0 -0.0432328636
C  C135  1  0.63834000  0.57013000  0.59205000  1.0 -0.086130974
C  C136  1  0.67655000  0.57146000  0.56618000  1.0 -0.1491767625
C  C137  1  0.69870000  0.54907000  0.58567000  1.0 0.071185755
C  C138  1  0.68382000  0.52650000  0.63194000  1.0 -0.1553990709
C  C139  1  0.64713000  0.52560000  0.65728000  1.0 -0.086130974
C  C140  1  0.73683000  0.54694000  0.55763000  1.0 0.0804843845
C  C141  1  0.73246000  0.53704000  0.50683000  1.0 -0.1961851234
C  C142  1  0.78871000  0.50528000  0.40159000  1.0 -0.1491767625
C  C143  1  0.77853000  0.48470000  0.35446000  1.0 -0.0236614743
C  C144  1  0.81467000  0.47693000  0.32884000  1.0 0.6382689769
C  C145  1  0.41605000  0.96146000  0.16490000  1.0 0.6382689769
C  C146  1  0.37549000  0.92339000  0.13709000  1.0 -0.0432328636
C  C147  1  0.36166000  0.93179000  0.09205000  1.0 -0.086130974
C  C148  1  0.32345000  0.89491000  0.06618000  1.0 -0.1553990709
C  C149  1  0.30130000  0.85037000  0.08567000  1.0 0.071185755
C  C150  1  0.31618000  0.84268000  0.13194000  1.0 -0.1553990709
C  C151  1  0.35287000  0.87847000  0.15728000  1.0 -0.086130974
C  C152  1  0.26317000  0.81011000  0.05763000  1.0 0.0804843845
C  C153  1  0.26754000  0.80458000  0.00683000  1.0 -0.1961851234
C  C154  1  0.21129000  0.71657000  0.90159000  1.0 -0.1491767625
C  C155  1  0.22147000  0.70617000  0.85446000  1.0 -0.0236614743
C  C156  1  0.18533000  0.66226000  0.82884000  1.0 0.6382689769
C  C157  1  0.54541000  0.58395000  0.16490000  1.0 0.6382689769
C  C158  1  0.54790000  0.62451000  0.13709000  1.0 -0.0432328636
C  C159  1  0.57013000  0.63834000  0.09205000  1.0 -0.086130974
C  C160  1  0.57146000  0.67655000  0.06618000  1.0 -0.1553990709
C  C161  1  0.54907000  0.69870000  0.08567000  1.0 0.071185755
C  C162  1  0.52650000  0.68382000  0.13194000  1.0 -0.1553990709
C  C163  1  0.52560000  0.64713000  0.15728000  1.0 -0.086130974
C  C164  1  0.54694000  0.73683000  0.05763000  1.0 0.0804843845
C  C165  1  0.53704000  0.73246000  0.00683000  1.0 -0.1961851234
C  C166  1  0.50528000  0.78871000  0.90159000  1.0 -0.1491767625
C  C167  1  0.48470000  0.77853000  0.85446000  1.0 -0.0236614743
C  C168  1  0.47693000  0.81467000  0.82884000  1.0 0.6382689769
C  C169  1  0.03854000  0.45459000  0.16490000  1.0 0.6382689769
C  C170  1  0.07661000  0.45210000  0.13709000  1.0 -0.0432328636
C  C171  1  0.06821000  0.42987000  0.09205000  1.0 -0.0843649375
C  C172  1  0.10509000  0.42854000  0.06618000  1.0 -0.1553990709
C  C173  1  0.14963000  0.45093000  0.08567000  1.0 0.071185755
C  C174  1  0.15732000  0.47350000  0.13194000  1.0 -0.1553990709
C  C175  1  0.12153000  0.47440000  0.15728000  1.0 -0.086130974
C  C176  1  0.18989000  0.45306000  0.05763000  1.0 0.0804843845
C  C177  1  0.19542000  0.46296000  0.00683000  1.0 -0.1961851234
C  C178  1  0.28343000  0.49472000  0.90159000  1.0 -0.1446709352
C  C179  1  0.29383000  0.51530000  0.85446000  1.0 -0.0236614743
C  C180  1  0.33774000  0.52307000  0.82884000  1.0 0.6382689769
C  C181  1  0.58395000  0.03854000  0.66490000  1.0 0.6382689769
C  C182  1  0.62451000  0.07661000  0.63709000  1.0 -0.0432328636
C  C183  1  0.63834000  0.06821000  0.59205000  1.0 -0.086130974
C  C184  1  0.67655000  0.10509000  0.56618000  1.0 -0.1491767625
C  C185  1  0.69870000  0.14963000  0.58567000  1.0 0.071185755
C  C186  1  0.68382000  0.15732000  0.63194000  1.0 -0.1491767625
C  C187  1  0.64713000  0.12153000  0.65728000  1.0 -0.086130974
C  C188  1  0.73683000  0.18989000  0.55763000  1.0 0.0804843845
C  C189  1  0.73246000  0.19542000  0.50683000  1.0 -0.1961851234
C  C190  1  0.78871000  0.28343000  0.40159000  1.0 -0.1491767625
C  C191  1  0.77853000  0.29383000  0.35446000  1.0 -0.0236614743
C  C192  1  0.81467000  0.33774000  0.32884000  1.0 0.6382689769
C  C193  1  0.45459000  0.41605000  0.66490000  1.0 0.6382689769
C  C194  1  0.45210000  0.37549000  0.63709000  1.0 -0.0432328636
C  C195  1  0.42987000  0.36166000  0.59205000  1.0 -0.086130974
C  C196  1  0.42854000  0.32345000  0.56618000  1.0 -0.1491767625
C  C197  1  0.45093000  0.30130000  0.58567000  1.0 0.071185755
C  C198  1  0.47350000  0.31618000  0.63194000  1.0 -0.1553990709
C  C199  1  0.47440000  0.35287000  0.65728000  1.0 -0.086130974
C  C200  1  0.45306000  0.26317000  0.55763000  1.0 0.0804843845
C  C201  1  0.46296000  0.26754000  0.50683000  1.0 -0.1961851234
C  C202  1  0.49472000  0.21129000  0.40159000  1.0 -0.1491767625
C  C203  1  0.51530000  0.22147000  0.35446000  1.0 -0.0236614743
C  C204  1  0.52307000  0.18533000  0.32884000  1.0 0.6382689769
C  C205  1  0.96146000  0.54541000  0.66490000  1.0 0.6382689769
C  C206  1  0.92339000  0.54790000  0.63709000  1.0 -0.0432328636
C  C207  1  0.93179000  0.57013000  0.59205000  1.0 -0.0843649375
C  C208  1  0.89491000  0.57146000  0.56618000  1.0 -0.1553990709
C  C209  1  0.85037000  0.54907000  0.58567000  1.0 0.071185755
C  C210  1  0.84268000  0.52650000  0.63194000  1.0 -0.1491767625
C  C211  1  0.87847000  0.52560000  0.65728000  1.0 -0.086130974
C  C212  1  0.81011000  0.54694000  0.55763000  1.0 0.0804843845
C  C213  1  0.80458000  0.53704000  0.50683000  1.0 -0.1961851234
C  C214  1  0.71657000  0.50528000  0.40159000  1.0 -0.1491767625
C  C215  1  0.70617000  0.48470000  0.35446000  1.0 -0.0236614743
C  C216  1  0.66226000  0.47693000  0.32884000  1.0 0.6382689769
C  C217  1  0.45459000  0.03854000  0.83510000  1.0 0.6382689769
C  C218  1  0.45210000  0.07661000  0.86291000  1.0 -0.0432328636
C  C219  1  0.42987000  0.06821000  0.90795000  1.0 -0.086130974
C  C220  1  0.42854000  0.10509000  0.93382000  1.0 -0.1491767625
C  C221  1  0.45093000  0.14963000  0.91433000  1.0 0.071185755
C  C222  1  0.47350000  0.15732000  0.86806000  1.0 -0.1491767625
C  C223  1  0.47440000  0.12153000  0.84272000  1.0 -0.086130974
C  C224  1  0.45306000  0.18989000  0.94237000  1.0 0.0804843845
C  C225  1  0.46296000  0.19542000  0.99317000  1.0 -0.1961851234
C  C226  1  0.49472000  0.28343000  0.09841000  1.0 -0.1491767625
C  C227  1  0.51530000  0.29383000  0.14554000  1.0 -0.0236614743
C  C228  1  0.52307000  0.33774000  0.17116000  1.0 0.6382689769
C  C229  1  0.96146000  0.41605000  0.83510000  1.0 0.6382689769
C  C230  1  0.92339000  0.37549000  0.86291000  1.0 -0.0432328636
C  C231  1  0.93179000  0.36166000  0.90795000  1.0 -0.0843649375
C  C232  1  0.89491000  0.32345000  0.93382000  1.0 -0.1553990709
C  C233  1  0.85037000  0.30130000  0.91433000  1.0 0.071185755
C  C234  1  0.84268000  0.31618000  0.86806000  1.0 -0.1553990709
C  C235  1  0.87847000  0.35287000  0.84272000  1.0 -0.086130974
C  C236  1  0.81011000  0.26317000  0.94237000  1.0 0.0804843845
C  C237  1  0.80458000  0.26754000  0.99317000  1.0 -0.1961851234
C  C238  1  0.71657000  0.21129000  0.09841000  1.0 -0.1491767625
C  C239  1  0.70617000  0.22147000  0.14554000  1.0 -0.0236614743
C  C240  1  0.66226000  0.18533000  0.17116000  1.0 0.6382689769
C  C241  1  0.58395000  0.54541000  0.83510000  1.0 0.6382689769
C  C242  1  0.62451000  0.54790000  0.86291000  1.0 -0.0432328636
C  C243  1  0.63834000  0.57013000  0.90795000  1.0 -0.086130974
C  C244  1  0.67655000  0.57146000  0.93382000  1.0 -0.1491767625
C  C245  1  0.69870000  0.54907000  0.91433000  1.0 0.071185755
C  C246  1  0.68382000  0.52650000  0.86806000  1.0 -0.1553990709
C  C247  1  0.64713000  0.52560000  0.84272000  1.0 -0.086130974
C  C248  1  0.73683000  0.54694000  0.94237000  1.0 0.0804843845
C  C249  1  0.73246000  0.53704000  0.99317000  1.0 -0.1961851234
C  C250  1  0.78871000  0.50528000  0.09841000  1.0 -0.1491767625
C  C251  1  0.77853000  0.48470000  0.14554000  1.0 -0.0236614743
C  C252  1  0.81467000  0.47693000  0.17116000  1.0 0.6382689769
C  C253  1  0.54541000  0.96146000  0.33510000  1.0 0.6382689769
C  C254  1  0.54790000  0.92339000  0.36291000  1.0 -0.0432328636
C  C255  1  0.57013000  0.93179000  0.40795000  1.0 -0.086130974
C  C256  1  0.57146000  0.89491000  0.43382000  1.0 -0.1553990709
C  C257  1  0.54907000  0.85037000  0.41433000  1.0 0.0804843845
C  C258  1  0.52650000  0.84268000  0.36806000  1.0 -0.1553990709
C  C259  1  0.52560000  0.87847000  0.34272000  1.0 -0.086130974
C  C260  1  0.54694000  0.81011000  0.44237000  1.0 0.0804843845
C  C261  1  0.53704000  0.80458000  0.49317000  1.0 -0.1961851234
C  C262  1  0.50528000  0.71657000  0.59841000  1.0 -0.1491767625
C  C263  1  0.48470000  0.70617000  0.64554000  1.0 -0.0236614743
C  C264  1  0.47693000  0.66226000  0.67116000  1.0 0.6382689769
C  C265  1  0.03854000  0.58395000  0.33510000  1.0 0.6382689769
C  C266  1  0.07661000  0.62451000  0.36291000  1.0 -0.0432328636
C  C267  1  0.06821000  0.63834000  0.40795000  1.0 -0.086130974
C  C268  1  0.10509000  0.67655000  0.43382000  1.0 -0.1553990709
C  C269  1  0.14963000  0.69870000  0.41433000  1.0 0.071185755
C  C270  1  0.15732000  0.68382000  0.36806000  1.0 -0.1553990709
C  C271  1  0.12153000  0.64713000  0.34272000  1.0 -0.086130974
C  C272  1  0.18989000  0.73683000  0.44237000  1.0 0.0804843845
C  C273  1  0.19542000  0.73246000  0.49317000  1.0 -0.1961851234
C  C274  1  0.28343000  0.78871000  0.59841000  1.0 -0.1491767625
C  C275  1  0.29383000  0.77853000  0.64554000  1.0 -0.0236614743
C  C276  1  0.33774000  0.81467000  0.67116000  1.0 0.6382689769
C  C277  1  0.41605000  0.45459000  0.33510000  1.0 0.6382689769
C  C278  1  0.37549000  0.45210000  0.36291000  1.0 -0.0432328636
C  C279  1  0.36166000  0.42987000  0.40795000  1.0 -0.086130974
C  C280  1  0.32345000  0.42854000  0.43382000  1.0 -0.1553990709
C  C281  1  0.30130000  0.45093000  0.41433000  1.0 0.071185755
C  C282  1  0.31618000  0.47350000  0.36806000  1.0 -0.1553990709
C  C283  1  0.35287000  0.47440000  0.34272000  1.0 -0.086130974
C  C284  1  0.26317000  0.45306000  0.44237000  1.0 0.0804843845
C  C285  1  0.26754000  0.46296000  0.49317000  1.0 -0.1961851234
C  C286  1  0.21129000  0.49472000  0.59841000  1.0 -0.1491767625
C  C287  1  0.22147000  0.51530000  0.64554000  1.0 -0.0236614743
C  C288  1  0.18533000  0.52307000  0.67116000  1.0 0.6382689769
C  C289  1  0.60030000  0.92460000  0.75000000  1.0 0.5027861809
C  C290  1  0.32430000  0.39970000  0.75000000  1.0 0.5061453464
C  C291  1  0.07540000  0.67570000  0.75000000  1.0 0.5027861809
C  C292  1  0.39970000  0.07540000  0.25000000  1.0 0.5027861809
C  C293  1  0.67570000  0.60030000  0.25000000  1.0 0.5027861809
C  C294  1  0.92460000  0.32430000  0.25000000  1.0 0.5061453464
C  C295  1  0.67570000  0.07540000  0.25000000  1.0 0.5027861809
C  C296  1  0.92460000  0.60030000  0.25000000  1.0 0.5061453464
C  C297  1  0.39970000  0.32430000  0.25000000  1.0 0.5027861809
C  C298  1  0.32430000  0.92460000  0.75000000  1.0 0.5027861809
C  C299  1  0.07540000  0.39970000  0.75000000  1.0 0.5027861809
C  C300  1  0.60030000  0.67570000  0.75000000  1.0 0.5027861809
C  C301  1  0.77560000  0.22440000  0.91700000  1.0 -0.1961851234
C  C302  1  0.76505000  0.23495000  0.01920000  1.0 0.0804843845
C  C303  1  0.75705000  0.24296000  0.07280000  1.0 0.071185755
C  C304  1  0.73623000  0.26377000  0.16880000  1.0 -0.1010171391
C  C305  1  0.44880000  0.22440000  0.91700000  1.0 -0.1961851234
C  C306  1  0.46990000  0.23495000  0.01920000  1.0 0.0804843845
C  C307  1  0.48591000  0.24296000  0.07280000  1.0 0.071185755
C  C308  1  0.52755000  0.26377000  0.16880000  1.0 -0.1010171391
C  C309  1  0.77560000  0.55120000  0.91700000  1.0 -0.1961851234
C  C310  1  0.76505000  0.53010000  0.01920000  1.0 0.0804843845
C  C311  1  0.75704000  0.51409000  0.07280000  1.0 0.071185755
C  C312  1  0.73623000  0.47245000  0.16880000  1.0 -0.1010171391
C  C313  1  0.22440000  0.77560000  0.41700000  1.0 -0.1961851234
C  C314  1  0.23495000  0.76505000  0.51920000  1.0 0.0852846337
C  C315  1  0.24296000  0.75704000  0.57280000  1.0 0.071185755
C  C316  1  0.26377000  0.73623000  0.66880000  1.0 -0.1010171391
C  C317  1  0.55120000  0.77560000  0.41700000  1.0 -0.1961851234
C  C318  1  0.53010000  0.76505000  0.51920000  1.0 0.0804843845
C  C319  1  0.51409000  0.75704000  0.57280000  1.0 0.071185755
C  C320  1  0.47245000  0.73623000  0.66880000  1.0 -0.1010171391
C  C321  1  0.22440000  0.44880000  0.41700000  1.0 -0.1946235764
C  C322  1  0.23495000  0.46990000  0.51920000  1.0 0.0804843845
C  C323  1  0.24296000  0.48591000  0.57280000  1.0 0.071185755
C  C324  1  0.26377000  0.52755000  0.66880000  1.0 -0.1010171391
C  C325  1  0.55120000  0.77560000  0.08300000  1.0 -0.1961851234
C  C326  1  0.53010000  0.76505000  0.98080000  1.0 0.0804843845
C  C327  1  0.51409000  0.75704000  0.92720000  1.0 0.071185755
C  C328  1  0.47245000  0.73623000  0.83120000  1.0 -0.1010171391
C  C329  1  0.22440000  0.77560000  0.08300000  1.0 -0.1961851234
C  C330  1  0.23495000  0.76505000  0.98080000  1.0 0.0852846337
C  C331  1  0.24296000  0.75704000  0.92720000  1.0 0.071185755
C  C332  1  0.26377000  0.73623000  0.83120000  1.0 -0.1010171391
C  C333  1  0.22440000  0.44880000  0.08300000  1.0 -0.1946235764
C  C334  1  0.23495000  0.46990000  0.98080000  1.0 0.0804843845
C  C335  1  0.24296000  0.48591000  0.92720000  1.0 0.071185755
C  C336  1  0.26377000  0.52755000  0.83120000  1.0 -0.1010171391
C  C337  1  0.44880000  0.22440000  0.58300000  1.0 -0.1961851234
C  C338  1  0.46990000  0.23495000  0.48080000  1.0 0.0804843845
C  C339  1  0.48591000  0.24296000  0.42720000  1.0 0.071185755
C  C340  1  0.52755000  0.26377000  0.33120000  1.0 -0.1010171391
C  C341  1  0.77560000  0.22440000  0.58300000  1.0 -0.1961851234
C  C342  1  0.76505000  0.23495000  0.48080000  1.0 0.0804843845
C  C343  1  0.75705000  0.24296000  0.42720000  1.0 0.071185755
C  C344  1  0.73623000  0.26377000  0.33120000  1.0 -0.1010171391
C  C345  1  0.77560000  0.55120000  0.58300000  1.0 -0.1961851234
C  C346  1  0.76505000  0.53010000  0.48080000  1.0 0.0804843845
C  C347  1  0.75704000  0.51409000  0.42720000  1.0 0.071185755
C  C348  1  0.73623000  0.47245000  0.33120000  1.0 -0.1010171391
O  O1  1  0.56608000  0.05139000  0.80119000  1.0 -0.5705283376
O  O2  1  0.57185000  0.99676000  0.84592000  1.0 -0.5895040649
O  O3  1  0.85685000  0.35022000  0.16079000  1.0 -0.6020971156
O  O4  1  0.80085000  0.35800000  0.20073000  1.0 -0.5705283376
O  O5  1  0.58308000  0.92700000  0.80015000  1.0 -0.6575016874
O  O6  1  0.48531000  0.43392000  0.80119000  1.0 -0.5705283376
O  O7  1  0.42491000  0.42815000  0.84592000  1.0 -0.5895040649
O  O8  1  0.49337000  0.14315000  0.16079000  1.0 -0.6020971156
O  O9  1  0.55715000  0.19915000  0.20073000  1.0 -0.5705283376
O  O10  1  0.34392000  0.41692000  0.80015000  1.0 -0.6575016874
O  O11  1  0.94861000  0.51469000  0.80119000  1.0 -0.5705283376
O  O12  1  0.00324000  0.57509000  0.84592000  1.0 -0.5895040649
O  O13  1  0.64978000  0.50663000  0.16079000  1.0 -0.6020971156
O  O14  1  0.64200000  0.44285000  0.20073000  1.0 -0.5705283376
O  O15  1  0.07300000  0.65608000  0.80015000  1.0 -0.6575016874
O  O16  1  0.43392000  0.94861000  0.30119000  1.0 -0.5705283376
O  O17  1  0.42815000  0.00324000  0.34592000  1.0 -0.5895040649
O  O18  1  0.14315000  0.64978000  0.66079000  1.0 -0.6020971156
O  O19  1  0.19915000  0.64200000  0.70073000  1.0 -0.5705283376
O  O20  1  0.41692000  0.07300000  0.30015000  1.0 -0.6575016874
O  O21  1  0.51469000  0.56608000  0.30119000  1.0 -0.5705283376
O  O22  1  0.57509000  0.57185000  0.34592000  1.0 -0.5895040649
O  O23  1  0.50663000  0.85685000  0.66079000  1.0 -0.6020971156
O  O24  1  0.44285000  0.80085000  0.70073000  1.0 -0.5705283376
O  O25  1  0.65608000  0.58308000  0.30015000  1.0 -0.6575016874
O  O26  1  0.05139000  0.48531000  0.30119000  1.0 -0.5705283376
O  O27  1  0.99676000  0.42491000  0.34592000  1.0 -0.5895040649
O  O28  1  0.35022000  0.49337000  0.66079000  1.0 -0.6020971156
O  O29  1  0.35800000  0.55715000  0.70073000  1.0 -0.5705283376
O  O30  1  0.92700000  0.34392000  0.30015000  1.0 -0.6575016874
O  O31  1  0.51469000  0.94861000  0.19881000  1.0 -0.5705283376
O  O32  1  0.57509000  0.00324000  0.15408000  1.0 -0.5895040649
O  O33  1  0.50663000  0.64978000  0.83921000  1.0 -0.6020971156
O  O34  1  0.44285000  0.64200000  0.79927000  1.0 -0.5705283376
O  O35  1  0.65608000  0.07300000  0.19985000  1.0 -0.6545113641
O  O36  1  0.05139000  0.56608000  0.19881000  1.0 -0.5705283376
O  O37  1  0.99676000  0.57185000  0.15408000  1.0 -0.5895040649
O  O38  1  0.35022000  0.85685000  0.83921000  1.0 -0.6020971156
O  O39  1  0.35800000  0.80085000  0.79927000  1.0 -0.5705283376
O  O40  1  0.92700000  0.58308000  0.19985000  1.0 -0.6575016874
O  O41  1  0.43392000  0.48531000  0.19881000  1.0 -0.5705283376
O  O42  1  0.42815000  0.42491000  0.15408000  1.0 -0.5895040649
O  O43  1  0.14315000  0.49337000  0.83921000  1.0 -0.6020971156
O  O44  1  0.19915000  0.55715000  0.79927000  1.0 -0.5705283376
O  O45  1  0.41692000  0.34392000  0.19985000  1.0 -0.6545113641
O  O46  1  0.48531000  0.05139000  0.69881000  1.0 -0.5705283376
O  O47  1  0.42491000  0.99676000  0.65408000  1.0 -0.5895040649
O  O48  1  0.49337000  0.35022000  0.33921000  1.0 -0.6020971156
O  O49  1  0.55715000  0.35800000  0.29927000  1.0 -0.5705283376
O  O50  1  0.34392000  0.92700000  0.69985000  1.0 -0.6575016874
O  O51  1  0.94861000  0.43392000  0.69881000  1.0 -0.5705283376
O  O52  1  0.00324000  0.42815000  0.65408000  1.0 -0.5895040649
O  O53  1  0.64978000  0.14315000  0.33921000  1.0 -0.6020971156
O  O54  1  0.64200000  0.19915000  0.29927000  1.0 -0.5705283376
O  O55  1  0.07300000  0.41692000  0.69985000  1.0 -0.6575016874
O  O56  1  0.56608000  0.51469000  0.69881000  1.0 -0.5705283376
O  O57  1  0.57185000  0.57509000  0.65408000  1.0 -0.5895040649
O  O58  1  0.85685000  0.50663000  0.33921000  1.0 -0.6020971156
O  O59  1  0.80085000  0.44285000  0.29927000  1.0 -0.5705283376
O  O60  1  0.58308000  0.65608000  0.69985000  1.0 -0.6575016874
O  O61  1  0.43392000  0.94861000  0.19881000  1.0 -0.5705283376
O  O62  1  0.42815000  0.00324000  0.15408000  1.0 -0.5895040649
O  O63  1  0.14315000  0.64978000  0.83921000  1.0 -0.6020971156
O  O64  1  0.19915000  0.64200000  0.79927000  1.0 -0.5705283376
O  O65  1  0.41692000  0.07300000  0.19985000  1.0 -0.6575016874
O  O66  1  0.51469000  0.56608000  0.19881000  1.0 -0.5705283376
O  O67  1  0.57509000  0.57185000  0.15408000  1.0 -0.5895040649
O  O68  1  0.50663000  0.85685000  0.83921000  1.0 -0.6020971156
O  O69  1  0.44285000  0.80085000  0.79927000  1.0 -0.5705283376
O  O70  1  0.65608000  0.58308000  0.19985000  1.0 -0.6575016874
O  O71  1  0.05139000  0.48531000  0.19881000  1.0 -0.5705283376
O  O72  1  0.99676000  0.42491000  0.15408000  1.0 -0.5895040649
O  O73  1  0.35022000  0.49337000  0.83921000  1.0 -0.6020971156
O  O74  1  0.35800000  0.55715000  0.79927000  1.0 -0.5705283376
O  O75  1  0.92700000  0.34392000  0.19985000  1.0 -0.6575016874
O  O76  1  0.56608000  0.05139000  0.69881000  1.0 -0.5705283376
O  O77  1  0.57185000  0.99676000  0.65408000  1.0 -0.5895040649
O  O78  1  0.85685000  0.35022000  0.33921000  1.0 -0.6020971156
O  O79  1  0.80085000  0.35800000  0.29927000  1.0 -0.5705283376
O  O80  1  0.58308000  0.92700000  0.69985000  1.0 -0.6575016874
O  O81  1  0.48531000  0.43392000  0.69881000  1.0 -0.5705283376
O  O82  1  0.42491000  0.42815000  0.65408000  1.0 -0.5895040649
O  O83  1  0.49337000  0.14315000  0.33921000  1.0 -0.6020971156
O  O84  1  0.55715000  0.19915000  0.29927000  1.0 -0.5705283376
O  O85  1  0.34392000  0.41692000  0.69985000  1.0 -0.6575016874
O  O86  1  0.94861000  0.51469000  0.69881000  1.0 -0.5705283376
O  O87  1  0.00324000  0.57509000  0.65408000  1.0 -0.5895040649
O  O88  1  0.64978000  0.50663000  0.33921000  1.0 -0.6020971156
O  O89  1  0.64200000  0.44285000  0.29927000  1.0 -0.5705283376
O  O90  1  0.07300000  0.65608000  0.69985000  1.0 -0.6575016874
O  O91  1  0.48531000  0.05139000  0.80119000  1.0 -0.5705283376
O  O92  1  0.42491000  0.99676000  0.84592000  1.0 -0.5895040649
O  O93  1  0.49337000  0.35022000  0.16079000  1.0 -0.6020971156
O  O94  1  0.55715000  0.35800000  0.20073000  1.0 -0.5705283376
O  O95  1  0.34392000  0.92700000  0.80015000  1.0 -0.6575016874
O  O96  1  0.94861000  0.43392000  0.80119000  1.0 -0.5705283376
O  O97  1  0.00324000  0.42815000  0.84592000  1.0 -0.5895040649
O  O98  1  0.64978000  0.14315000  0.16079000  1.0 -0.6020971156
O  O99  1  0.64200000  0.19915000  0.20073000  1.0 -0.5705283376
O  O100  1  0.07300000  0.41692000  0.80015000  1.0 -0.6575016874
O  O101  1  0.56608000  0.51469000  0.80119000  1.0 -0.5705283376
O  O102  1  0.57185000  0.57509000  0.84592000  1.0 -0.5895040649
O  O103  1  0.85685000  0.50663000  0.16079000  1.0 -0.6020971156
O  O104  1  0.80085000  0.44285000  0.20073000  1.0 -0.5705283376
O  O105  1  0.58308000  0.65608000  0.80015000  1.0 -0.6575016874
O  O106  1  0.51469000  0.94861000  0.30119000  1.0 -0.5705283376
O  O107  1  0.57509000  0.00324000  0.34592000  1.0 -0.5895040649
O  O108  1  0.50663000  0.64978000  0.66079000  1.0 -0.6020971156
O  O109  1  0.44285000  0.64200000  0.70073000  1.0 -0.5705283376
O  O110  1  0.65608000  0.07300000  0.30015000  1.0 -0.6545113641
O  O111  1  0.05139000  0.56608000  0.30119000  1.0 -0.5705283376
O  O112  1  0.99676000  0.57185000  0.34592000  1.0 -0.5895040649
O  O113  1  0.35022000  0.85685000  0.66079000  1.0 -0.6020971156
O  O114  1  0.35800000  0.80085000  0.70073000  1.0 -0.5705283376
O  O115  1  0.92700000  0.58308000  0.30015000  1.0 -0.6575016874
O  O116  1  0.43392000  0.48531000  0.30119000  1.0 -0.5705283376
O  O117  1  0.42815000  0.42491000  0.34592000  1.0 -0.5895040649
O  O118  1  0.14315000  0.49337000  0.66079000  1.0 -0.6020971156
O  O119  1  0.19915000  0.55715000  0.70073000  1.0 -0.5705283376
O  O120  1  0.41692000  0.34392000  0.30015000  1.0 -0.6545113641
O  O121  1  0.43975000  0.87950000  0.82661000  1.0 -1.1094653109
O  O122  1  0.48176000  0.96352000  0.80734000  1.0 -1.1094653109
O  O123  1  0.43975000  0.56025000  0.82661000  1.0 -1.1094653109
O  O124  1  0.48176000  0.51824000  0.80734000  1.0 -1.1094653109
O  O125  1  0.12050000  0.56025000  0.82661000  1.0 -1.1094653109
O  O126  1  0.03648000  0.51824000  0.80734000  1.0 -1.1182492591
O  O127  1  0.56025000  0.12050000  0.32661000  1.0 -1.1028221565
O  O128  1  0.51824000  0.03648000  0.30734000  1.0 -1.1094653109
O  O129  1  0.56025000  0.43975000  0.32661000  1.0 -1.1028221565
O  O130  1  0.51824000  0.48176000  0.30734000  1.0 -1.1094653109
O  O131  1  0.87950000  0.43975000  0.32661000  1.0 -1.1094653109
O  O132  1  0.96352000  0.48176000  0.30734000  1.0 -1.1094653109
O  O133  1  0.56025000  0.12050000  0.17339000  1.0 -1.1028221565
O  O134  1  0.51824000  0.03648000  0.19266000  1.0 -1.1094653109
O  O135  1  0.87950000  0.43975000  0.17339000  1.0 -1.1094653109
O  O136  1  0.96352000  0.48176000  0.19266000  1.0 -1.1094653109
O  O137  1  0.56025000  0.43975000  0.17339000  1.0 -1.1028221565
O  O138  1  0.51824000  0.48176000  0.19266000  1.0 -1.1094653109
O  O139  1  0.43975000  0.87950000  0.67339000  1.0 -1.1094653109
O  O140  1  0.48176000  0.96352000  0.69266000  1.0 -1.1094653109
O  O141  1  0.12050000  0.56025000  0.67339000  1.0 -1.1094653109
O  O142  1  0.03648000  0.51824000  0.69266000  1.0 -1.1182492591
O  O143  1  0.43975000  0.56025000  0.67339000  1.0 -1.1094653109
O  O144  1  0.48176000  0.51824000  0.69266000  1.0 -1.1094653109
O  O145  1  0.49020000  0.88963000  0.75000000  1.0 -1.1280437666
O  O146  1  0.54728000  0.97386000  0.75000000  1.0 -1.1094653109
O  O147  1  0.39943000  0.50980000  0.75000000  1.0 -1.1280437666
O  O148  1  0.42658000  0.45272000  0.75000000  1.0 -1.1182492591
O  O149  1  0.11037000  0.60057000  0.75000000  1.0 -1.1280437666
O  O150  1  0.02614000  0.57342000  0.75000000  1.0 -1.1094653109
O  O151  1  0.50980000  0.11037000  0.25000000  1.0 -1.1280437666
O  O152  1  0.45272000  0.02614000  0.25000000  1.0 -1.1182492591
O  O153  1  0.60057000  0.49020000  0.25000000  1.0 -1.1280437666
O  O154  1  0.57342000  0.54728000  0.25000000  1.0 -1.1182492591
O  O155  1  0.88963000  0.39943000  0.25000000  1.0 -1.1280437666
O  O156  1  0.97386000  0.42658000  0.25000000  1.0 -1.1182492591
O  O157  1  0.60057000  0.11037000  0.25000000  1.0 -1.1280437666
O  O158  1  0.57342000  0.02614000  0.25000000  1.0 -1.1182492591
O  O159  1  0.88963000  0.49020000  0.25000000  1.0 -1.1182492591
O  O160  1  0.97386000  0.54728000  0.25000000  1.0 -1.1182492591
O  O161  1  0.50980000  0.39943000  0.25000000  1.0 -1.1280437666
O  O162  1  0.45272000  0.42658000  0.25000000  1.0 -1.1182492591
O  O163  1  0.39943000  0.88963000  0.75000000  1.0 -1.1280437666
O  O164  1  0.42658000  0.97386000  0.75000000  1.0 -1.1094653109
O  O165  1  0.11037000  0.50980000  0.75000000  1.0 -1.1280437666
O  O166  1  0.02614000  0.45272000  0.75000000  1.0 -1.1094653109
O  O167  1  0.49020000  0.60057000  0.75000000  1.0 -1.1182492591
O  O168  1  0.54728000  0.57342000  0.75000000  1.0 -1.1182492591
