# DDEC6 charges by PACMAN v1.1 (https://github.com/mtap-research/PACMAN-charge/)
data_JORBAV_ASR_pacman
_symmetry_space_group_name_H-M   'P 1'
_cell_length_a   13.85920000
_cell_length_b   13.85920000
_cell_length_c   13.13000000
_cell_angle_alpha   67.68820000
_cell_angle_beta   112.31200000
_cell_angle_gamma   76.32470000
_symmetry_Int_Tables_number   1
_chemical_formula_structural   Mn2W(CN)8
_chemical_formula_sum   'Mn8 W4 C32 N32'
_cell_volume   1933.36881142
_cell_formula_units_Z   4
loop_
 _symmetry_equiv_pos_site_id
 _symmetry_equiv_pos_as_xyz
  1  'x, y, z'
loop_
 _atom_site_type_symbol
 _atom_site_label
 _atom_site_symmetry_multiplicity
 _atom_site_fract_x
 _atom_site_fract_y
 _atom_site_fract_z
 _atom_site_occupancy
 _atom_site_charge
Mn  Mn1  1  0.19526000  0.45020000  0.42816000  1.0 0.9362060992
Mn  Mn2  1  0.45020000  0.19526000  0.07184000  1.0 0.9362060992
Mn  Mn3  1  0.80474000  0.54980000  0.57184000  1.0 0.9362060992
Mn  Mn4  1  0.54980000  0.80474000  0.92816000  1.0 0.9362060992
Mn  Mn5  1  0.85927000  0.27027000  0.24435000  1.0 0.9156348226
Mn  Mn6  1  0.27027000  0.85927000  0.25565000  1.0 0.9101029155
Mn  Mn7  1  0.14073000  0.72973000  0.75565000  1.0 0.9101029155
Mn  Mn8  1  0.72973000  0.14073000  0.74435000  1.0 0.9101029155
W  W1  1  0.52104000  0.52104000  0.75000000  1.0 0.5218606709
W  W2  1  0.47896000  0.47896000  0.25000000  1.0 0.5218606709
W  W3  1  0.87093000  0.87093000  0.25000000  1.0 0.3761250196
W  W4  1  0.12907000  0.12907000  0.75000000  1.0 0.391835284
C  C1  1  0.82274000  0.75868000  0.36886000  1.0 0.1056738576
C  C2  1  0.75868000  0.82274000  0.13114000  1.0 0.1056738576
C  C3  1  0.17726000  0.24132000  0.63114000  1.0 0.1026197715
C  C4  1  0.24132000  0.17726000  0.86886000  1.0 0.1026197715
C  C5  1  0.87052000  0.02892000  0.24394000  1.0 0.0867832941
C  C6  1  0.02892000  0.87052000  0.25606000  1.0 0.0867832941
C  C7  1  0.12948000  0.97108000  0.75606000  1.0 0.0867832941
C  C8  1  0.97108000  0.12948000  0.74394000  1.0 0.0794081015
C  C9  1  0.98711000  0.69933000  0.31358000  1.0 0.0666647522
C  C10  1  0.69933000  0.98711000  0.18642000  1.0 0.0666647522
C  C11  1  0.01289000  0.30067000  0.68642000  1.0 0.0666647522
C  C12  1  0.30067000  0.01289000  0.81358000  1.0 0.0578268697
C  C13  1  0.02336000  0.17564000  0.55352000  1.0 0.0578268697
C  C14  1  0.17564000  0.02336000  0.94648000  1.0 0.0578268697
C  C15  1  0.97664000  0.82436000  0.44648000  1.0 0.0578268697
C  C16  1  0.82436000  0.97664000  0.05352000  1.0 0.0578268697
C  C17  1  0.39038000  0.49634000  0.62102000  1.0 0.0503040632
C  C18  1  0.49634000  0.39038000  0.87898000  1.0 0.0503040632
C  C19  1  0.60962000  0.50366000  0.37898000  1.0 0.0503040632
C  C20  1  0.50366000  0.60962000  0.12102000  1.0 0.0503040632
C  C21  1  0.64047000  0.55229000  0.69030000  1.0 0.0794081015
C  C22  1  0.55229000  0.64047000  0.80970000  1.0 0.0794081015
C  C23  1  0.35953000  0.44771000  0.30970000  1.0 0.0794081015
C  C24  1  0.44771000  0.35953000  0.19030000  1.0 0.0794081015
C  C25  1  0.68023000  0.42643000  0.93570000  1.0 0.0578268697
C  C26  1  0.42643000  0.68023000  0.56430000  1.0 0.0578268697
C  C27  1  0.31977000  0.57357000  0.06430000  1.0 0.0578268697
C  C28  1  0.57357000  0.31977000  0.43570000  1.0 0.0578268697
C  C29  1  0.62795000  0.38747000  0.25037000  1.0 0.0503040632
C  C30  1  0.38747000  0.62795000  0.24963000  1.0 0.0503040632
C  C31  1  0.37205000  0.61253000  0.74963000  1.0 0.0503040632
C  C32  1  0.61253000  0.37205000  0.75037000  1.0 0.0503040632
N  N1  1  0.80173000  0.69599000  0.43245000  1.0 -0.3816315265
N  N2  1  0.69599000  0.80173000  0.06755000  1.0 -0.3816315265
N  N3  1  0.19827000  0.30401000  0.56755000  1.0 -0.3816315265
N  N4  1  0.30401000  0.19827000  0.93245000  1.0 -0.3816315265
N  N5  1  0.87064000  0.11154000  0.24447000  1.0 -0.3515381298
N  N6  1  0.11154000  0.87064000  0.25553000  1.0 -0.3515381298
N  N7  1  0.12936000  0.88846000  0.75553000  1.0 -0.3515381298
N  N8  1  0.88846000  0.12936000  0.74447000  1.0 -0.3515381298
N  N9  1  0.05328000  0.60854000  0.35074000  1.0 -0.3720717499
N  N10  1  0.60854000  0.05328000  0.14926000  1.0 -0.3720717499
N  N11  1  0.94672000  0.39146000  0.64926000  1.0 -0.3720717499
N  N12  1  0.39146000  0.94672000  0.85074000  1.0 -0.3720717499
N  N13  1  0.96762000  0.20100000  0.44923000  1.0 -0.3515381298
N  N14  1  0.20100000  0.96762000  0.05077000  1.0 -0.3559304657
N  N15  1  0.03238000  0.79900000  0.55077000  1.0 -0.3559304657
N  N16  1  0.79900000  0.03238000  0.94923000  1.0 -0.3515381298
N  N17  1  0.32129000  0.47895000  0.55736000  1.0 -0.3395921694
N  N18  1  0.47895000  0.32129000  0.94264000  1.0 -0.3395921694
N  N19  1  0.67871000  0.52105000  0.44264000  1.0 -0.3395921694
N  N20  1  0.52105000  0.67871000  0.05736000  1.0 -0.3395921694
N  N21  1  0.70362000  0.56640000  0.65605000  1.0 -0.3720717499
N  N22  1  0.56640000  0.70362000  0.84395000  1.0 -0.3720717499
N  N23  1  0.29638000  0.43360000  0.34395000  1.0 -0.3720717499
N  N24  1  0.43360000  0.29638000  0.15605000  1.0 -0.3720717499
N  N25  1  0.76371000  0.37593000  0.03418000  1.0 -0.3395921694
N  N26  1  0.37593000  0.76371000  0.46582000  1.0 -0.3395921694
N  N27  1  0.23629000  0.62407000  0.96582000  1.0 -0.3395921694
N  N28  1  0.62407000  0.23629000  0.53418000  1.0 -0.3395921694
N  N29  1  0.70641000  0.33641000  0.25012000  1.0 -0.3395921694
N  N30  1  0.33641000  0.70641000  0.24988000  1.0 -0.3395921694
N  N31  1  0.29359000  0.66359000  0.74988000  1.0 -0.3395921694
N  N32  1  0.66359000  0.29359000  0.75012000  1.0 -0.3395921694
