# DDEC6 charges by PACMAN v1.1 (https://github.com/mtap-research/PACMAN-charge/)
data_JORRAL_FSR_pacman
_symmetry_space_group_name_H-M   'P 1'
_cell_length_a   10.47590000
_cell_length_b   33.01700000
_cell_length_c   28.54800000
_cell_angle_alpha   90.00000000
_cell_angle_beta   97.28800000
_cell_angle_gamma   90.00000000
_symmetry_Int_Tables_number   1
_chemical_formula_structural   Cd2H77C83N11O14
_chemical_formula_sum   'Cd8 H308 C332 N44 O56'
_cell_volume   9794.48806329
_cell_formula_units_Z   4
loop_
 _symmetry_equiv_pos_site_id
 _symmetry_equiv_pos_as_xyz
  1  'x, y, z'
loop_
 _atom_site_type_symbol
 _atom_site_label
 _atom_site_symmetry_multiplicity
 _atom_site_fract_x
 _atom_site_fract_y
 _atom_site_fract_z
 _atom_site_occupancy
 _atom_site_charge
Cd  Cd1  1  0.90536000  0.58718000  0.80324000  1.0 0.8350825904
Cd  Cd2  1  0.09464000  0.08718000  0.69676000  1.0 0.8350825904
Cd  Cd3  1  0.09464000  0.41282000  0.19676000  1.0 0.8298380612
Cd  Cd4  1  0.90536000  0.91282000  0.30324000  1.0 0.8350825904
Cd  Cd5  1  0.08271000  0.65511000  0.32510000  1.0 0.8298380612
Cd  Cd6  1  0.91729000  0.15511000  0.17490000  1.0 0.8298380612
Cd  Cd7  1  0.91729000  0.34489000  0.67490000  1.0 0.8298380612
Cd  Cd8  1  0.08271000  0.84489000  0.82510000  1.0 0.8298380612
H  H1  1  0.79410000  0.60170000  0.64640000  1.0 0.3333631529
H  H2  1  0.20590000  0.10170000  0.85360000  1.0 0.3333631529
H  H3  1  0.20590000  0.39830000  0.35360000  1.0 0.3333631529
H  H4  1  0.79410000  0.89830000  0.14640000  1.0 0.3333631529
H  H5  1  0.26200000  0.60760000  0.46060000  1.0 0.3386613129
H  H6  1  0.73800000  0.10760000  0.03940000  1.0 0.3386613129
H  H7  1  0.73800000  0.39240000  0.53940000  1.0 0.3386613129
H  H8  1  0.26200000  0.89240000  0.96060000  1.0 0.3386613129
H  H9  1  0.82980000  0.64220000  0.93720000  1.0 0.3333631529
H  H10  1  0.17020000  0.14220000  0.56280000  1.0 0.3333631529
H  H11  1  0.17020000  0.35780000  0.06280000  1.0 0.3333631529
H  H12  1  0.82980000  0.85780000  0.43720000  1.0 0.3333631529
H  H13  1  0.90690000  0.63980000  0.19120000  1.0 0.3386613129
H  H14  1  0.09310000  0.13980000  0.30880000  1.0 0.3386613129
H  H15  1  0.09310000  0.36020000  0.80880000  1.0 0.3386613129
H  H16  1  0.90690000  0.86020000  0.69120000  1.0 0.3386613129
H  H17  1  0.51510000  0.64320000  0.73450000  1.0 0.1196995843
H  H18  1  0.48490000  0.14320000  0.76550000  1.0 0.1196995843
H  H19  1  0.48490000  0.35680000  0.26550000  1.0 0.1196995843
H  H20  1  0.51510000  0.85680000  0.23450000  1.0 0.1196995843
H  H21  1  0.28630000  0.66240000  0.71980000  1.0 0.1112124678
H  H22  1  0.71370000  0.16240000  0.78020000  1.0 0.1112124678
H  H23  1  0.71370000  0.33760000  0.28020000  1.0 0.1112124678
H  H24  1  0.28630000  0.83760000  0.21980000  1.0 0.1112124678
H  H25  1  0.09370000  0.65900000  0.66940000  1.0 0.1112124678
H  H26  1  0.90630000  0.15900000  0.83060000  1.0 0.1112124678
H  H27  1  0.90630000  0.34100000  0.33060000  1.0 0.1112124678
H  H28  1  0.09370000  0.84100000  0.16940000  1.0 0.1112124678
H  H29  1  0.10000000  0.64910000  0.58990000  1.0 0.1112124678
H  H30  1  0.90000000  0.14910000  0.91010000  1.0 0.1112124678
H  H31  1  0.90000000  0.35090000  0.41010000  1.0 0.1112124678
H  H32  1  0.10000000  0.85090000  0.08990000  1.0 0.1112124678
H  H33  1  0.28300000  0.62970000  0.56190000  1.0 0.1112124678
H  H34  1  0.71700000  0.12970000  0.93810000  1.0 0.1112124678
H  H35  1  0.71700000  0.37030000  0.43810000  1.0 0.1112124678
H  H36  1  0.28300000  0.87030000  0.06190000  1.0 0.1112124678
H  H37  1  0.61140000  0.59770000  0.55360000  1.0 0.1112124678
H  H38  1  0.38860000  0.09770000  0.94640000  1.0 0.1112124678
H  H39  1  0.38860000  0.40230000  0.44640000  1.0 0.1112124678
H  H40  1  0.61140000  0.90230000  0.05360000  1.0 0.1112124678
H  H41  1  0.46470000  0.58720000  0.54760000  1.0 0.1112124678
H  H42  1  0.53530000  0.08720000  0.95240000  1.0 0.1112124678
H  H43  1  0.53530000  0.41280000  0.45240000  1.0 0.1112124678
H  H44  1  0.46470000  0.91280000  0.04760000  1.0 0.1112124678
H  H45  1  0.43650000  0.71920000  0.42110000  1.0 0.1196995843
H  H46  1  0.56350000  0.21920000  0.07890000  1.0 0.1196995843
H  H47  1  0.56350000  0.28080000  0.57890000  1.0 0.1196995843
H  H48  1  0.43650000  0.78080000  0.92110000  1.0 0.1196995843
H  H49  1  0.63270000  0.75660000  0.45210000  1.0 0.1196995843
H  H50  1  0.36730000  0.25660000  0.04790000  1.0 0.1196995843
H  H51  1  0.36730000  0.24340000  0.54790000  1.0 0.1196995843
H  H52  1  0.63270000  0.74340000  0.95210000  1.0 0.1196995843
H  H53  1  0.81190000  0.76320000  0.50540000  1.0 0.1196995843
H  H54  1  0.18810000  0.26320000  0.99460000  1.0 0.1196995843
H  H55  1  0.18810000  0.23680000  0.49460000  1.0 0.1196995843
H  H56  1  0.81190000  0.73680000  0.00540000  1.0 0.1196995843
H  H57  1  0.85610000  0.71610000  0.56380000  1.0 0.1196995843
H  H58  1  0.14390000  0.21610000  0.93620000  1.0 0.1196995843
H  H59  1  0.14390000  0.28390000  0.43620000  1.0 0.1196995843
H  H60  1  0.85610000  0.78390000  0.06380000  1.0 0.1196995843
H  H61  1  0.72310000  0.66190000  0.57190000  1.0 0.1112124678
H  H62  1  0.27690000  0.16190000  0.92810000  1.0 0.1112124678
H  H63  1  0.27690000  0.33810000  0.42810000  1.0 0.1112124678
H  H64  1  0.72310000  0.83810000  0.07190000  1.0 0.1112124678
H  H65  1  0.08670000  0.53820000  0.95370000  1.0 0.1196995843
H  H66  1  0.91330000  0.03820000  0.54630000  1.0 0.1196995843
H  H67  1  0.91330000  0.46180000  0.04630000  1.0 0.1196995843
H  H68  1  0.08670000  0.96180000  0.45370000  1.0 0.1196995843
H  H69  1  0.20130000  0.50070000  0.02160000  1.0 0.1112124678
H  H70  1  0.79870000  0.00070000  0.47840000  1.0 0.1112124678
H  H71  1  0.79870000  0.49930000  0.97840000  1.0 0.1112124678
H  H72  1  0.20130000  0.99930000  0.52160000  1.0 0.1112124678
H  H73  1  0.24410000  0.49440000  0.10410000  1.0 0.1112124678
H  H74  1  0.75590000  0.99440000  0.39590000  1.0 0.1112124678
H  H75  1  0.75590000  0.50560000  0.89590000  1.0 0.1112124678
H  H76  1  0.24410000  0.00560000  0.60410000  1.0 0.1112124678
H  H77  1  0.15160000  0.53750000  0.15280000  1.0 0.1020347411
H  H78  1  0.84840000  0.03750000  0.34720000  1.0 0.1020347411
H  H79  1  0.84840000  0.46250000  0.84720000  1.0 0.1020347411
H  H80  1  0.15160000  0.96250000  0.65280000  1.0 0.1112124678
H  H81  1  0.02090000  0.58840000  0.12470000  1.0 0.1112124678
H  H82  1  0.97910000  0.08840000  0.37530000  1.0 0.1112124678
H  H83  1  0.97910000  0.41160000  0.87530000  1.0 0.1112124678
H  H84  1  0.02090000  0.91160000  0.62470000  1.0 0.1112124678
H  H85  1  0.83060000  0.65920000  0.04470000  1.0 0.1112124678
H  H86  1  0.16940000  0.15920000  0.45530000  1.0 0.1112124678
H  H87  1  0.16940000  0.34080000  0.95530000  1.0 0.1112124678
H  H88  1  0.83060000  0.84080000  0.54470000  1.0 0.1112124678
H  H89  1  0.83500000  0.62650000  0.08440000  1.0 0.1112124678
H  H90  1  0.16500000  0.12650000  0.41560000  1.0 0.1112124678
H  H91  1  0.16500000  0.37350000  0.91560000  1.0 0.1112124678
H  H92  1  0.83500000  0.87350000  0.58440000  1.0 0.1112124678
H  H93  1  0.20130000  0.72970000  0.18250000  1.0 0.1196995843
H  H94  1  0.79870000  0.22970000  0.31750000  1.0 0.1196995843
H  H95  1  0.79870000  0.27030000  0.81750000  1.0 0.1196995843
H  H96  1  0.20130000  0.77030000  0.68250000  1.0 0.1196995843
H  H97  1  0.01490000  0.68720000  0.00910000  1.0 0.1020347411
H  H98  1  0.98510000  0.18720000  0.49090000  1.0 0.1020347411
H  H99  1  0.98510000  0.31280000  0.99090000  1.0 0.1020347411
H  H100  1  0.01490000  0.81280000  0.50910000  1.0 0.1020347411
H  H101  1  0.15060000  0.73350000  0.98290000  1.0 0.1112124678
H  H102  1  0.84940000  0.23350000  0.51710000  1.0 0.1112124678
H  H103  1  0.84940000  0.26650000  0.01710000  1.0 0.1112124678
H  H104  1  0.15060000  0.76650000  0.48290000  1.0 0.1112124678
H  H105  1  0.28380000  0.77170000  0.03500000  1.0 0.1196995843
H  H106  1  0.71620000  0.27170000  0.46500000  1.0 0.1112124678
H  H107  1  0.71620000  0.22830000  0.96500000  1.0 0.1112124678
H  H108  1  0.28380000  0.72830000  0.53500000  1.0 0.1112124678
H  H109  1  0.28270000  0.76230000  0.11570000  1.0 0.1196995843
H  H110  1  0.71730000  0.26230000  0.38430000  1.0 0.1196995843
H  H111  1  0.71730000  0.23770000  0.88430000  1.0 0.1196995843
H  H112  1  0.28270000  0.73770000  0.61570000  1.0 0.1196995843
H  H113  1  0.99330000  0.54470000  0.70520000  1.0 0.1196995843
H  H114  1  0.00670000  0.04470000  0.79480000  1.0 0.1196995843
H  H115  1  0.00670000  0.45530000  0.29480000  1.0 0.1196995843
H  H116  1  0.99330000  0.95530000  0.20520000  1.0 0.1196995843
H  H117  1  0.17430000  0.45730000  0.77600000  1.0 0.1312175316
H  H118  1  0.82570000  0.95730000  0.72400000  1.0 0.1312175316
H  H119  1  0.82570000  0.54270000  0.22400000  1.0 0.1312175316
H  H120  1  0.17430000  0.04270000  0.27600000  1.0 0.1312175316
H  H121  1  0.08070000  0.50120000  0.83090000  1.0 0.1312175316
H  H122  1  0.91930000  0.00120000  0.66910000  1.0 0.1312175316
H  H123  1  0.91930000  0.49880000  0.16910000  1.0 0.1312175316
H  H124  1  0.08070000  0.99880000  0.33090000  1.0 0.1312175316
H  H125  1  0.10980000  0.45070000  0.68050000  1.0 0.1112124678
H  H126  1  0.89020000  0.95070000  0.81950000  1.0 0.1112124678
H  H127  1  0.89020000  0.54930000  0.31950000  1.0 0.1112124678
H  H128  1  0.10980000  0.04930000  0.18050000  1.0 0.1112124678
H  H129  1  0.08110000  0.49250000  0.65530000  1.0 0.1196995843
H  H130  1  0.91890000  0.99250000  0.84470000  1.0 0.1196995843
H  H131  1  0.91890000  0.50750000  0.34470000  1.0 0.1196995843
H  H132  1  0.08110000  0.00750000  0.15530000  1.0 0.1196995843
H  H133  1  0.27090000  0.54210000  0.66950000  1.0 0.1196995843
H  H134  1  0.72910000  0.04210000  0.83050000  1.0 0.1196995843
H  H135  1  0.72910000  0.45790000  0.33050000  1.0 0.1196995843
H  H136  1  0.27090000  0.95790000  0.16950000  1.0 0.1196995843
H  H137  1  0.48740000  0.55220000  0.67030000  1.0 0.1196995843
H  H138  1  0.51260000  0.05220000  0.82970000  1.0 0.1196995843
H  H139  1  0.51260000  0.44780000  0.32970000  1.0 0.1196995843
H  H140  1  0.48740000  0.94780000  0.17030000  1.0 0.1196995843
H  H141  1  0.53100000  0.43570000  0.68200000  1.0 0.1196995843
H  H142  1  0.46900000  0.93570000  0.81800000  1.0 0.1196995843
H  H143  1  0.46900000  0.56430000  0.31800000  1.0 0.1196995843
H  H144  1  0.53100000  0.06430000  0.18200000  1.0 0.1196995843
H  H145  1  0.32010000  0.42800000  0.68910000  1.0 0.1020347411
H  H146  1  0.67990000  0.92800000  0.81090000  1.0 0.1020347411
H  H147  1  0.67990000  0.57200000  0.31090000  1.0 0.1020347411
H  H148  1  0.32010000  0.07200000  0.18910000  1.0 0.1020347411
H  H149  1  0.70560000  0.52510000  0.68780000  1.0 0.1312175316
H  H150  1  0.29440000  0.02510000  0.81220000  1.0 0.1312175316
H  H151  1  0.29440000  0.47490000  0.31220000  1.0 0.1312175316
H  H152  1  0.70560000  0.97490000  0.18780000  1.0 0.1312175316
H  H153  1  0.68990000  0.50430000  0.63800000  1.0 0.1312175316
H  H154  1  0.31010000  0.00430000  0.86200000  1.0 0.1312175316
H  H155  1  0.31010000  0.49570000  0.36200000  1.0 0.1312175316
H  H156  1  0.68990000  0.99570000  0.13800000  1.0 0.1312175316
H  H157  1  0.77180000  0.43050000  0.63360000  1.0 0.1112124678
H  H158  1  0.22820000  0.93050000  0.86640000  1.0 0.1112124678
H  H159  1  0.22820000  0.56950000  0.36640000  1.0 0.1112124678
H  H160  1  0.77180000  0.06950000  0.13360000  1.0 0.1112124678
H  H161  1  0.88200000  0.41070000  0.76740000  1.0 0.1312175316
H  H162  1  0.11800000  0.91070000  0.73260000  1.0 0.1312175316
H  H163  1  0.11800000  0.58930000  0.23260000  1.0 0.1312175316
H  H164  1  0.88200000  0.08930000  0.26740000  1.0 0.1312175316
H  H165  1  0.77800000  0.47570000  0.76240000  1.0 0.1312175316
H  H166  1  0.22200000  0.97570000  0.73760000  1.0 0.1312175316
H  H167  1  0.22200000  0.52430000  0.23760000  1.0 0.1312175316
H  H168  1  0.77800000  0.02430000  0.26240000  1.0 0.1312175316
H  H169  1  0.88930000  0.73080000  0.28730000  1.0 0.1112124678
H  H170  1  0.11070000  0.23080000  0.21270000  1.0 0.1112124678
H  H171  1  0.11070000  0.26920000  0.71270000  1.0 0.1112124678
H  H172  1  0.88930000  0.76920000  0.78730000  1.0 0.1112124678
H  H173  1  0.01960000  0.71440000  0.42060000  1.0 0.1196995843
H  H174  1  0.98040000  0.21440000  0.07940000  1.0 0.1196995843
H  H175  1  0.98040000  0.28560000  0.57940000  1.0 0.1196995843
H  H176  1  0.01960000  0.78560000  0.92060000  1.0 0.1196995843
H  H177  1  0.89070000  0.77620000  0.41500000  1.0 0.1312175316
H  H178  1  0.10930000  0.27620000  0.08500000  1.0 0.1312175316
H  H179  1  0.10930000  0.22380000  0.58500000  1.0 0.1312175316
H  H180  1  0.89070000  0.72380000  0.91500000  1.0 0.1312175316
H  H181  1  0.81130000  0.82350000  0.33450000  1.0 0.1312175316
H  H182  1  0.18870000  0.32350000  0.16550000  1.0 0.1196995843
H  H183  1  0.18870000  0.17650000  0.66550000  1.0 0.1196995843
H  H184  1  0.81130000  0.67650000  0.83450000  1.0 0.1196995843
H  H185  1  0.78030000  0.79800000  0.28800000  1.0 0.1196995843
H  H186  1  0.21970000  0.29800000  0.21200000  1.0 0.1196995843
H  H187  1  0.21970000  0.20200000  0.71200000  1.0 0.1196995843
H  H188  1  0.78030000  0.70200000  0.78800000  1.0 0.1196995843
H  H189  1  0.63560000  0.84210000  0.37150000  1.0 0.1312175316
H  H190  1  0.36440000  0.34210000  0.12850000  1.0 0.1312175316
H  H191  1  0.36440000  0.15790000  0.62850000  1.0 0.1312175316
H  H192  1  0.63560000  0.65790000  0.87150000  1.0 0.1312175316
H  H193  1  0.43020000  0.83620000  0.38670000  1.0 0.1196995843
H  H194  1  0.56980000  0.33620000  0.11330000  1.0 0.1196995843
H  H195  1  0.56980000  0.16380000  0.61330000  1.0 0.1196995843
H  H196  1  0.43020000  0.66380000  0.88670000  1.0 0.1196995843
H  H197  1  0.38770000  0.73790000  0.30690000  1.0 0.1393964282
H  H198  1  0.61230000  0.23790000  0.19310000  1.0 0.1393964282
H  H199  1  0.61230000  0.26210000  0.69310000  1.0 0.1393964282
H  H200  1  0.38770000  0.76210000  0.80690000  1.0 0.1393964282
H  H201  1  0.59710000  0.74400000  0.29170000  1.0 0.1196995843
H  H202  1  0.40290000  0.24400000  0.20830000  1.0 0.1196995843
H  H203  1  0.40290000  0.25600000  0.70830000  1.0 0.1196995843
H  H204  1  0.59710000  0.75600000  0.79170000  1.0 0.1196995843
H  H205  1  0.24330000  0.78900000  0.39100000  1.0 0.1196995843
H  H206  1  0.75670000  0.28900000  0.10900000  1.0 0.1196995843
H  H207  1  0.75670000  0.21100000  0.60900000  1.0 0.1196995843
H  H208  1  0.24330000  0.71100000  0.89100000  1.0 0.1196995843
H  H209  1  0.22290000  0.75380000  0.35390000  1.0 0.1393964282
H  H210  1  0.77710000  0.25380000  0.14610000  1.0 0.1393964282
H  H211  1  0.77710000  0.24620000  0.64610000  1.0 0.1393964282
H  H212  1  0.22290000  0.74620000  0.85390000  1.0 0.1393964282
H  H213  1  0.13370000  0.85590000  0.36710000  1.0 0.1112124678
H  H214  1  0.86630000  0.35590000  0.13290000  1.0 0.1112124678
H  H215  1  0.86630000  0.14410000  0.63290000  1.0 0.1112124678
H  H216  1  0.13370000  0.64410000  0.86710000  1.0 0.1112124678
H  H217  1  0.98850000  0.83210000  0.23850000  1.0 0.1196995843
H  H218  1  0.01150000  0.33210000  0.26150000  1.0 0.1196995843
H  H219  1  0.01150000  0.16790000  0.76150000  1.0 0.1196995843
H  H220  1  0.98850000  0.66790000  0.73850000  1.0 0.1196995843
H  H221  1  0.12560000  0.77600000  0.26480000  1.0 0.1393964282
H  H222  1  0.87440000  0.27600000  0.23520000  1.0 0.1312175316
H  H223  1  0.87440000  0.22400000  0.73520000  1.0 0.1312175316
H  H224  1  0.12560000  0.72400000  0.76480000  1.0 0.1393964282
H  H225  1  0.63130000  0.58830000  0.81980000  1.0 0.1020347411
H  H226  1  0.36870000  0.08830000  0.68020000  1.0 0.1020347411
H  H227  1  0.36870000  0.41170000  0.18020000  1.0 0.1020347411
H  H228  1  0.63130000  0.91170000  0.31980000  1.0 0.1020347411
H  H229  1  0.58290000  0.48540000  0.81490000  1.0 0.1312175316
H  H230  1  0.41710000  0.98540000  0.68510000  1.0 0.1312175316
H  H231  1  0.41710000  0.51460000  0.18510000  1.0 0.1312175316
H  H232  1  0.58290000  0.01460000  0.31490000  1.0 0.1312175316
H  H233  1  0.44430000  0.48770000  0.83000000  1.0 0.1312175316
H  H234  1  0.55570000  0.98770000  0.67000000  1.0 0.1312175316
H  H235  1  0.55570000  0.51230000  0.17000000  1.0 0.1312175316
H  H236  1  0.44430000  0.01230000  0.33000000  1.0 0.1312175316
H  H237  1  0.46350000  0.49200000  0.77670000  1.0 0.1196995843
H  H238  1  0.53650000  0.99200000  0.72330000  1.0 0.1196995843
H  H239  1  0.53650000  0.50800000  0.22330000  1.0 0.1196995843
H  H240  1  0.46350000  0.00800000  0.27670000  1.0 0.1196995843
H  H241  1  0.41120000  0.59310000  0.81820000  1.0 0.1312175316
H  H242  1  0.58880000  0.09310000  0.68180000  1.0 0.1312175316
H  H243  1  0.58880000  0.40690000  0.18180000  1.0 0.1312175316
H  H244  1  0.41120000  0.90690000  0.31820000  1.0 0.1312175316
H  H245  1  0.32890000  0.55690000  0.79520000  1.0 0.1312175316
H  H246  1  0.67110000  0.05690000  0.70480000  1.0 0.1312175316
H  H247  1  0.67110000  0.44310000  0.20480000  1.0 0.1312175316
H  H248  1  0.32890000  0.94310000  0.29520000  1.0 0.1312175316
H  H249  1  0.36850000  0.55820000  0.85000000  1.0 0.1393964282
H  H250  1  0.63150000  0.05820000  0.65000000  1.0 0.1393964282
H  H251  1  0.63150000  0.44180000  0.15000000  1.0 0.1393964282
H  H252  1  0.36850000  0.94180000  0.35000000  1.0 0.1393964282
H  H253  1  0.97810000  0.59360000  0.40010000  1.0 0.1112124678
H  H254  1  0.02190000  0.09360000  0.09990000  1.0 0.1112124678
H  H255  1  0.02190000  0.40640000  0.59990000  1.0 0.1112124678
H  H256  1  0.97810000  0.90640000  0.90010000  1.0 0.1112124678
H  H257  1  0.66720000  0.60030000  0.37520000  1.0 0.1112124678
H  H258  1  0.33280000  0.10030000  0.12480000  1.0 0.1112124678
H  H259  1  0.33280000  0.39970000  0.62480000  1.0 0.1112124678
H  H260  1  0.66720000  0.89970000  0.87520000  1.0 0.1112124678
H  H261  1  0.63530000  0.62480000  0.41930000  1.0 0.1020347411
H  H262  1  0.36470000  0.12480000  0.08070000  1.0 0.1020347411
H  H263  1  0.36470000  0.37520000  0.58070000  1.0 0.1020347411
H  H264  1  0.63530000  0.87520000  0.91930000  1.0 0.1020347411
H  H265  1  0.66500000  0.64770000  0.37380000  1.0 0.1112124678
H  H266  1  0.33500000  0.14770000  0.12620000  1.0 0.1112124678
H  H267  1  0.33500000  0.35230000  0.62620000  1.0 0.1112124678
H  H268  1  0.66500000  0.85230000  0.87380000  1.0 0.1112124678
H  H269  1  0.93480000  0.62030000  0.47430000  1.0 0.1312175316
H  H270  1  0.06520000  0.12030000  0.02570000  1.0 0.1312175316
H  H271  1  0.06520000  0.37970000  0.52570000  1.0 0.1312175316
H  H272  1  0.93480000  0.87970000  0.97430000  1.0 0.1312175316
H  H273  1  0.85110000  0.65970000  0.47050000  1.0 0.1312175316
H  H274  1  0.14890000  0.15970000  0.02950000  1.0 0.1312175316
H  H275  1  0.14890000  0.34030000  0.52950000  1.0 0.1312175316
H  H276  1  0.85110000  0.84030000  0.97050000  1.0 0.1312175316
H  H277  1  0.78760000  0.61790000  0.47910000  1.0 0.1312175316
H  H278  1  0.21240000  0.11790000  0.02090000  1.0 0.1312175316
H  H279  1  0.21240000  0.38210000  0.52090000  1.0 0.1312175316
H  H280  1  0.78760000  0.88210000  0.97910000  1.0 0.1312175316
H  H281  1  0.78670000  0.63970000  0.29210000  1.0 0.1112124678
H  H282  1  0.21330000  0.13970000  0.20790000  1.0 0.1112124678
H  H283  1  0.21330000  0.36030000  0.70790000  1.0 0.1112124678
H  H284  1  0.78670000  0.86030000  0.79210000  1.0 0.1112124678
H  H285  1  0.69820000  0.63520000  0.41910000  1.0 0.0901914312
H  H286  1  0.30180000  0.13520000  0.08090000  1.0 0.0901914312
H  H287  1  0.30180000  0.36480000  0.58090000  1.0 0.0901914312
H  H288  1  0.69820000  0.86480000  0.91910000  1.0 0.0901914312
H  H289  1  0.81510000  0.66040000  0.40560000  1.0 0.1393964282
H  H290  1  0.18490000  0.16040000  0.09440000  1.0 0.1393964282
H  H291  1  0.18490000  0.33960000  0.59440000  1.0 0.1393964282
H  H292  1  0.81510000  0.83960000  0.90560000  1.0 0.1393964282
H  H293  1  0.67820000  0.68020000  0.40210000  1.0 0.0790661842
H  H294  1  0.32180000  0.18020000  0.09790000  1.0 0.0790661842
H  H295  1  0.32180000  0.31980000  0.59790000  1.0 0.0790661842
H  H296  1  0.67820000  0.81980000  0.90210000  1.0 0.0790661842
H  H297  1  0.56260000  0.65120000  0.29330000  1.0 0.1312175316
H  H298  1  0.43740000  0.15120000  0.20670000  1.0 0.1312175316
H  H299  1  0.43740000  0.34880000  0.70670000  1.0 0.1312175316
H  H300  1  0.56260000  0.84880000  0.79330000  1.0 0.1312175316
H  H301  1  0.50630000  0.63120000  0.33610000  1.0 0.1312175316
H  H302  1  0.49370000  0.13120000  0.16390000  1.0 0.1312175316
H  H303  1  0.49370000  0.36880000  0.66390000  1.0 0.1312175316
H  H304  1  0.50630000  0.86880000  0.83610000  1.0 0.1312175316
H  H305  1  0.54100000  0.67750000  0.33730000  1.0 0.1393964282
H  H306  1  0.45900000  0.17750000  0.16270000  1.0 0.1393964282
H  H307  1  0.45900000  0.32250000  0.66270000  1.0 0.1393964282
H  H308  1  0.54100000  0.82250000  0.83730000  1.0 0.1393964282
C  C1  1  0.07040000  0.68100000  0.23080000  1.0 0.5493111721
C  C2  1  0.92960000  0.18100000  0.26920000  1.0 0.5493111721
C  C3  1  0.92960000  0.31900000  0.76920000  1.0 0.5493111721
C  C4  1  0.07040000  0.81900000  0.73080000  1.0 0.5493111721
C  C5  1  0.06640000  0.68750000  0.17890000  1.0 -0.159931828
C  C6  1  0.93360000  0.18750000  0.32110000  1.0 -0.159931828
C  C7  1  0.93360000  0.31250000  0.82110000  1.0 -0.159931828
C  C8  1  0.06640000  0.81250000  0.67890000  1.0 -0.159931828
C  C9  1  0.97970000  0.66440000  0.14570000  1.0 0.2331606744
C  C10  1  0.02030000  0.16440000  0.35430000  1.0 0.2331606744
C  C11  1  0.02030000  0.33560000  0.85430000  1.0 0.2331606744
C  C12  1  0.97970000  0.83560000  0.64570000  1.0 0.2331606744
C  C13  1  0.98180000  0.66790000  0.09700000  1.0 -0.0412664396
C  C14  1  0.01820000  0.16790000  0.40300000  1.0 -0.0412664396
C  C15  1  0.01820000  0.33210000  0.90300000  1.0 -0.0412664396
C  C16  1  0.98180000  0.83210000  0.59700000  1.0 -0.0412664396
C  C17  1  0.74220000  0.61600000  0.72370000  1.0 0.5493111721
C  C18  1  0.25780000  0.11600000  0.77630000  1.0 0.5493111721
C  C19  1  0.25780000  0.38400000  0.27630000  1.0 0.5493111721
C  C20  1  0.74220000  0.88400000  0.22370000  1.0 0.5493111721
C  C21  1  0.26930000  0.66102000  0.40560000  1.0 0.5493111721
C  C22  1  0.73070000  0.16102000  0.09440000  1.0 0.5493111721
C  C23  1  0.73070000  0.33898000  0.59440000  1.0 0.5493111721
C  C24  1  0.26930000  0.83898000  0.90560000  1.0 0.5493111721
C  C25  1  0.51590000  0.63753000  0.70270000  1.0 -0.159931828
C  C26  1  0.48410000  0.13753000  0.79730000  1.0 -0.151099139
C  C27  1  0.48410000  0.36247000  0.29730000  1.0 -0.159931828
C  C28  1  0.51590000  0.86247000  0.20270000  1.0 -0.159931828
C  C29  1  0.62640000  0.62493000  0.68770000  1.0 -0.151099139
C  C30  1  0.37360000  0.12493000  0.81230000  1.0 -0.151099139
C  C31  1  0.37360000  0.37507000  0.31230000  1.0 -0.151099139
C  C32  1  0.62640000  0.87507000  0.18770000  1.0 -0.151099139
C  C33  1  0.62920000  0.61711000  0.63890000  1.0 0.2103666215
C  C34  1  0.37080000  0.11711000  0.86110000  1.0 0.2103666215
C  C35  1  0.37080000  0.38289000  0.36110000  1.0 0.2103666215
C  C36  1  0.62920000  0.88289000  0.13890000  1.0 0.2103666215
C  C37  1  0.51970000  0.62106000  0.60630000  1.0 -0.0412664396
C  C38  1  0.48030000  0.12106000  0.89370000  1.0 -0.0412664396
C  C39  1  0.48030000  0.37894000  0.39370000  1.0 -0.0412664396
C  C40  1  0.51970000  0.87894000  0.10630000  1.0 -0.0412664396
C  C41  1  0.40530000  0.63410000  0.62290000  1.0 0.0510151554
C  C42  1  0.59470000  0.13410000  0.87710000  1.0 0.0510151554
C  C43  1  0.59470000  0.36590000  0.37710000  1.0 0.0510151554
C  C44  1  0.40530000  0.86590000  0.12290000  1.0 0.0510151554
C  C45  1  0.40440000  0.64220000  0.67200000  1.0 0.0510151554
C  C46  1  0.59560000  0.14220000  0.82800000  1.0 0.0510151554
C  C47  1  0.59560000  0.35780000  0.32800000  1.0 0.0510151554
C  C48  1  0.40440000  0.85780000  0.17200000  1.0 0.0510151554
C  C49  1  0.28620000  0.65440000  0.68850000  1.0 -0.159931828
C  C50  1  0.71380000  0.15440000  0.81150000  1.0 -0.159931828
C  C51  1  0.71380000  0.34560000  0.31150000  1.0 -0.159931828
C  C52  1  0.28620000  0.84560000  0.18850000  1.0 -0.159931828
C  C53  1  0.17170000  0.65420000  0.65800000  1.0 -0.1087348923
C  C54  1  0.82830000  0.15420000  0.84200000  1.0 -0.1087348923
C  C55  1  0.82830000  0.34580000  0.34200000  1.0 -0.1087348923
C  C56  1  0.17170000  0.84580000  0.15800000  1.0 -0.1087348923
C  C57  1  0.17530000  0.64670000  0.61070000  1.0 -0.1006523042
C  C58  1  0.82470000  0.14670000  0.88930000  1.0 -0.1006523042
C  C59  1  0.82470000  0.35330000  0.38930000  1.0 -0.1006523042
C  C60  1  0.17530000  0.85330000  0.11070000  1.0 -0.1006523042
C  C61  1  0.28590000  0.63600000  0.59380000  1.0 -0.1398107849
C  C62  1  0.71410000  0.13600000  0.90620000  1.0 -0.1398107849
C  C63  1  0.71410000  0.36400000  0.40620000  1.0 -0.1398107849
C  C64  1  0.28590000  0.86400000  0.09380000  1.0 -0.1398107849
C  C65  1  0.52650000  0.60882000  0.55560000  1.0 -0.2513098172
C  C66  1  0.47350000  0.10882000  0.94440000  1.0 -0.2513098172
C  C67  1  0.47350000  0.39118000  0.44440000  1.0 -0.2513098172
C  C68  1  0.52650000  0.89118000  0.05560000  1.0 -0.2513098172
C  C69  1  0.45470000  0.70000000  0.44490000  1.0 -0.1866306292
C  C70  1  0.54530000  0.20000000  0.05510000  1.0 -0.1798996565
C  C71  1  0.54530000  0.30000000  0.55510000  1.0 -0.1798996565
C  C72  1  0.45470000  0.80000000  0.94490000  1.0 -0.1866306292
C  C73  1  0.37570000  0.66666667  0.44530000  1.0 -0.1798996565
C  C74  1  0.62430000  0.16667000  0.05470000  1.0 -0.1798996565
C  C75  1  0.62430000  0.33333333  0.55470000  1.0 -0.1798996565
C  C76  1  0.37570000  0.83333000  0.94530000  1.0 -0.1798996565
C  C77  1  0.39790000  0.63864000  0.48298000  1.0 0.1909043452
C  C78  1  0.60210000  0.13864000  0.01702000  1.0 0.1909043452
C  C79  1  0.60210000  0.36136000  0.51702000  1.0 0.1909043452
C  C80  1  0.39790000  0.86136000  0.98298000  1.0 0.1909043452
C  C81  1  0.50060000  0.64261000  0.51770000  1.0 -0.0412664396
C  C82  1  0.49940000  0.14261000  0.98230000  1.0 -0.0412664396
C  C83  1  0.49940000  0.35739000  0.48230000  1.0 -0.0412664396
C  C84  1  0.50060000  0.85739000  0.01770000  1.0 -0.0412664396
C  C85  1  0.58570000  0.67480000  0.51590000  1.0 0.0389017836
C  C86  1  0.41430000  0.17480000  0.98410000  1.0 0.0389017836
C  C87  1  0.41430000  0.32520000  0.48410000  1.0 0.0389017836
C  C88  1  0.58570000  0.82520000  0.01590000  1.0 0.0389017836
C  C89  1  0.55990000  0.70580000  0.47850000  1.0 0.0510151554
C  C90  1  0.44010000  0.20580000  0.02150000  1.0 0.0510151554
C  C91  1  0.44010000  0.29420000  0.52150000  1.0 0.0510151554
C  C92  1  0.55990000  0.79420000  0.97850000  1.0 0.0510151554
C  C93  1  0.64860000  0.73760000  0.47610000  1.0 -0.168994941
C  C94  1  0.35140000  0.23760000  0.02390000  1.0 -0.168994941
C  C95  1  0.35140000  0.26240000  0.52390000  1.0 -0.168994941
C  C96  1  0.64860000  0.76240000  0.97610000  1.0 -0.168994941
C  C97  1  0.75610000  0.74150000  0.50750000  1.0 -0.1087348923
C  C98  1  0.24390000  0.24150000  0.99250000  1.0 -0.1087348923
C  C99  1  0.24390000  0.25850000  0.49250000  1.0 -0.1087348923
C  C100  1  0.75610000  0.75850000  0.00750000  1.0 -0.1087348923
C  C101  1  0.78170000  0.71320000  0.54250000  1.0 -0.1087348923
C  C102  1  0.21830000  0.21320000  0.95750000  1.0 -0.1087348923
C  C103  1  0.21830000  0.28680000  0.45750000  1.0 -0.1087348923
C  C104  1  0.78170000  0.78680000  0.04250000  1.0 -0.1087348923
C  C105  1  0.70140000  0.68040000  0.54770000  1.0 -0.151099139
C  C106  1  0.29860000  0.18040000  0.95230000  1.0 -0.151099139
C  C107  1  0.29860000  0.31960000  0.45230000  1.0 -0.151099139
C  C108  1  0.70140000  0.81960000  0.04770000  1.0 -0.151099139
C  C109  1  0.93730000  0.58840000  0.90200000  1.0 0.5493111721
C  C110  1  0.06270000  0.08840000  0.59800000  1.0 0.5493111721
C  C111  1  0.06270000  0.41160000  0.09800000  1.0 0.5493111721
C  C112  1  0.93730000  0.91160000  0.40200000  1.0 0.5493111721
C  C113  1  0.05170000  0.55614000  0.97360000  1.0 -0.1398107849
C  C114  1  0.94830000  0.05614000  0.52640000  1.0 -0.1398107849
C  C115  1  0.94830000  0.44386000  0.02640000  1.0 -0.1398107849
C  C116  1  0.05170000  0.94386000  0.47360000  1.0 -0.1398107849
C  C117  1  0.97180000  0.58608000  0.95420000  1.0 -0.168994941
C  C118  1  0.02820000  0.08608000  0.54580000  1.0 -0.168994941
C  C119  1  0.02820000  0.41392000  0.04580000  1.0 -0.168994941
C  C120  1  0.97180000  0.91392000  0.45420000  1.0 -0.168994941
C  C121  1  0.91760000  0.61500000  0.98530000  1.0 0.2230414746
C  C122  1  0.08240000  0.11500000  0.51470000  1.0 0.2230414746
C  C123  1  0.08240000  0.38500000  0.01470000  1.0 0.2230414746
C  C124  1  0.91760000  0.88500000  0.48530000  1.0 0.2230414746
C  C125  1  0.94520000  0.61240000  0.03450000  1.0 -0.0465153099
C  C126  1  0.05480000  0.11240000  0.46550000  1.0 -0.0465153099
C  C127  1  0.05480000  0.38760000  0.96550000  1.0 -0.0465153099
C  C128  1  0.94520000  0.88760000  0.53450000  1.0 -0.0465153099
C  C129  1  0.02770000  0.57990000  0.05380000  1.0 0.0510151554
C  C130  1  0.97230000  0.07990000  0.44620000  1.0 0.0510151554
C  C131  1  0.97230000  0.42010000  0.94620000  1.0 0.0510151554
C  C132  1  0.02770000  0.92010000  0.55380000  1.0 0.0510151554
C  C133  1  0.08290000  0.55146000  0.02270000  1.0 0.0613447575
C  C134  1  0.91710000  0.05146000  0.47730000  1.0 0.0613447575
C  C135  1  0.91710000  0.44854000  0.97730000  1.0 0.0613447575
C  C136  1  0.08290000  0.94854000  0.52270000  1.0 0.0613447575
C  C137  1  0.16560000  0.51870000  0.04150000  1.0 -0.159931828
C  C138  1  0.83440000  0.01870000  0.45850000  1.0 -0.159931828
C  C139  1  0.83440000  0.48130000  0.95850000  1.0 -0.159931828
C  C140  1  0.16560000  0.98130000  0.54150000  1.0 -0.159931828
C  C141  1  0.19000000  0.51490000  0.09090000  1.0 -0.0919059703
C  C142  1  0.81000000  0.01490000  0.40910000  1.0 -0.0919059703
C  C143  1  0.81000000  0.48510000  0.90910000  1.0 -0.0919059703
C  C144  1  0.19000000  0.98510000  0.59090000  1.0 -0.0919059703
C  C145  1  0.13470000  0.54110000  0.12030000  1.0 -0.1006523042
C  C146  1  0.86530000  0.04110000  0.37970000  1.0 -0.1006523042
C  C147  1  0.86530000  0.45890000  0.87970000  1.0 -0.1006523042
C  C148  1  0.13470000  0.95890000  0.62030000  1.0 -0.1006523042
C  C149  1  0.05680000  0.57190000  0.10340000  1.0 -0.151099139
C  C150  1  0.94320000  0.07190000  0.39660000  1.0 -0.151099139
C  C151  1  0.94320000  0.42810000  0.89660000  1.0 -0.151099139
C  C152  1  0.05680000  0.92810000  0.60340000  1.0 -0.151099139
C  C153  1  0.88750000  0.64150000  0.06480000  1.0 -0.2513098172
C  C154  1  0.11250000  0.14150000  0.43520000  1.0 -0.2559214832
C  C155  1  0.11250000  0.35850000  0.93520000  1.0 -0.2559214832
C  C156  1  0.88750000  0.85850000  0.56480000  1.0 -0.2513098172
C  C157  1  0.14570000  0.71430000  0.16160000  1.0 -0.151099139
C  C158  1  0.85430000  0.21430000  0.33840000  1.0 -0.151099139
C  C159  1  0.85430000  0.28570000  0.83840000  1.0 -0.151099139
C  C160  1  0.14570000  0.78570000  0.66160000  1.0 -0.151099139
C  C161  1  0.14630000  0.71950000  0.11170000  1.0 0.0510151554
C  C162  1  0.85370000  0.21950000  0.38830000  1.0 0.0510151554
C  C163  1  0.85370000  0.28050000  0.88830000  1.0 0.0510151554
C  C164  1  0.14630000  0.78050000  0.61170000  1.0 0.0510151554
C  C165  1  0.06460000  0.69570000  0.08070000  1.0 0.0389017836
C  C166  1  0.93540000  0.19570000  0.41930000  1.0 0.0389017836
C  C167  1  0.93540000  0.30430000  0.91930000  1.0 0.0389017836
C  C168  1  0.06460000  0.80430000  0.58070000  1.0 0.0389017836
C  C169  1  0.06870000  0.70230000  0.03090000  1.0 -0.159931828
C  C170  1  0.93130000  0.20230000  0.46910000  1.0 -0.159931828
C  C171  1  0.93130000  0.29770000  0.96910000  1.0 -0.159931828
C  C172  1  0.06870000  0.79770000  0.53090000  1.0 -0.159931828
C  C173  1  0.14980000  0.73010000  0.01520000  1.0 -0.1087348923
C  C174  1  0.85020000  0.23010000  0.48480000  1.0 -0.1087348923
C  C175  1  0.85020000  0.26990000  0.98480000  1.0 -0.1087348923
C  C176  1  0.14980000  0.76990000  0.51520000  1.0 -0.1087348923
C  C177  1  0.22910000  0.75270000  0.04590000  1.0 -0.1087348923
C  C178  1  0.77090000  0.25270000  0.45410000  1.0 -0.1087348923
C  C179  1  0.77090000  0.24730000  0.95410000  1.0 -0.1087348923
C  C180  1  0.22910000  0.74730000  0.54590000  1.0 -0.1087348923
C  C181  1  0.22750000  0.74710000  0.09450000  1.0 -0.151099139
C  C182  1  0.77250000  0.24710000  0.40550000  1.0 -0.151099139
C  C183  1  0.77250000  0.25290000  0.90550000  1.0 -0.151099139
C  C184  1  0.22750000  0.75290000  0.59450000  1.0 -0.151099139
C  C185  1  0.02720000  0.52830000  0.73020000  1.0 0.0901914312
C  C186  1  0.97280000  0.02830000  0.76980000  1.0 0.0901914312
C  C187  1  0.97280000  0.47170000  0.26980000  1.0 0.0901914312
C  C188  1  0.02720000  0.97170000  0.23020000  1.0 0.0901914312
C  C189  1  0.12590000  0.48050000  0.76820000  1.0 -0.1006523042
C  C190  1  0.87410000  0.98050000  0.73180000  1.0 -0.1006523042
C  C191  1  0.87410000  0.51950000  0.23180000  1.0 -0.1006523042
C  C192  1  0.12590000  0.01950000  0.26820000  1.0 -0.1006523042
C  C193  1  0.07420000  0.50494000  0.79840000  1.0 -0.0320646951
C  C194  1  0.92580000  0.00494000  0.70160000  1.0 -0.0320646951
C  C195  1  0.92580000  0.49506000  0.20160000  1.0 -0.0320646951
C  C196  1  0.07420000  0.99506000  0.29840000  1.0 -0.0320646951
C  C197  1  0.13100000  0.47930000  0.68200000  1.0 -0.2038622738
C  C198  1  0.86900000  0.97930000  0.81800000  1.0 -0.2038622738
C  C199  1  0.86900000  0.52070000  0.31800000  1.0 -0.2038622738
C  C200  1  0.13100000  0.02070000  0.18200000  1.0 -0.2038622738
C  C201  1  0.26990000  0.48420000  0.67780000  1.0 0.0901914312
C  C202  1  0.73010000  0.98420000  0.82220000  1.0 0.0901914312
C  C203  1  0.73010000  0.51580000  0.32220000  1.0 0.0901914312
C  C204  1  0.26990000  0.01580000  0.17780000  1.0 0.0901914312
C  C205  1  0.32440000  0.51950000  0.67280000  1.0 -0.1798996565
C  C206  1  0.67560000  0.01950000  0.82720000  1.0 -0.1798996565
C  C207  1  0.67560000  0.48050000  0.32720000  1.0 -0.1798996565
C  C208  1  0.32440000  0.98050000  0.17280000  1.0 -0.1798996565
C  C209  1  0.45580000  0.52600000  0.67200000  1.0 -0.159931828
C  C210  1  0.54420000  0.02600000  0.82800000  1.0 -0.159931828
C  C211  1  0.54420000  0.47400000  0.32800000  1.0 -0.159931828
C  C212  1  0.45580000  0.97400000  0.17200000  1.0 -0.159931828
C  C213  1  0.53500000  0.49474000  0.67350000  1.0 0.1020347411
C  C214  1  0.46500000  0.99474000  0.82650000  1.0 0.1020347411
C  C215  1  0.46500000  0.50526000  0.32650000  1.0 0.1020347411
C  C216  1  0.53500000  0.00526000  0.17350000  1.0 0.1020347411
C  C217  1  0.47910000  0.45860000  0.67970000  1.0 -0.1866306292
C  C218  1  0.52090000  0.95860000  0.82030000  1.0 -0.1866306292
C  C219  1  0.52090000  0.54140000  0.32030000  1.0 -0.1866306292
C  C220  1  0.47910000  0.04140000  0.17970000  1.0 -0.1866306292
C  C221  1  0.35070000  0.45370000  0.68300000  1.0 -0.1798996565
C  C222  1  0.64930000  0.95370000  0.81700000  1.0 -0.1798996565
C  C223  1  0.64930000  0.54630000  0.31700000  1.0 -0.1798996565
C  C224  1  0.35070000  0.04630000  0.18300000  1.0 -0.1798996565
C  C225  1  0.67670000  0.50068000  0.67080000  1.0 -0.159931828
C  C226  1  0.32330000  0.00068000  0.82920000  1.0 -0.159931828
C  C227  1  0.32330000  0.49932000  0.32920000  1.0 -0.159931828
C  C228  1  0.67670000  0.99932000  0.17080000  1.0 -0.159931828
C  C229  1  0.78760000  0.43317000  0.66620000  1.0 0.0790661842
C  C230  1  0.21240000  0.93317000  0.83380000  1.0 0.0790661842
C  C231  1  0.21240000  0.56683000  0.33380000  1.0 0.0790661842
C  C232  1  0.78760000  0.06683000  0.16620000  1.0 0.0790661842
C  C233  1  0.84600000  0.42309000  0.73950000  1.0 -0.0589332638
C  C234  1  0.15400000  0.92309000  0.76050000  1.0 -0.0589332638
C  C235  1  0.15400000  0.57691000  0.26050000  1.0 -0.0589332638
C  C236  1  0.84600000  0.07691000  0.23950000  1.0 -0.0589332638
C  C237  1  0.79030000  0.45883000  0.73730000  1.0 -0.0919059703
C  C238  1  0.20970000  0.95883000  0.76270000  1.0 -0.0919059703
C  C239  1  0.20970000  0.54117000  0.26270000  1.0 -0.0919059703
C  C240  1  0.79030000  0.04117000  0.23730000  1.0 -0.0919059703
C  C241  1  0.90480000  0.73412000  0.31990000  1.0 0.0666574592
C  C242  1  0.09520000  0.23412000  0.18010000  1.0 0.0666574592
C  C243  1  0.09520000  0.26588000  0.68010000  1.0 0.0666574592
C  C244  1  0.90480000  0.76588000  0.81990000  1.0 0.0666574592
C  C245  1  0.97650000  0.72522000  0.39290000  1.0 -0.0707384163
C  C246  1  0.02350000  0.22522000  0.10710000  1.0 -0.0707384163
C  C247  1  0.02350000  0.27478000  0.60710000  1.0 -0.0707384163
C  C248  1  0.97650000  0.77478000  0.89290000  1.0 -0.0707384163
C  C249  1  0.90550000  0.75944000  0.39010000  1.0 -0.1398107849
C  C250  1  0.09450000  0.25944000  0.10990000  1.0 -0.1398107849
C  C251  1  0.09450000  0.24056000  0.60990000  1.0 -0.1398107849
C  C252  1  0.90550000  0.74056000  0.89010000  1.0 -0.1398107849
C  C253  1  0.77750000  0.79779000  0.32190000  1.0 -0.168994941
C  C254  1  0.22250000  0.29779000  0.17810000  1.0 -0.168994941
C  C255  1  0.22250000  0.20221000  0.67810000  1.0 -0.168994941
C  C256  1  0.77750000  0.70221000  0.82190000  1.0 -0.168994941
C  C257  1  0.64060000  0.79352000  0.33120000  1.0 0.1020347411
C  C258  1  0.35940000  0.29352000  0.16880000  1.0 0.1020347411
C  C259  1  0.35940000  0.20648000  0.66880000  1.0 0.1020347411
C  C260  1  0.64060000  0.70648000  0.83120000  1.0 0.1020347411
C  C261  1  0.58640000  0.82050000  0.35850000  1.0 -0.1398107849
C  C262  1  0.41360000  0.32050000  0.14150000  1.0 -0.1398107849
C  C263  1  0.41360000  0.17950000  0.64150000  1.0 -0.1398107849
C  C264  1  0.58640000  0.67950000  0.85850000  1.0 -0.1398107849
C  C265  1  0.46290000  0.81710000  0.36750000  1.0 -0.159931828
C  C266  1  0.53710000  0.31710000  0.13250000  1.0 -0.159931828
C  C267  1  0.53710000  0.18290000  0.63250000  1.0 -0.159931828
C  C268  1  0.46290000  0.68290000  0.86750000  1.0 -0.159931828
C  C269  1  0.38470000  0.78606000  0.34900000  1.0 0.0901914312
C  C270  1  0.61530000  0.28606000  0.15100000  1.0 0.0901914312
C  C271  1  0.61530000  0.21394000  0.65100000  1.0 0.0901914312
C  C272  1  0.38470000  0.71394000  0.84900000  1.0 0.0901914312
C  C273  1  0.43780000  0.75910000  0.32050000  1.0 -0.151099139
C  C274  1  0.56220000  0.25910000  0.17950000  1.0 -0.151099139
C  C275  1  0.56220000  0.24090000  0.67950000  1.0 -0.151099139
C  C276  1  0.43780000  0.74090000  0.82050000  1.0 -0.151099139
C  C277  1  0.56390000  0.76260000  0.31140000  1.0 -0.159931828
C  C278  1  0.43610000  0.26260000  0.18860000  1.0 -0.159931828
C  C279  1  0.43610000  0.23740000  0.68860000  1.0 -0.159931828
C  C280  1  0.56390000  0.73740000  0.81140000  1.0 -0.159931828
C  C281  1  0.24900000  0.78190000  0.35830000  1.0 -0.168994941
C  C282  1  0.75100000  0.28190000  0.14170000  1.0 -0.168994941
C  C283  1  0.75100000  0.21810000  0.64170000  1.0 -0.168994941
C  C284  1  0.24900000  0.71810000  0.85830000  1.0 -0.168994941
C  C285  1  0.11480000  0.84307000  0.33810000  1.0 0.0901914312
C  C286  1  0.88520000  0.34307000  0.16190000  1.0 0.0901914312
C  C287  1  0.88520000  0.15693000  0.66190000  1.0 0.0901914312
C  C288  1  0.11480000  0.65693000  0.83810000  1.0 0.0901914312
C  C289  1  0.03630000  0.82996000  0.26810000  1.0 -0.0412664396
C  C290  1  0.96370000  0.32996000  0.23190000  1.0 -0.0412664396
C  C291  1  0.96370000  0.17004000  0.73190000  1.0 -0.0412664396
C  C292  1  0.03630000  0.67004000  0.76810000  1.0 -0.0412664396
C  C293  1  0.11050000  0.79887000  0.28220000  1.0 -0.1087348923
C  C294  1  0.88950000  0.29887000  0.21780000  1.0 -0.1087348923
C  C295  1  0.88950000  0.20113000  0.71780000  1.0 -0.1087348923
C  C296  1  0.11050000  0.70113000  0.78220000  1.0 -0.1087348923
C  C297  1  0.62570000  0.56050000  0.81440000  1.0 0.2809424026
C  C298  1  0.37430000  0.06050000  0.68560000  1.0 0.2809424026
C  C299  1  0.37430000  0.43950000  0.18560000  1.0 0.2809424026
C  C300  1  0.62570000  0.93950000  0.31440000  1.0 0.2809424026
C  C301  1  0.49990000  0.49800000  0.80850000  1.0 -0.3428135367
C  C302  1  0.50010000  0.99800000  0.69150000  1.0 -0.3428135367
C  C303  1  0.50010000  0.50200000  0.19150000  1.0 -0.3428135367
C  C304  1  0.49990000  0.00200000  0.30850000  1.0 -0.3428135367
C  C305  1  0.39540000  0.56450000  0.82000000  1.0 -0.3463671507
C  C306  1  0.60460000  0.06450000  0.68000000  1.0 -0.3463671507
C  C307  1  0.60460000  0.43550000  0.18000000  1.0 -0.3463671507
C  C308  1  0.39540000  0.93550000  0.32000000  1.0 -0.3463671507
C  C309  1  0.91090000  0.61020000  0.38740000  1.0 -0.018749512
C  C310  1  0.08910000  0.11020000  0.11260000  1.0 -0.018749512
C  C311  1  0.08910000  0.38980000  0.61260000  1.0 -0.018749512
C  C312  1  0.91090000  0.88980000  0.88740000  1.0 -0.018749512
C  C313  1  0.68570000  0.62440000  0.39350000  1.0 -0.1087348923
C  C314  1  0.31430000  0.12440000  0.10650000  1.0 -0.1087348923
C  C315  1  0.31430000  0.37560000  0.60650000  1.0 -0.1087348923
C  C316  1  0.68570000  0.87560000  0.89350000  1.0 -0.1087348923
C  C317  1  0.85200000  0.63130000  0.46350000  1.0 -0.4151290955
C  C318  1  0.14800000  0.13130000  0.03650000  1.0 -0.4151290955
C  C319  1  0.14800000  0.36870000  0.53650000  1.0 -0.4128847005
C  C320  1  0.85200000  0.86870000  0.96350000  1.0 -0.4151290955
C  C321  1  0.79400000  0.63450000  0.32430000  1.0 -0.0465153099
C  C322  1  0.20600000  0.13450000  0.17570000  1.0 -0.0465153099
C  C323  1  0.20600000  0.36550000  0.67570000  1.0 -0.0465153099
C  C324  1  0.79400000  0.86550000  0.82430000  1.0 -0.0465153099
C  C325  1  0.72400000  0.65560000  0.39820000  1.0 -0.1006523042
C  C326  1  0.27600000  0.15560000  0.10180000  1.0 -0.1006523042
C  C327  1  0.27600000  0.34440000  0.60180000  1.0 -0.1006523042
C  C328  1  0.72400000  0.84440000  0.89820000  1.0 -0.1006523042
C  C329  1  0.56500000  0.65120000  0.32700000  1.0 -0.384994805
C  C330  1  0.43500000  0.15120000  0.17300000  1.0 -0.3860886993
C  C331  1  0.43500000  0.34880000  0.67300000  1.0 -0.384994805
C  C332  1  0.56500000  0.84880000  0.82700000  1.0 -0.384994805
N  N1  1  0.01170000  0.53561000  0.77451000  1.0 -0.2844186725
N  N2  1  0.98830000  0.03561000  0.72549000  1.0 -0.2844186725
N  N3  1  0.98830000  0.46439000  0.22549000  1.0 -0.2844186725
N  N4  1  0.01170000  0.96439000  0.27451000  1.0 -0.2844186725
N  N5  1  0.09490000  0.49578000  0.72480000  1.0 0.0510151554
N  N6  1  0.90510000  0.99578000  0.77520000  1.0 0.0510151554
N  N7  1  0.90510000  0.50422000  0.27520000  1.0 0.0510151554
N  N8  1  0.09490000  0.00422000  0.22480000  1.0 0.0510151554
N  N9  1  0.75460000  0.46604000  0.69065000  1.0 0.0389017836
N  N10  1  0.24540000  0.96604000  0.80935000  1.0 0.0389017836
N  N11  1  0.24540000  0.53396000  0.30935000  1.0 0.0389017836
N  N12  1  0.75460000  0.03396000  0.19065000  1.0 0.0389017836
N  N13  1  0.84410000  0.40611000  0.69434000  1.0 -0.3138696106
N  N14  1  0.15590000  0.90611000  0.80566000  1.0 -0.3138696106
N  N15  1  0.15590000  0.59389000  0.30566000  1.0 -0.3138696106
N  N16  1  0.84410000  0.09389000  0.19434000  1.0 -0.3138696106
N  N17  1  0.97520000  0.70896000  0.34884000  1.0 -0.3428135367
N  N18  1  0.02480000  0.20896000  0.15116000  1.0 -0.3428135367
N  N19  1  0.02480000  0.29104000  0.65116000  1.0 -0.3428135367
N  N20  1  0.97520000  0.79104000  0.84884000  1.0 -0.3428135367
N  N21  1  0.85920000  0.76469000  0.34326000  1.0 0.0389017836
N  N22  1  0.14080000  0.26469000  0.15674000  1.0 0.0389017836
N  N23  1  0.14080000  0.23531000  0.65674000  1.0 0.0389017836
N  N24  1  0.85920000  0.73531000  0.84326000  1.0 0.0389017836
N  N25  1  0.16080000  0.80722000  0.32779000  1.0 0.0510151554
N  N26  1  0.83920000  0.30722000  0.17221000  1.0 0.0510151554
N  N27  1  0.83920000  0.19278000  0.67221000  1.0 0.0510151554
N  N28  1  0.16080000  0.69278000  0.82779000  1.0 0.0510151554
N  N29  1  0.03860000  0.85813000  0.30199000  1.0 -0.2875361444
N  N30  1  0.96140000  0.35813000  0.19801000  1.0 -0.2875361444
N  N31  1  0.96140000  0.14187000  0.69801000  1.0 -0.2875361444
N  N32  1  0.03860000  0.64187000  0.80199000  1.0 -0.2875361444
N  N33  1  0.51370000  0.54220000  0.81450000  1.0 0.0300800929
N  N34  1  0.48630000  0.04220000  0.68550000  1.0 0.0300800929
N  N35  1  0.48630000  0.45780000  0.18550000  1.0 0.0300800929
N  N36  1  0.51370000  0.95780000  0.31450000  1.0 0.0300800929
N  N37  1  0.82250000  0.62530000  0.41190000  1.0 0.0300800929
N  N38  1  0.17750000  0.12530000  0.08810000  1.0 0.0300800929
N  N39  1  0.17750000  0.37470000  0.58810000  1.0 0.0300800929
N  N40  1  0.82250000  0.87470000  0.91190000  1.0 0.0300800929
N  N41  1  0.69600000  0.64150000  0.34900000  1.0 0.0300800929
N  N42  1  0.30400000  0.14150000  0.15100000  1.0 0.0300800929
N  N43  1  0.30400000  0.35850000  0.65100000  1.0 0.0300800929
N  N44  1  0.69600000  0.85850000  0.84900000  1.0 0.0300800929
O  O1  1  0.15800000  0.69653000  0.25831000  1.0 -0.5246946813
O  O2  1  0.84200000  0.19653000  0.24169000  1.0 -0.5257128309
O  O3  1  0.84200000  0.30347000  0.74169000  1.0 -0.5257128309
O  O4  1  0.15800000  0.80347000  0.75831000  1.0 -0.5257128309
O  O5  1  0.98430000  0.65917000  0.24488000  1.0 -0.5671391712
O  O6  1  0.01570000  0.15917000  0.25512000  1.0 -0.5671391712
O  O7  1  0.01570000  0.34083000  0.75512000  1.0 -0.5671391712
O  O8  1  0.98430000  0.84083000  0.74488000  1.0 -0.5671391712
O  O9  1  0.73770000  0.62392000  0.76563000  1.0 -0.5257128309
O  O10  1  0.26230000  0.12392000  0.73437000  1.0 -0.5257128309
O  O11  1  0.26230000  0.37608000  0.23437000  1.0 -0.5257128309
O  O12  1  0.73770000  0.87608000  0.26563000  1.0 -0.5257128309
O  O13  1  0.83860000  0.59992000  0.70841000  1.0 -0.5767722727
O  O14  1  0.16140000  0.09992000  0.79159000  1.0 -0.5767722727
O  O15  1  0.16140000  0.40008000  0.29159000  1.0 -0.5767722727
O  O16  1  0.83860000  0.90008000  0.20841000  1.0 -0.5767722727
O  O17  1  0.18350000  0.63446000  0.40963000  1.0 -0.5862191917
O  O18  1  0.81650000  0.13446000  0.09037000  1.0 -0.5862191917
O  O19  1  0.81650000  0.36554000  0.59037000  1.0 -0.5862191917
O  O20  1  0.18350000  0.86554000  0.90963000  1.0 -0.5862191917
O  O21  1  0.26670000  0.68112000  0.36897000  1.0 -0.5019152092
O  O22  1  0.73330000  0.18112000  0.13103000  1.0 -0.5019152092
O  O23  1  0.73330000  0.31888000  0.63103000  1.0 -0.5019152092
O  O24  1  0.26670000  0.81888000  0.86897000  1.0 -0.5019152092
O  O25  1  0.73680000  0.60287000  0.62403000  1.0 -0.4291628154
O  O26  1  0.26320000  0.10287000  0.87597000  1.0 -0.4291628154
O  O27  1  0.26320000  0.39713000  0.37597000  1.0 -0.4291628154
O  O28  1  0.73680000  0.89713000  0.12403000  1.0 -0.4291628154
O  O29  1  0.31770000  0.60646000  0.48352000  1.0 -0.4491068611
O  O30  1  0.68230000  0.10646000  0.01648000  1.0 -0.4491068611
O  O31  1  0.68230000  0.39354000  0.51648000  1.0 -0.4491068611
O  O32  1  0.31770000  0.89354000  0.98352000  1.0 -0.4491068611
O  O33  1  0.99500000  0.56621000  0.87751000  1.0 -0.5019152092
O  O34  1  0.00500000  0.06621000  0.62249000  1.0 -0.5019152092
O  O35  1  0.00500000  0.43379000  0.12249000  1.0 -0.5019152092
O  O36  1  0.99500000  0.93379000  0.37751000  1.0 -0.5019152092
O  O37  1  0.85380000  0.61370000  0.88525000  1.0 -0.5671391712
O  O38  1  0.14620000  0.11370000  0.61475000  1.0 -0.5671391712
O  O39  1  0.14620000  0.38630000  0.11475000  1.0 -0.5671391712
O  O40  1  0.85380000  0.88630000  0.38525000  1.0 -0.5671391712
O  O41  1  0.83820000  0.64427000  0.96600000  1.0 -0.4291628154
O  O42  1  0.16180000  0.14427000  0.53400000  1.0 -0.4291628154
O  O43  1  0.16180000  0.35573000  0.03400000  1.0 -0.4291628154
O  O44  1  0.83820000  0.85573000  0.46600000  1.0 -0.4291628154
O  O45  1  0.89720000  0.63895000  0.16228000  1.0 -0.4128847005
O  O46  1  0.10280000  0.13895000  0.33772000  1.0 -0.4128847005
O  O47  1  0.10280000  0.36105000  0.83772000  1.0 -0.4128847005
O  O48  1  0.89720000  0.86105000  0.66228000  1.0 -0.4128847005
O  O49  1  0.72200000  0.54191000  0.80750000  1.0 -0.4491068611
O  O50  1  0.27800000  0.04191000  0.69250000  1.0 -0.4491068611
O  O51  1  0.27800000  0.45809000  0.19250000  1.0 -0.4491068611
O  O52  1  0.72200000  0.95809000  0.30750000  1.0 -0.4491068611
O  O53  1  0.89370000  0.62073000  0.34620000  1.0 -0.205884586
O  O54  1  0.10630000  0.12073000  0.15380000  1.0 -0.205884586
O  O55  1  0.10630000  0.37927000  0.65380000  1.0 -0.2038622738
O  O56  1  0.89370000  0.87927000  0.84620000  1.0 -0.205884586
