# DDEC6 charges by PACMAN v1.1 (https://github.com/mtap-research/PACMAN-charge/)
data_JORVET_ASR_pacman
_symmetry_space_group_name_H-M   'P 1'
_cell_length_a   22.15200000
_cell_length_b   22.15200000
_cell_length_c   35.35250000
_cell_angle_alpha   59.41590000
_cell_angle_beta   120.58400000
_cell_angle_gamma   131.72900000
_symmetry_Int_Tables_number   1
_chemical_formula_structural   Zn8H92C123(N5O8)4
_chemical_formula_sum   'Zn16 H184 C246 N40 O64'
_cell_volume   10747.72009651
_cell_formula_units_Z   2
loop_
 _symmetry_equiv_pos_site_id
 _symmetry_equiv_pos_as_xyz
  1  'x, y, z'
loop_
 _atom_site_type_symbol
 _atom_site_label
 _atom_site_symmetry_multiplicity
 _atom_site_fract_x
 _atom_site_fract_y
 _atom_site_fract_z
 _atom_site_occupancy
 _atom_site_charge
Zn  Zn1  1  0.74621000  0.12807000  0.20546000  1.0 0.813729258
Zn  Zn2  1  0.12807000  0.74621000  0.29454000  1.0 0.813729258
Zn  Zn3  1  0.25379000  0.87193000  0.79454000  1.0 0.813729258
Zn  Zn4  1  0.87193000  0.25378000  0.70546000  1.0 0.813729258
Zn  Zn5  1  0.08562000  0.51377000  0.80568000  1.0 0.8166164623
Zn  Zn6  1  0.51377000  0.08562000  0.69432000  1.0 0.8166164623
Zn  Zn7  1  0.91438000  0.48623000  0.19432000  1.0 0.8166164623
Zn  Zn8  1  0.48623000  0.91438000  0.30568000  1.0 0.8166164623
Zn  Zn9  1  0.99009000  0.39372000  0.31130000  1.0 0.5085546539
Zn  Zn10  1  0.39371000  0.99009000  0.18870000  1.0 0.5085546539
Zn  Zn11  1  0.00991000  0.60628000  0.68870000  1.0 0.5085546539
Zn  Zn12  1  0.60629000  0.00991000  0.81130000  1.0 0.5085546539
Zn  Zn13  1  0.00340000  0.39140000  0.30660000  1.0 0.4893249041
Zn  Zn14  1  0.39141000  0.00340000  0.19340000  1.0 0.4893249041
Zn  Zn15  1  0.99660000  0.60859000  0.69340000  1.0 0.4893249041
Zn  Zn16  1  0.60860000  0.99660000  0.80660000  1.0 0.4804674969
H  H1  1  0.90480000  0.18680000  0.13700000  1.0 0.3500143038
H  H2  1  0.18681000  0.90480000  0.36300000  1.0 0.3500143038
H  H3  1  0.09520000  0.81319000  0.86300000  1.0 0.3500143038
H  H4  1  0.81319000  0.09520000  0.63700000  1.0 0.3500143038
H  H5  1  0.94090000  0.26550000  0.92240000  1.0 0.3410065302
H  H6  1  0.26551000  0.94090000  0.57760000  1.0 0.3410065302
H  H7  1  0.05910000  0.73450000  0.07760000  1.0 0.3410065302
H  H8  1  0.73450000  0.05910000  0.42240000  1.0 0.3410065302
H  H9  1  0.32320000  0.53100000  0.93720000  1.0 0.3410065302
H  H10  1  0.53100000  0.32320000  0.56280000  1.0 0.3410065302
H  H11  1  0.67680000  0.46899000  0.06280000  1.0 0.3410065302
H  H12  1  0.46900000  0.67680000  0.43720000  1.0 0.3410065302
H  H13  1  0.46600000  0.25100000  0.08360000  1.0 0.3500143038
H  H14  1  0.25101000  0.46600000  0.41640000  1.0 0.3500143038
H  H15  1  0.53400000  0.74899000  0.91640000  1.0 0.3500143038
H  H16  1  0.74900000  0.53400000  0.58360000  1.0 0.3500143038
H  H17  1  0.68800000  0.89521000  0.20940000  1.0 0.3500143038
H  H18  1  0.89521000  0.68800000  0.29060000  1.0 0.3500143038
H  H19  1  0.31200000  0.10479000  0.79060000  1.0 0.3500143038
H  H20  1  0.10480000  0.31200000  0.70940000  1.0 0.3500143038
H  H21  1  0.96850000  0.36550000  0.37790000  1.0 0.3500143038
H  H22  1  0.36551000  0.96850000  0.12210000  1.0 0.3500143038
H  H23  1  0.03150000  0.63450000  0.62210000  1.0 0.3500143038
H  H24  1  0.63450000  0.03150000  0.87790000  1.0 0.3500143038
H  H25  1  0.91890000  0.28930000  0.36790000  1.0 0.3500143038
H  H26  1  0.28931000  0.91890000  0.13210000  1.0 0.3500143038
H  H27  1  0.08110000  0.71069000  0.63210000  1.0 0.3500143038
H  H28  1  0.71070000  0.08110000  0.86790000  1.0 0.3500143038
H  H29  1  0.81370000  0.34751000  0.13520000  1.0 0.3011962707
H  H30  1  0.34751000  0.81370000  0.36480000  1.0 0.3011962707
H  H31  1  0.18630000  0.65249000  0.86480000  1.0 0.3011962707
H  H32  1  0.65250000  0.18630000  0.63520000  1.0 0.3011962707
H  H33  1  0.73710000  0.27031000  0.14700000  1.0 0.3011962707
H  H34  1  0.27031000  0.73710000  0.35300000  1.0 0.3011962707
H  H35  1  0.26290000  0.72970000  0.85300000  1.0 0.3011962707
H  H36  1  0.72969000  0.26290000  0.64700000  1.0 0.3011962707
H  H37  1  0.87430000  0.18771000  0.32220000  1.0 0.260824436
H  H38  1  0.18771000  0.87430000  0.17780000  1.0 0.260824436
H  H39  1  0.12570000  0.81230000  0.67780000  1.0 0.260824436
H  H40  1  0.81229000  0.12570000  0.82220000  1.0 0.260824436
H  H41  1  0.86540000  0.15280000  0.29300000  1.0 0.310310061
H  H42  1  0.15281000  0.86540000  0.20700000  1.0 0.310310061
H  H43  1  0.13460000  0.84720000  0.70700000  1.0 0.310310061
H  H44  1  0.84720000  0.13460000  0.79300000  1.0 0.310310061
H  H45  1  0.51450000  0.11110000  0.13230000  1.0 0.3011962707
H  H46  1  0.11111000  0.51450000  0.36770000  1.0 0.310310061
H  H47  1  0.48550000  0.88889000  0.86770000  1.0 0.310310061
H  H48  1  0.88890000  0.48550000  0.63230000  1.0 0.310310061
H  H49  1  0.59960000  0.14360000  0.13650000  1.0 0.3011962707
H  H50  1  0.14360000  0.59960000  0.36350000  1.0 0.3011962707
H  H51  1  0.40040000  0.85639000  0.86350000  1.0 0.3011962707
H  H52  1  0.85640000  0.40040000  0.63650000  1.0 0.3011962707
H  H53  1  0.64760000  0.96381000  0.31680000  1.0 0.260824436
H  H54  1  0.96381000  0.64760000  0.18320000  1.0 0.260824436
H  H55  1  0.35240000  0.03619000  0.68320000  1.0 0.260824436
H  H56  1  0.03620000  0.35240000  0.81680000  1.0 0.260824436
H  H57  1  0.70840000  0.01180000  0.29130000  1.0 0.2664036618
H  H58  1  0.01181000  0.70840000  0.20870000  1.0 0.2664036618
H  H59  1  0.29160000  0.98820000  0.70870000  1.0 0.2664036618
H  H60  1  0.98820000  0.29160000  0.79130000  1.0 0.2664036618
H  H61  1  0.70630000  0.05391000  0.31110000  1.0 0.2474560716
H  H62  1  0.05391000  0.70630000  0.18890000  1.0 0.2474560716
H  H63  1  0.29370000  0.94609000  0.68890000  1.0 0.2474560716
H  H64  1  0.94610000  0.29370000  0.81110000  1.0 0.2474560716
H  H65  1  0.68810000  0.20530000  0.05400000  1.0 0.1271591538
H  H66  1  0.20531000  0.68810000  0.44600000  1.0 0.1271591538
H  H67  1  0.31190000  0.79469000  0.94600000  1.0 0.1271591538
H  H68  1  0.79470000  0.31190000  0.55400000  1.0 0.1271591538
H  H69  1  0.81250000  0.24111000  0.94550000  1.0 0.1208522249
H  H70  1  0.24111000  0.81250000  0.55450000  1.0 0.1208522249
H  H71  1  0.18750000  0.75890000  0.05450000  1.0 0.1208522249
H  H72  1  0.75890000  0.18750000  0.44550000  1.0 0.1208522249
H  H73  1  0.71310000  0.26131000  0.88620000  1.0 0.1208522249
H  H74  1  0.26131000  0.71310000  0.61380000  1.0 0.1208522249
H  H75  1  0.28690000  0.73870000  0.11380000  1.0 0.1208522249
H  H76  1  0.73869000  0.28690000  0.38620000  1.0 0.1208522249
H  H77  1  0.62040000  0.26480000  0.89810000  1.0 0.1208522249
H  H78  1  0.26480000  0.62040000  0.60190000  1.0 0.1127449712
H  H79  1  0.37960000  0.73520000  0.10190000  1.0 0.1208522249
H  H80  1  0.73520000  0.37960000  0.39810000  1.0 0.1208522249
H  H81  1  0.62230000  0.23130000  0.97110000  1.0 0.1271591538
H  H82  1  0.23131000  0.62230000  0.52890000  1.0 0.1271591538
H  H83  1  0.37770000  0.76870000  0.02890000  1.0 0.1271591538
H  H84  1  0.76870000  0.37770000  0.47110000  1.0 0.1271591538
H  H85  1  0.89510000  0.19011000  0.01300000  1.0 0.1127449712
H  H86  1  0.19010000  0.89510000  0.48700000  1.0 0.1127449712
H  H87  1  0.10490000  0.80989000  0.98700000  1.0 0.1127449712
H  H88  1  0.80990000  0.10490000  0.51300000  1.0 0.1127449712
H  H89  1  0.95510000  0.22171000  0.05710000  1.0 0.1127449712
H  H90  1  0.22171000  0.95510000  0.44290000  1.0 0.1127449712
H  H91  1  0.04490000  0.77829000  0.94290000  1.0 0.1127449712
H  H92  1  0.77829000  0.04490000  0.55710000  1.0 0.1127449712
H  H93  1  0.09380000  0.52960000  0.92120000  1.0 0.1208522249
H  H94  1  0.52960000  0.09380000  0.57880000  1.0 0.1208522249
H  H95  1  0.90620000  0.47039000  0.07880000  1.0 0.1208522249
H  H96  1  0.47040000  0.90620000  0.42120000  1.0 0.1208522249
H  H97  1  0.00240000  0.33981000  0.07480000  1.0 0.1127449712
H  H98  1  0.33981000  0.00240000  0.42520000  1.0 0.1127449712
H  H99  1  0.99760000  0.66020000  0.92520000  1.0 0.1127449712
H  H100  1  0.66020000  0.99760000  0.57480000  1.0 0.1127449712
H  H101  1  0.08350000  0.46271000  0.09500000  1.0 0.1127449712
H  H102  1  0.46270000  0.08350000  0.40500000  1.0 0.1127449712
H  H103  1  0.91650000  0.53729000  0.90500000  1.0 0.1127449712
H  H104  1  0.53730000  0.91650000  0.59500000  1.0 0.1127449712
H  H105  1  0.14900000  0.59181000  0.04570000  1.0 0.1047988997
H  H106  1  0.59181000  0.14900000  0.45430000  1.0 0.1047988997
H  H107  1  0.85100000  0.40819000  0.95430000  1.0 0.1047988997
H  H108  1  0.40819000  0.85100000  0.54570000  1.0 0.1047988997
H  H109  1  0.14190000  0.59770000  0.97660000  1.0 0.1127449712
H  H110  1  0.59771000  0.14190000  0.52340000  1.0 0.1127449712
H  H111  1  0.85810000  0.40230000  0.02340000  1.0 0.1127449712
H  H112  1  0.40230000  0.85810000  0.47660000  1.0 0.1127449712
H  H113  1  0.18340000  0.37361000  0.84770000  1.0 0.1208522249
H  H114  1  0.37360000  0.18340000  0.65230000  1.0 0.1208522249
H  H115  1  0.81660000  0.62640000  0.15230000  1.0 0.1208522249
H  H116  1  0.62640000  0.81660000  0.34770000  1.0 0.1208522249
H  H117  1  0.37400000  0.27641000  0.99180000  1.0 0.1208522249
H  H118  1  0.27641000  0.37400000  0.50820000  1.0 0.1208522249
H  H119  1  0.62600000  0.72359000  0.00820000  1.0 0.1208522249
H  H120  1  0.72360000  0.62600000  0.49180000  1.0 0.1208522249
H  H121  1  0.33200000  0.18760000  0.95660000  1.0 0.1208522249
H  H122  1  0.18761000  0.33200000  0.54340000  1.0 0.1208522249
H  H123  1  0.66800000  0.81240000  0.04340000  1.0 0.1208522249
H  H124  1  0.81239000  0.66800000  0.45660000  1.0 0.1208522249
H  H125  1  0.22650000  0.16670000  0.89200000  1.0 0.1127449712
H  H126  1  0.16671000  0.22650000  0.60800000  1.0 0.1127449712
H  H127  1  0.77350000  0.83330000  0.10800000  1.0 0.1127449712
H  H128  1  0.83330000  0.77350000  0.39200000  1.0 0.1127449712
H  H129  1  0.18210000  0.25751000  0.84990000  1.0 0.1208522249
H  H130  1  0.25751000  0.18210000  0.65010000  1.0 0.1208522249
H  H131  1  0.81790000  0.74250000  0.15010000  1.0 0.1208522249
H  H132  1  0.74250000  0.81790000  0.34990000  1.0 0.1208522249
H  H133  1  0.40600000  0.43201000  0.01770000  1.0 0.1208522249
H  H134  1  0.43201000  0.40600000  0.48230000  1.0 0.1208522249
H  H135  1  0.59400000  0.56799000  0.98230000  1.0 0.1208522249
H  H136  1  0.56800000  0.59400000  0.51770000  1.0 0.1208522249
H  H137  1  0.44070000  0.39431000  0.01290000  1.0 0.1208522249
H  H138  1  0.39431000  0.44070000  0.48710000  1.0 0.1208522249
H  H139  1  0.55930000  0.60569000  0.98710000  1.0 0.1208522249
H  H140  1  0.60570000  0.55930000  0.51290000  1.0 0.1208522249
H  H141  1  0.23900000  0.09941000  0.12550000  1.0 0.1208522249
H  H142  1  0.09941000  0.23900000  0.37450000  1.0 0.1208522249
H  H143  1  0.76100000  0.90060000  0.87450000  1.0 0.1208522249
H  H144  1  0.90060000  0.76100000  0.62550000  1.0 0.1208522249
H  H145  1  0.26580000  0.38281000  0.00920000  1.0 0.1208522249
H  H146  1  0.38281000  0.26580000  0.49080000  1.0 0.1208522249
H  H147  1  0.73420000  0.61720000  0.99080000  1.0 0.1208522249
H  H148  1  0.61720000  0.73420000  0.50920000  1.0 0.1208522249
H  H149  1  0.14010000  0.32831000  0.01610000  1.0 0.1208522249
H  H150  1  0.32830000  0.14010000  0.48390000  1.0 0.1208522249
H  H151  1  0.85990000  0.67170000  0.98390000  1.0 0.1208522249
H  H152  1  0.67170000  0.85990000  0.51610000  1.0 0.1208522249
H  H153  1  0.07810000  0.20371000  0.06720000  1.0 0.1208522249
H  H154  1  0.20371000  0.07810000  0.43280000  1.0 0.1208522249
H  H155  1  0.92190000  0.79629000  0.93280000  1.0 0.1208522249
H  H156  1  0.79629000  0.92190000  0.56720000  1.0 0.1208522249
H  H157  1  0.13450000  0.12530000  0.10800000  1.0 0.1127449712
H  H158  1  0.12531000  0.13450000  0.39200000  1.0 0.1127449712
H  H159  1  0.86550000  0.87470000  0.89200000  1.0 0.1127449712
H  H160  1  0.87470000  0.86550000  0.60800000  1.0 0.1127449712
H  H161  1  0.89860000  0.02280000  0.31490000  1.0 0.1208522249
H  H162  1  0.02281000  0.89860000  0.18510000  1.0 0.1208522249
H  H163  1  0.10140000  0.97720000  0.68510000  1.0 0.1208522249
H  H164  1  0.97720000  0.10140000  0.81490000  1.0 0.1208522249
H  H165  1  0.91300000  0.78460000  0.32400000  1.0 0.1208522249
H  H166  1  0.78460000  0.91300000  0.17600000  1.0 0.1208522249
H  H167  1  0.08700000  0.21539000  0.67600000  1.0 0.1208522249
H  H168  1  0.21540000  0.08700000  0.82400000  1.0 0.1208522249
H  H169  1  0.02620000  0.82441000  0.38500000  1.0 0.1208522249
H  H170  1  0.82441000  0.02620000  0.11500000  1.0 0.1208522249
H  H171  1  0.97380000  0.17559000  0.61500000  1.0 0.1208522249
H  H172  1  0.17560000  0.97380000  0.88500000  1.0 0.1208522249
H  H173  1  0.07480000  0.93100000  0.40780000  1.0 0.1208522249
H  H174  1  0.93100000  0.07480000  0.09220000  1.0 0.1208522249
H  H175  1  0.92520000  0.06899000  0.59220000  1.0 0.1208522249
H  H176  1  0.06900000  0.92520000  0.90780000  1.0 0.1208522249
H  H177  1  0.01150000  0.99910000  0.37480000  1.0 0.1208522249
H  H178  1  0.99911000  0.01150000  0.12520000  1.0 0.1208522249
H  H179  1  0.98850000  0.00089000  0.62520000  1.0 0.1208522249
H  H180  1  0.00090000  0.98850000  0.87480000  1.0 0.1208522249
H  H181  1  0.77690000  0.73470000  0.27290000  1.0 0.1127449712
H  H182  1  0.73470000  0.77690000  0.22710000  1.0 0.1127449712
H  H183  1  0.22310000  0.26530000  0.72710000  1.0 0.1127449712
H  H184  1  0.26530000  0.22310000  0.77290000  1.0 0.1127449712
C  C1  1  0.78689000  0.17392000  0.13270000  1.0 0.57882478
C  C2  1  0.17392000  0.78689000  0.36730000  1.0 0.57882478
C  C3  1  0.21311000  0.82608000  0.86730000  1.0 0.57882478
C  C4  1  0.82608000  0.21311000  0.63270000  1.0 0.57882478
C  C5  1  0.84928000  0.22213000  0.03280000  1.0 -0.0201116152
C  C6  1  0.22213000  0.84928000  0.46720000  1.0 -0.0201116152
C  C7  1  0.15072000  0.77788000  0.96720000  1.0 -0.0201116152
C  C8  1  0.77787000  0.15072000  0.53280000  1.0 -0.0201116152
C  C9  1  0.84987000  0.20434000  0.07750000  1.0 0.2143004217
C  C10  1  0.20434000  0.84987000  0.42250000  1.0 0.2143004217
C  C11  1  0.15013000  0.79567000  0.92250000  1.0 0.2143004217
C  C12  1  0.79567000  0.15013000  0.57750000  1.0 0.2143004217
C  C13  1  0.78739000  0.19542000  0.08532000  1.0 -0.1505726518
C  C14  1  0.19542000  0.78739000  0.41468000  1.0 -0.1505726518
C  C15  1  0.21261000  0.80458000  0.91468000  1.0 -0.1505726518
C  C16  1  0.80459000  0.21261000  0.58532000  1.0 -0.1505726518
C  C17  1  0.72747000  0.20833000  0.04901000  1.0 -0.1586498025
C  C18  1  0.20834000  0.72747000  0.45099000  1.0 -0.1586498025
C  C19  1  0.27253000  0.79167000  0.95099000  1.0 -0.1586498025
C  C20  1  0.79166000  0.27253000  0.54901000  1.0 -0.1586498025
C  C21  1  0.72566000  0.22634000  0.00370000  1.0 0.0657301561
C  C22  1  0.22635000  0.72566000  0.49630000  1.0 0.0657301561
C  C23  1  0.27434000  0.77365000  0.99630000  1.0 0.0608052788
C  C24  1  0.77365000  0.27434000  0.50370000  1.0 0.0657301561
C  C25  1  0.78827000  0.23213000  0.99620000  1.0 0.0334327103
C  C26  1  0.23214000  0.78827000  0.50380000  1.0 0.035488622
C  C27  1  0.21173000  0.76787000  0.00380000  1.0 0.035488622
C  C28  1  0.76786000  0.21173000  0.49620000  1.0 0.0334327103
C  C29  1  0.77680000  0.24220000  0.95130000  1.0 -0.1314575373
C  C30  1  0.24221000  0.77680000  0.54870000  1.0 -0.1314575373
C  C31  1  0.22320000  0.75780000  0.04870000  1.0 -0.1314575373
C  C32  1  0.75780000  0.22320000  0.45130000  1.0 -0.1314575373
C  C33  1  0.71670000  0.25350000  0.91550000  1.0 -0.0987837267
C  C34  1  0.25350000  0.71670000  0.58450000  1.0 -0.0987837267
C  C35  1  0.28330000  0.74650000  0.08450000  1.0 -0.0987837267
C  C36  1  0.74650000  0.28330000  0.41550000  1.0 -0.0987837267
C  C37  1  0.65950000  0.25350000  0.92260000  1.0 -0.0987837267
C  C38  1  0.25351000  0.65950000  0.57740000  1.0 -0.0987837267
C  C39  1  0.34050000  0.74650000  0.07740000  1.0 -0.0987837267
C  C40  1  0.74650000  0.34050000  0.42260000  1.0 -0.0987837267
C  C41  1  0.66290000  0.23651000  0.96600000  1.0 -0.1505726518
C  C42  1  0.23651000  0.66290000  0.53400000  1.0 -0.1505726518
C  C43  1  0.33710000  0.76350000  0.03400000  1.0 -0.1505726518
C  C44  1  0.76350000  0.33710000  0.46600000  1.0 -0.1505726518
C  C45  1  0.91986000  0.23254000  0.02710000  1.0 -0.2526927932
C  C46  1  0.23255000  0.91986000  0.47290000  1.0 -0.2559800281
C  C47  1  0.08014000  0.76746000  0.97290000  1.0 -0.2559800281
C  C48  1  0.76746000  0.08014000  0.52710000  1.0 -0.2559800281
C  C49  1  0.02380000  0.40920000  0.88610000  1.0 0.57882478
C  C50  1  0.40920000  0.02380000  0.61390000  1.0 0.57882478
C  C51  1  0.97620000  0.59080000  0.11390000  1.0 0.57882478
C  C52  1  0.59080000  0.97620000  0.38610000  1.0 0.57882478
C  C53  1  0.97530000  0.31790000  0.99879000  1.0 -0.0416269333
C  C54  1  0.31791000  0.97530000  0.50121000  1.0 -0.0416269333
C  C55  1  0.02470000  0.68210000  0.00121000  1.0 -0.0416269333
C  C56  1  0.68210000  0.02470000  0.49879000  1.0 -0.0416269333
C  C57  1  0.97897000  0.32543000  0.95891000  1.0 0.2039544747
C  C58  1  0.32544000  0.97897000  0.54109000  1.0 0.2039544747
C  C59  1  0.02103000  0.67456000  0.04109000  1.0 0.2039544747
C  C60  1  0.67457000  0.02103000  0.45891000  1.0 0.2039544747
C  C61  1  0.02275000  0.40385000  0.92861000  1.0 -0.1898966248
C  C62  1  0.40386000  0.02275000  0.57139000  1.0 -0.1898966248
C  C63  1  0.97725000  0.59615000  0.07139000  1.0 -0.1898966248
C  C64  1  0.59615000  0.97725000  0.42861000  1.0 -0.1898966248
C  C65  1  0.06639000  0.47742000  0.94093000  1.0 -0.1408832959
C  C66  1  0.47741000  0.06639000  0.55907000  1.0 -0.1408832959
C  C67  1  0.93361000  0.52258000  0.05907000  1.0 -0.1408832959
C  C68  1  0.52258000  0.93361000  0.44093000  1.0 -0.1505726518
C  C69  1  0.06887000  0.47273000  0.98310000  1.0 0.0608052788
C  C70  1  0.47274000  0.06887000  0.51690000  1.0 0.0608052788
C  C71  1  0.93113000  0.52727000  0.01690000  1.0 0.0608052788
C  C72  1  0.52726000  0.93113000  0.48310000  1.0 0.0608052788
C  C73  1  0.02418000  0.39322000  0.01220000  1.0 0.0485179631
C  C74  1  0.39323000  0.02418000  0.48780000  1.0 0.0485179631
C  C75  1  0.97582000  0.60677000  0.98780000  1.0 0.0485179631
C  C76  1  0.60677000  0.97582000  0.51220000  1.0 0.0485179631
C  C77  1  0.03048000  0.39093000  0.05480000  1.0 -0.1408832959
C  C78  1  0.39093000  0.03048000  0.44520000  1.0 -0.1408832959
C  C79  1  0.96952000  0.60907000  0.94520000  1.0 -0.1408832959
C  C80  1  0.60908000  0.96952000  0.55480000  1.0 -0.1408832959
C  C81  1  0.07850000  0.46531000  0.06650000  1.0 -0.0901309194
C  C82  1  0.46531000  0.07850000  0.43350000  1.0 -0.0901309194
C  C83  1  0.92150000  0.53470000  0.93350000  1.0 -0.0901309194
C  C84  1  0.53470000  0.92150000  0.56650000  1.0 -0.0901309194
C  C85  1  0.11910000  0.54271000  0.03760000  1.0 -0.0987837267
C  C86  1  0.54270000  0.11910000  0.46240000  1.0 -0.0987837267
C  C87  1  0.88090000  0.45729000  0.96240000  1.0 -0.0987837267
C  C88  1  0.45730000  0.88090000  0.53760000  1.0 -0.0987837267
C  C89  1  0.11428000  0.54573000  0.99630000  1.0 -0.1314575373
C  C90  1  0.54573000  0.11428000  0.50370000  1.0 -0.1314575373
C  C91  1  0.88572000  0.45427000  0.00370000  1.0 -0.1314575373
C  C92  1  0.45428000  0.88572000  0.49630000  1.0 -0.1314575373
C  C93  1  0.22480000  0.49500000  0.86780000  1.0 0.5869404839
C  C94  1  0.49501000  0.22480000  0.63220000  1.0 0.5869404839
C  C95  1  0.77520000  0.50499000  0.13220000  1.0 0.5869404839
C  C96  1  0.50499000  0.77520000  0.36780000  1.0 0.5869404839
C  C97  1  0.33587000  0.38714000  0.96050000  1.0 -0.0201116152
C  C98  1  0.38713000  0.33587000  0.53950000  1.0 -0.0201116152
C  C99  1  0.66413000  0.61287000  0.03950000  1.0 -0.0201116152
C  C100  1  0.61287000  0.66413000  0.46050000  1.0 -0.0201116152
C  C101  1  0.31189000  0.44171000  0.93630000  1.0 0.1900356726
C  C102  1  0.44172000  0.31189000  0.56370000  1.0 0.1900356726
C  C103  1  0.68811000  0.55829000  0.06370000  1.0 0.1900356726
C  C104  1  0.55829000  0.68811000  0.43630000  1.0 0.1900356726
C  C105  1  0.25352000  0.43808000  0.89270000  1.0 -0.1408832959
C  C106  1  0.43809000  0.25352000  0.60730000  1.0 -0.1408832959
C  C107  1  0.74648000  0.56192000  0.10730000  1.0 -0.1408832959
C  C108  1  0.56192000  0.74648000  0.39270000  1.0 -0.1408832959
C  C109  1  0.22358000  0.37862000  0.87560000  1.0 -0.1408832959
C  C110  1  0.37863000  0.22358000  0.62440000  1.0 -0.1408832959
C  C111  1  0.77642000  0.62138000  0.12440000  1.0 -0.1408832959
C  C112  1  0.62138000  0.77642000  0.37560000  1.0 -0.1408832959
C  C113  1  0.25070000  0.32151000  0.89840000  1.0 0.0608052788
C  C114  1  0.32151000  0.25070000  0.60160000  1.0 0.0608052788
C  C115  1  0.74930000  0.67850000  0.10160000  1.0 0.0608052788
C  C116  1  0.67849000  0.74930000  0.39840000  1.0 0.0608052788
C  C117  1  0.30797000  0.32923000  0.94020000  1.0 0.0334327103
C  C118  1  0.32924000  0.30797000  0.55980000  1.0 0.0334327103
C  C119  1  0.69203000  0.67077000  0.05980000  1.0 0.0334327103
C  C120  1  0.67077000  0.69203000  0.44020000  1.0 0.0334327103
C  C121  1  0.33650000  0.27430000  0.96300000  1.0 -0.1314575373
C  C122  1  0.27431000  0.33650000  0.53700000  1.0 -0.1314575373
C  C123  1  0.66350000  0.72570000  0.03700000  1.0 -0.1314575373
C  C124  1  0.72569000  0.66350000  0.46300000  1.0 -0.1314575373
C  C125  1  0.30920000  0.21940000  0.94290000  1.0 -0.0901309194
C  C126  1  0.21941000  0.30920000  0.55710000  1.0 -0.0901309194
C  C127  1  0.69080000  0.78060000  0.05710000  1.0 -0.0901309194
C  C128  1  0.78060000  0.69080000  0.44290000  1.0 -0.0901309194
C  C129  1  0.24910000  0.20991000  0.90310000  1.0 -0.1075276726
C  C130  1  0.20991000  0.24910000  0.59690000  1.0 -0.1075276726
C  C131  1  0.75090000  0.79009000  0.09690000  1.0 -0.1075276726
C  C132  1  0.79009000  0.75090000  0.40310000  1.0 -0.1075276726
C  C133  1  0.22010000  0.26171000  0.87850000  1.0 -0.1505726518
C  C134  1  0.26171000  0.22010000  0.62150000  1.0 -0.1505726518
C  C135  1  0.77990000  0.73830000  0.12150000  1.0 -0.1505726518
C  C136  1  0.73830000  0.77990000  0.37850000  1.0 -0.1505726518
C  C137  1  0.38963000  0.38518000  0.01060000  1.0 -0.2526927932
C  C138  1  0.38517000  0.38963000  0.48940000  1.0 -0.2526927932
C  C139  1  0.61037000  0.61483000  0.98940000  1.0 -0.2559800281
C  C140  1  0.61482000  0.61037000  0.51060000  1.0 -0.2559800281
C  C141  1  0.37520000  0.12520000  0.12920000  1.0 0.57882478
C  C142  1  0.12521000  0.37520000  0.37080000  1.0 0.57882478
C  C143  1  0.62480000  0.87480000  0.87080000  1.0 0.57882478
C  C144  1  0.87480000  0.62480000  0.62920000  1.0 0.57882478
C  C145  1  0.35024000  0.30777000  0.04590000  1.0 -0.0416269333
C  C146  1  0.30777000  0.35024000  0.45410000  1.0 -0.0416269333
C  C147  1  0.64976000  0.69224000  0.95410000  1.0 -0.0416269333
C  C148  1  0.69224000  0.64976000  0.54590000  1.0 -0.0416269333
C  C149  1  0.38110000  0.25831000  0.07090000  1.0 0.2143004217
C  C150  1  0.25831000  0.38110000  0.42910000  1.0 0.2143004217
C  C151  1  0.61890000  0.74169000  0.92910000  1.0 0.2143004217
C  C152  1  0.74170000  0.61890000  0.57090000  1.0 0.2143004217
C  C153  1  0.33910000  0.17790000  0.10120000  1.0 -0.1505726518
C  C154  1  0.17791000  0.33910000  0.39880000  1.0 -0.1505726518
C  C155  1  0.66090000  0.82210000  0.89880000  1.0 -0.1505726518
C  C156  1  0.82210000  0.66090000  0.60120000  1.0 -0.1505726518
C  C157  1  0.26740000  0.15180000  0.10640000  1.0 -0.1408832959
C  C158  1  0.15180000  0.26740000  0.39360000  1.0 -0.1408832959
C  C159  1  0.73260000  0.84819000  0.89360000  1.0 -0.1408832959
C  C160  1  0.84820000  0.73260000  0.60640000  1.0 -0.1408832959
C  C161  1  0.23480000  0.20461000  0.08250000  1.0 0.0608052788
C  C162  1  0.20461000  0.23480000  0.41750000  1.0 0.0608052788
C  C163  1  0.76520000  0.79540000  0.91750000  1.0 0.0608052788
C  C164  1  0.79539000  0.76520000  0.58250000  1.0 0.0608052788
C  C165  1  0.27860000  0.28280000  0.05260000  1.0 0.0485179631
C  C166  1  0.28281000  0.27860000  0.44740000  1.0 0.0485179631
C  C167  1  0.72140000  0.71719000  0.94740000  1.0 0.0485179631
C  C168  1  0.71720000  0.72140000  0.55260000  1.0 0.0485179631
C  C169  1  0.23950000  0.32971000  0.02860000  1.0 -0.1314575373
C  C170  1  0.32971000  0.23950000  0.47140000  1.0 -0.1314575373
C  C171  1  0.76050000  0.67029000  0.97140000  1.0 -0.1314575373
C  C172  1  0.67029000  0.76050000  0.52860000  1.0 -0.1314575373
C  C173  1  0.16520000  0.29801000  0.03350000  1.0 -0.0846262707
C  C174  1  0.29801000  0.16520000  0.46650000  1.0 -0.0846262707
C  C175  1  0.83480000  0.70199000  0.96650000  1.0 -0.0846262707
C  C176  1  0.70200000  0.83480000  0.53350000  1.0 -0.0846262707
C  C177  1  0.12750000  0.22311000  0.06340000  1.0 -0.1075276726
C  C178  1  0.22311000  0.12750000  0.43660000  1.0 -0.1075276726
C  C179  1  0.87250000  0.77690000  0.93660000  1.0 -0.1075276726
C  C180  1  0.77690000  0.87250000  0.56340000  1.0 -0.1075276726
C  C181  1  0.16110000  0.17671000  0.08770000  1.0 -0.1505726518
C  C182  1  0.17671000  0.16110000  0.41230000  1.0 -0.1505726518
C  C183  1  0.83890000  0.82329000  0.91230000  1.0 -0.1505726518
C  C184  1  0.82329000  0.83890000  0.58770000  1.0 -0.1505726518
C  C185  1  0.76921000  0.00459000  0.24457000  1.0 0.5657466368
C  C186  1  0.00460000  0.76921000  0.25543000  1.0 0.5657466368
C  C187  1  0.23079000  0.99540000  0.75543000  1.0 0.5657466368
C  C188  1  0.99540000  0.23079000  0.74457000  1.0 0.5657466368
C  C189  1  0.81772000  0.84969000  0.27210000  1.0 -0.0262390364
C  C190  1  0.84969000  0.81772000  0.22790000  1.0 -0.0262390364
C  C191  1  0.18228000  0.15031000  0.72790000  1.0 -0.0262390364
C  C192  1  0.15032000  0.18228000  0.77210000  1.0 -0.0262390364
C  C193  1  0.77641000  0.89099000  0.25260000  1.0 0.2227735535
C  C194  1  0.89100000  0.77641000  0.24740000  1.0 0.2227735535
C  C195  1  0.22359000  0.10900000  0.74740000  1.0 0.2227735535
C  C196  1  0.10901000  0.22359000  0.75260000  1.0 0.2227735535
C  C197  1  0.80772000  0.95708000  0.26815000  1.0 -0.1898966248
C  C198  1  0.95708000  0.80772000  0.23185000  1.0 -0.1898966248
C  C199  1  0.19228000  0.04291000  0.73185000  1.0 -0.1898966248
C  C200  1  0.04292000  0.19228000  0.76815000  1.0 -0.1898966248
C  C201  1  0.87818000  0.97943000  0.30475000  1.0 -0.1586498025
C  C202  1  0.97943000  0.87818000  0.19525000  1.0 -0.1586498025
C  C203  1  0.12182000  0.02058000  0.69525000  1.0 -0.1586498025
C  C204  1  0.02058000  0.12182000  0.80475000  1.0 -0.1586498025
C  C205  1  0.91960000  0.93660000  0.32690000  1.0 0.0608052788
C  C206  1  0.93661000  0.91960000  0.17310000  1.0 0.0608052788
C  C207  1  0.08040000  0.06339000  0.67310000  1.0 0.0608052788
C  C208  1  0.06340000  0.08040000  0.82690000  1.0 0.0608052788
C  C209  1  0.88676000  0.87064000  0.30870000  1.0 0.0334327103
C  C210  1  0.87065000  0.88676000  0.19130000  1.0 0.0334327103
C  C211  1  0.11324000  0.12935000  0.69130000  1.0 0.0334327103
C  C212  1  0.12935000  0.11324000  0.80870000  1.0 0.0334327103
C  C213  1  0.93108000  0.82812000  0.33320000  1.0 -0.1314575373
C  C214  1  0.82813000  0.93108000  0.16680000  1.0 -0.1314575373
C  C215  1  0.06892000  0.17187000  0.66680000  1.0 -0.1314575373
C  C216  1  0.17188000  0.06892000  0.83320000  1.0 -0.1314575373
C  C217  1  0.99880000  0.85220000  0.36950000  1.0 -0.0987837267
C  C218  1  0.85220000  0.99880000  0.13050000  1.0 -0.0987837267
C  C219  1  0.00120000  0.14780000  0.63050000  1.0 -0.0901309194
C  C220  1  0.14780000  0.00120000  0.86950000  1.0 -0.0987837267
C  C221  1  0.02730000  0.91551000  0.38340000  1.0 -0.0987837267
C  C222  1  0.91551000  0.02730000  0.11660000  1.0 -0.0987837267
C  C223  1  0.97270000  0.08449000  0.61660000  1.0 -0.0987837267
C  C224  1  0.08449000  0.97270000  0.88340000  1.0 -0.0987837267
C  C225  1  0.99010000  0.95630000  0.36370000  1.0 -0.1505726518
C  C226  1  0.95631000  0.99010000  0.13630000  1.0 -0.1505726518
C  C227  1  0.00990000  0.04369000  0.63630000  1.0 -0.1505726518
C  C228  1  0.04370000  0.00990000  0.86370000  1.0 -0.1505726518
C  C229  1  0.78730000  0.78730000  0.25000000  1.0 -0.2526927932
C  C230  1  0.21270000  0.21270000  0.75000000  1.0 -0.2526927932
C  C231  1  0.87659000  0.25561000  0.26313000  1.0 0.4963014663
C  C232  1  0.25561000  0.87659000  0.23687000  1.0 0.4963014663
C  C233  1  0.12341000  0.74439000  0.73687000  1.0 0.4963014663
C  C234  1  0.74438000  0.12341000  0.76313000  1.0 0.4963014663
C  C235  1  0.82284000  0.30896000  0.19666000  1.0 0.5085546539
C  C236  1  0.30897000  0.82284000  0.30334000  1.0 0.5085546539
C  C237  1  0.17716000  0.69104000  0.80334000  1.0 0.5085546539
C  C238  1  0.69103000  0.17716000  0.69666000  1.0 0.5085546539
C  C239  1  0.56533000  0.06607000  0.18940000  1.0 0.5085546539
C  C240  1  0.06608000  0.56533000  0.31060000  1.0 0.5085546539
C  C241  1  0.43467000  0.93393000  0.81060000  1.0 0.5085546539
C  C242  1  0.93393000  0.43467000  0.68940000  1.0 0.5085546539
C  C243  1  0.61967000  0.02593000  0.25899000  1.0 0.4804674969
C  C244  1  0.02594000  0.61967000  0.24101000  1.0 0.4804674969
C  C245  1  0.38033000  0.97406000  0.74101000  1.0 0.4804674969
C  C246  1  0.97406000  0.38033000  0.75899000  1.0 0.4804674969
N  N1  1  0.82215000  0.23645000  0.22284000  1.0 -0.520790127
N  N2  1  0.23646000  0.82215000  0.27716000  1.0 -0.520790127
N  N3  1  0.17785000  0.76355000  0.77716000  1.0 -0.520790127
N  N4  1  0.76355000  0.17785000  0.72284000  1.0 -0.5258177354
N  N5  1  0.90674000  0.33066000  0.26276000  1.0 -0.3222151196
N  N6  1  0.33066000  0.90674000  0.23724000  1.0 -0.3222151196
N  N7  1  0.09326000  0.66934000  0.73724000  1.0 -0.3222151196
N  N8  1  0.66934000  0.09326000  0.76276000  1.0 -0.3222151196
N  N9  1  0.87214000  0.36606000  0.21810000  1.0 -0.3582541405
N  N10  1  0.36606000  0.87214000  0.28190000  1.0 -0.3582541405
N  N11  1  0.12786000  0.63394000  0.78190000  1.0 -0.3582541405
N  N12  1  0.63394000  0.12786000  0.71810000  1.0 -0.3582541405
N  N13  1  0.77971000  0.32010000  0.15251000  1.0 -0.5940157606
N  N14  1  0.32010000  0.77971000  0.34749000  1.0 -0.5953967406
N  N15  1  0.22029000  0.67991000  0.84749000  1.0 -0.5940157606
N  N16  1  0.67990000  0.22029000  0.65251000  1.0 -0.5940157606
N  N17  1  0.89252000  0.19948000  0.30049000  1.0 -0.6309244915
N  N18  1  0.19949000  0.89252000  0.19951000  1.0 -0.6309244915
N  N19  1  0.10748000  0.80051000  0.69951000  1.0 -0.6309244915
N  N20  1  0.80051000  0.10748000  0.80049000  1.0 -0.6309244915
N  N21  1  0.63736000  0.07064000  0.21693000  1.0 -0.5117740466
N  N22  1  0.07065000  0.63736000  0.28307000  1.0 -0.5117740466
N  N23  1  0.36264000  0.92935000  0.78307000  1.0 -0.5117740466
N  N24  1  0.92936000  0.36264000  0.71693000  1.0 -0.5117740466
N  N25  1  0.54533000  0.99687000  0.25820000  1.0 -0.3770448624
N  N26  1  0.99687000  0.54533000  0.24180000  1.0 -0.3770448624
N  N27  1  0.45467000  0.00312000  0.74180000  1.0 -0.3770448624
N  N28  1  0.00312000  0.45467000  0.75820000  1.0 -0.3770448624
N  N29  1  0.50830000  0.02410000  0.21082000  1.0 -0.3222151196
N  N30  1  0.02411000  0.50830000  0.28918000  1.0 -0.3222151196
N  N31  1  0.49170000  0.97590000  0.78918000  1.0 -0.3222151196
N  N32  1  0.97589000  0.49170000  0.71082000  1.0 -0.3222151196
N  N33  1  0.55141000  0.09780000  0.14299000  1.0 -0.6468441917
N  N34  1  0.09780000  0.55141000  0.35701000  1.0 -0.6449848844
N  N35  1  0.44859000  0.90221000  0.85701000  1.0 -0.6449848844
N  N36  1  0.90221000  0.44859000  0.64299000  1.0 -0.6449848844
N  N37  1  0.67526000  0.01275000  0.29793000  1.0 -0.5675631597
N  N38  1  0.01275000  0.67526000  0.20207000  1.0 -0.5675631597
N  N39  1  0.32474000  0.98725000  0.70207000  1.0 -0.5675631597
N  N40  1  0.98726000  0.32474000  0.79793000  1.0 -0.5675631597
O  O1  1  0.72595000  0.16145000  0.13819000  1.0 -0.5675631597
O  O2  1  0.16146000  0.72595000  0.36181000  1.0 -0.5675631597
O  O3  1  0.27405000  0.83854000  0.86181000  1.0 -0.5675631597
O  O4  1  0.83855000  0.27405000  0.63819000  1.0 -0.5675631597
O  O5  1  0.84557000  0.17023000  0.16529000  1.0 -0.520790127
O  O6  1  0.17024000  0.84557000  0.33471000  1.0 -0.520790127
O  O7  1  0.15443000  0.82976000  0.83471000  1.0 -0.520790127
O  O8  1  0.82977000  0.15443000  0.66529000  1.0 -0.520790127
O  O9  1  0.91176000  0.19664000  0.11337000  1.0 -0.4199374824
O  O10  1  0.19665000  0.91176000  0.38663000  1.0 -0.4199374824
O  O11  1  0.08824000  0.80335000  0.88663000  1.0 -0.4199374824
O  O12  1  0.80336000  0.08824000  0.61337000  1.0 -0.4199374824
O  O13  1  0.05305000  0.48236000  0.85831000  1.0 -0.5386870935
O  O14  1  0.48236000  0.05305000  0.64169000  1.0 -0.5386870935
O  O15  1  0.94695000  0.51765000  0.14169000  1.0 -0.5386870935
O  O16  1  0.51765000  0.94695000  0.35831000  1.0 -0.5386870935
O  O17  1  0.99696000  0.34584000  0.87777000  1.0 -0.5530501081
O  O18  1  0.34584000  0.99696000  0.62223000  1.0 -0.5530501081
O  O19  1  0.00304000  0.65416000  0.12223000  1.0 -0.5530501081
O  O20  1  0.65416000  0.00304000  0.37777000  1.0 -0.5530501081
O  O21  1  0.93391000  0.25369000  0.94649000  1.0 -0.4496868311
O  O22  1  0.25370000  0.93391000  0.55351000  1.0 -0.4496868311
O  O23  1  0.06609000  0.74631000  0.05351000  1.0 -0.4496868311
O  O24  1  0.74630000  0.06609000  0.44649000  1.0 -0.4496868311
O  O25  1  0.16561000  0.48119000  0.83069000  1.0 -0.5530501081
O  O26  1  0.48120000  0.16561000  0.66931000  1.0 -0.5530501081
O  O27  1  0.83439000  0.51880000  0.16931000  1.0 -0.5530501081
O  O28  1  0.51880000  0.83439000  0.33069000  1.0 -0.5530501081
O  O29  1  0.24795000  0.54606000  0.88527000  1.0 -0.520790127
O  O30  1  0.54605000  0.24795000  0.61473000  1.0 -0.520790127
O  O31  1  0.75205000  0.45395000  0.11473000  1.0 -0.520790127
O  O32  1  0.45395000  0.75205000  0.38527000  1.0 -0.520790127
O  O33  1  0.34237000  0.50204000  0.95529000  1.0 -0.4496868311
O  O34  1  0.50204000  0.34237000  0.54471000  1.0 -0.4496868311
O  O35  1  0.65763000  0.49796000  0.04471000  1.0 -0.4496868311
O  O36  1  0.49797000  0.65763000  0.45529000  1.0 -0.4496868311
O  O37  1  0.33433000  0.05528000  0.15386000  1.0 -0.4496868311
O  O38  1  0.05528000  0.33433000  0.34614000  1.0 -0.4496868311
O  O39  1  0.66567000  0.94472000  0.84614000  1.0 -0.4496868311
O  O40  1  0.94473000  0.66567000  0.65386000  1.0 -0.4496868311
O  O41  1  0.44212000  0.14888000  0.12460000  1.0 -0.5792852029
O  O42  1  0.14889000  0.44212000  0.37540000  1.0 -0.5792852029
O  O43  1  0.55788000  0.85111000  0.87540000  1.0 -0.5792852029
O  O44  1  0.85111000  0.55788000  0.62460000  1.0 -0.5792852029
O  O45  1  0.45402000  0.28619000  0.06696000  1.0 -0.4199374824
O  O46  1  0.28619000  0.45402000  0.43304000  1.0 -0.4199374824
O  O47  1  0.54598000  0.71381000  0.93304000  1.0 -0.4199374824
O  O48  1  0.71381000  0.54598000  0.56696000  1.0 -0.4199374824
O  O49  1  0.70894000  0.98967000  0.21041000  1.0 -0.4985018282
O  O50  1  0.98967000  0.70894000  0.28959000  1.0 -0.4985018282
O  O51  1  0.29106000  0.01034000  0.78959000  1.0 -0.4985018282
O  O52  1  0.01034000  0.29106000  0.71041000  1.0 -0.4985018282
O  O53  1  0.80126000  0.06774000  0.25776000  1.0 -0.5530501081
O  O54  1  0.06775000  0.80126000  0.24224000  1.0 -0.5530501081
O  O55  1  0.19874000  0.93226000  0.74224000  1.0 -0.5530501081
O  O56  1  0.93226000  0.19874000  0.75776000  1.0 -0.5557398035
O  O57  1  0.70613000  0.86667000  0.21805000  1.0 -0.4040775208
O  O58  1  0.86668000  0.70613000  0.28195000  1.0 -0.4040775208
O  O59  1  0.29387000  0.13333000  0.78195000  1.0 -0.4040775208
O  O60  1  0.13333000  0.29387000  0.71805000  1.0 -0.4040775208
O  O61  1  0.93451000  0.34049000  0.35688000  1.0 -0.5530501081
O  O62  1  0.34050000  0.93451000  0.14312000  1.0 -0.5530501081
O  O63  1  0.06549000  0.65951000  0.64312000  1.0 -0.5530501081
O  O64  1  0.65951000  0.06549000  0.85688000  1.0 -0.5530501081
