# DDEC6 charges by PACMAN v1.1 (https://github.com/mtap-research/PACMAN-charge/)
data_JOSTIU_ion_pacman
_symmetry_space_group_name_H-M   'P 1'
_cell_length_a   20.43500000
_cell_length_b   20.43500000
_cell_length_c   20.43500000
_cell_angle_alpha   90.00000000
_cell_angle_beta   90.00000000
_cell_angle_gamma   90.00000000
_symmetry_Int_Tables_number   1
_chemical_formula_structural   Nd3C21N3(ClO16)2
_chemical_formula_sum   'Nd24 C168 N24 Cl16 O256'
_cell_volume   8533.43581287
_cell_formula_units_Z   8
loop_
 _symmetry_equiv_pos_site_id
 _symmetry_equiv_pos_as_xyz
  1  'x, y, z'
loop_
 _atom_site_type_symbol
 _atom_site_label
 _atom_site_symmetry_multiplicity
 _atom_site_fract_x
 _atom_site_fract_y
 _atom_site_fract_z
 _atom_site_occupancy
 _atom_site_charge
Nd  Nd1  1  0.25768000  0.35613000  0.01998000  1.0 2.0273569239
Nd  Nd2  1  0.24232000  0.64387000  0.51998000  1.0 2.0247809412
Nd  Nd3  1  0.75768000  0.14387000  0.98002000  1.0 2.0273569239
Nd  Nd4  1  0.35613000  0.01998000  0.25768000  1.0 2.0273569239
Nd  Nd5  1  0.74232000  0.85613000  0.48002000  1.0 2.0273569239
Nd  Nd6  1  0.14387000  0.98002000  0.75768000  1.0 2.0273569239
Nd  Nd7  1  0.85613000  0.48002000  0.74232000  1.0 2.0273569239
Nd  Nd8  1  0.64387000  0.51998000  0.24232000  1.0 2.0247809412
Nd  Nd9  1  0.01998000  0.25768000  0.35613000  1.0 2.0273569239
Nd  Nd10  1  0.98002000  0.75768000  0.14387000  1.0 2.0273569239
Nd  Nd11  1  0.48002000  0.74232000  0.85613000  1.0 2.0273569239
Nd  Nd12  1  0.51998000  0.24232000  0.64387000  1.0 2.0273569239
Nd  Nd13  1  0.74232000  0.64387000  0.98002000  1.0 2.0273569239
Nd  Nd14  1  0.75768000  0.35613000  0.48002000  1.0 2.0273569239
Nd  Nd15  1  0.24232000  0.85613000  0.01998000  1.0 2.0273569239
Nd  Nd16  1  0.64387000  0.98002000  0.74232000  1.0 2.0273569239
Nd  Nd17  1  0.25768000  0.14387000  0.51998000  1.0 2.0273569239
Nd  Nd18  1  0.85613000  0.01998000  0.24232000  1.0 2.0273569239
Nd  Nd19  1  0.14387000  0.51998000  0.25768000  1.0 2.0273569239
Nd  Nd20  1  0.35613000  0.48002000  0.75768000  1.0 2.0273569239
Nd  Nd21  1  0.98002000  0.74232000  0.64387000  1.0 2.0273569239
Nd  Nd22  1  0.01998000  0.24232000  0.85613000  1.0 2.0273569239
Nd  Nd23  1  0.51998000  0.25768000  0.14387000  1.0 2.0273569239
Nd  Nd24  1  0.48002000  0.75768000  0.35613000  1.0 2.0273569239
C  C1  1  0.37060000  0.24260000  0.05990000  1.0 0.6216180396
C  C2  1  0.12940000  0.75740000  0.55990000  1.0 0.6216180396
C  C3  1  0.87060000  0.25740000  0.94010000  1.0 0.6216180396
C  C4  1  0.24260000  0.05990000  0.37060000  1.0 0.6216180396
C  C5  1  0.62940000  0.74260000  0.44010000  1.0 0.6216180396
C  C6  1  0.25740000  0.94010000  0.87060000  1.0 0.6216180396
C  C7  1  0.74260000  0.44010000  0.62940000  1.0 0.6216180396
C  C8  1  0.75740000  0.55990000  0.12940000  1.0 0.6216180396
C  C9  1  0.05990000  0.37060000  0.24260000  1.0 0.6216180396
C  C10  1  0.94010000  0.87060000  0.25740000  1.0 0.6216180396
C  C11  1  0.44010000  0.62940000  0.74260000  1.0 0.6216180396
C  C12  1  0.55990000  0.12940000  0.75740000  1.0 0.6216180396
C  C13  1  0.62940000  0.75740000  0.94010000  1.0 0.6216180396
C  C14  1  0.87060000  0.24260000  0.44010000  1.0 0.6216180396
C  C15  1  0.12940000  0.74260000  0.05990000  1.0 0.6216180396
C  C16  1  0.75740000  0.94010000  0.62940000  1.0 0.6216180396
C  C17  1  0.37060000  0.25740000  0.55990000  1.0 0.6216180396
C  C18  1  0.74260000  0.05990000  0.12940000  1.0 0.6216180396
C  C19  1  0.25740000  0.55990000  0.37060000  1.0 0.6216180396
C  C20  1  0.24260000  0.44010000  0.87060000  1.0 0.6216180396
C  C21  1  0.94010000  0.62940000  0.75740000  1.0 0.6216180396
C  C22  1  0.05990000  0.12940000  0.74260000  1.0 0.6216180396
C  C23  1  0.55990000  0.37060000  0.25740000  1.0 0.6216180396
C  C24  1  0.44010000  0.87060000  0.24260000  1.0 0.6216180396
C  C25  1  0.32210000  0.19870000  0.02700000  1.0 0.0637213206
C  C26  1  0.17790000  0.80130000  0.52700000  1.0 0.0637213206
C  C27  1  0.82210000  0.30130000  0.97300000  1.0 0.0637213206
C  C28  1  0.19870000  0.02700000  0.32210000  1.0 0.0637213206
C  C29  1  0.67790000  0.69870000  0.47300000  1.0 0.0637213206
C  C30  1  0.30130000  0.97300000  0.82210000  1.0 0.0637213206
C  C31  1  0.69870000  0.47300000  0.67790000  1.0 0.0637213206
C  C32  1  0.80130000  0.52700000  0.17790000  1.0 0.0637213206
C  C33  1  0.02700000  0.32210000  0.19870000  1.0 0.0637213206
C  C34  1  0.97300000  0.82210000  0.30130000  1.0 0.0637213206
C  C35  1  0.47300000  0.67790000  0.69870000  1.0 0.0637213206
C  C36  1  0.52700000  0.17790000  0.80130000  1.0 0.0637213206
C  C37  1  0.67790000  0.80130000  0.97300000  1.0 0.0637213206
C  C38  1  0.82210000  0.19870000  0.47300000  1.0 0.0637213206
C  C39  1  0.17790000  0.69870000  0.02700000  1.0 0.0637213206
C  C40  1  0.80130000  0.97300000  0.67790000  1.0 0.0637213206
C  C41  1  0.32210000  0.30130000  0.52700000  1.0 0.0637213206
C  C42  1  0.69870000  0.02700000  0.17790000  1.0 0.0637213206
C  C43  1  0.30130000  0.52700000  0.32210000  1.0 0.0637213206
C  C44  1  0.19870000  0.47300000  0.82210000  1.0 0.0637213206
C  C45  1  0.97300000  0.67790000  0.80130000  1.0 0.0637213206
C  C46  1  0.02700000  0.17790000  0.69870000  1.0 0.0637213206
C  C47  1  0.52700000  0.32210000  0.30130000  1.0 0.0637213206
C  C48  1  0.47300000  0.82210000  0.19870000  1.0 0.0637213206
C  C49  1  0.32880000  0.13230000  0.02280000  1.0 0.0429910557
C  C50  1  0.17120000  0.86770000  0.52280000  1.0 0.0429910557
C  C51  1  0.82880000  0.36770000  0.97720000  1.0 0.0429910557
C  C52  1  0.13230000  0.02280000  0.32880000  1.0 0.0429910557
C  C53  1  0.67120000  0.63230000  0.47720000  1.0 0.0429910557
C  C54  1  0.36770000  0.97720000  0.82880000  1.0 0.0429910557
C  C55  1  0.63230000  0.47720000  0.67120000  1.0 0.0429910557
C  C56  1  0.86770000  0.52280000  0.17120000  1.0 0.0429910557
C  C57  1  0.02280000  0.32880000  0.13230000  1.0 0.0429910557
C  C58  1  0.97720000  0.82880000  0.36770000  1.0 0.0429910557
C  C59  1  0.47720000  0.67120000  0.63230000  1.0 0.0429910557
C  C60  1  0.52280000  0.17120000  0.86770000  1.0 0.0429910557
C  C61  1  0.67120000  0.86770000  0.97720000  1.0 0.0429910557
C  C62  1  0.82880000  0.13230000  0.47720000  1.0 0.0429910557
C  C63  1  0.17120000  0.63230000  0.02280000  1.0 0.0429910557
C  C64  1  0.86770000  0.97720000  0.67120000  1.0 0.0429910557
C  C65  1  0.32880000  0.36770000  0.52280000  1.0 0.0429910557
C  C66  1  0.63230000  0.02280000  0.17120000  1.0 0.0429910557
C  C67  1  0.36770000  0.52280000  0.32880000  1.0 0.0429910557
C  C68  1  0.13230000  0.47720000  0.82880000  1.0 0.0429910557
C  C69  1  0.97720000  0.67120000  0.86770000  1.0 0.0429910557
C  C70  1  0.02280000  0.17120000  0.63230000  1.0 0.0429910557
C  C71  1  0.52280000  0.32880000  0.36770000  1.0 0.0429910557
C  C72  1  0.47720000  0.82880000  0.13230000  1.0 0.0429910557
C  C73  1  0.28010000  0.09590000  0.99260000  1.0 0.0653597908
C  C74  1  0.21990000  0.90410000  0.49260000  1.0 0.0637213206
C  C75  1  0.78010000  0.40410000  0.00740000  1.0 0.0637213206
C  C76  1  0.09590000  0.99260000  0.28010000  1.0 0.0637213206
C  C77  1  0.71990000  0.59590000  0.50740000  1.0 0.0653597908
C  C78  1  0.40410000  0.00740000  0.78010000  1.0 0.0637213206
C  C79  1  0.59590000  0.50740000  0.71990000  1.0 0.0653597908
C  C80  1  0.90410000  0.49260000  0.21990000  1.0 0.0653597908
C  C81  1  0.99260000  0.28010000  0.09590000  1.0 0.0653597908
C  C82  1  0.00740000  0.78010000  0.40410000  1.0 0.0637213206
C  C83  1  0.50740000  0.71990000  0.59590000  1.0 0.0653597908
C  C84  1  0.49260000  0.21990000  0.90410000  1.0 0.0637213206
C  C85  1  0.71990000  0.90410000  0.00740000  1.0 0.0637213206
C  C86  1  0.78010000  0.09590000  0.50740000  1.0 0.0653597908
C  C87  1  0.21990000  0.59590000  0.99260000  1.0 0.0637213206
C  C88  1  0.90410000  0.00740000  0.71990000  1.0 0.0653597908
C  C89  1  0.28010000  0.40410000  0.49260000  1.0 0.0637213206
C  C90  1  0.59590000  0.99260000  0.21990000  1.0 0.0637213206
C  C91  1  0.40410000  0.49260000  0.28010000  1.0 0.0637213206
C  C92  1  0.09590000  0.50740000  0.78010000  1.0 0.0637213206
C  C93  1  0.00740000  0.71990000  0.90410000  1.0 0.0637213206
C  C94  1  0.99260000  0.21990000  0.59590000  1.0 0.0637213206
C  C95  1  0.49260000  0.28010000  0.40410000  1.0 0.0637213206
C  C96  1  0.50740000  0.78010000  0.09590000  1.0 0.0653597908
C  C97  1  0.22560000  0.12870000  0.96860000  1.0 0.0766477418
C  C98  1  0.27440000  0.87130000  0.46860000  1.0 0.0766477418
C  C99  1  0.72560000  0.37130000  0.03140000  1.0 0.0766477418
C  C100  1  0.12870000  0.96860000  0.22560000  1.0 0.0766477418
C  C101  1  0.77440000  0.62870000  0.53140000  1.0 0.0766477418
C  C102  1  0.37130000  0.03140000  0.72560000  1.0 0.0766477418
C  C103  1  0.62870000  0.53140000  0.77440000  1.0 0.0766477418
C  C104  1  0.87130000  0.46860000  0.27440000  1.0 0.0766477418
C  C105  1  0.96860000  0.22560000  0.12870000  1.0 0.0766477418
C  C106  1  0.03140000  0.72560000  0.37130000  1.0 0.0766477418
C  C107  1  0.53140000  0.77440000  0.62870000  1.0 0.0766477418
C  C108  1  0.46860000  0.27440000  0.87130000  1.0 0.0766477418
C  C109  1  0.77440000  0.87130000  0.03140000  1.0 0.0766477418
C  C110  1  0.72560000  0.12870000  0.53140000  1.0 0.0766477418
C  C111  1  0.27440000  0.62870000  0.96860000  1.0 0.0766477418
C  C112  1  0.87130000  0.03140000  0.77440000  1.0 0.0766477418
C  C113  1  0.22560000  0.37130000  0.46860000  1.0 0.0766477418
C  C114  1  0.62870000  0.96860000  0.27440000  1.0 0.0766477418
C  C115  1  0.37130000  0.46860000  0.22560000  1.0 0.0766477418
C  C116  1  0.12870000  0.53140000  0.72560000  1.0 0.0766477418
C  C117  1  0.03140000  0.77440000  0.87130000  1.0 0.0766477418
C  C118  1  0.96860000  0.27440000  0.62870000  1.0 0.0766477418
C  C119  1  0.46860000  0.22560000  0.37130000  1.0 0.0766477418
C  C120  1  0.53140000  0.72560000  0.12870000  1.0 0.0766477418
C  C121  1  0.22160000  0.19590000  0.97470000  1.0 0.0637213206
C  C122  1  0.27840000  0.80410000  0.47470000  1.0 0.0637213206
C  C123  1  0.72160000  0.30410000  0.02530000  1.0 0.0637213206
C  C124  1  0.19590000  0.97470000  0.22160000  1.0 0.0637213206
C  C125  1  0.77840000  0.69590000  0.52530000  1.0 0.0637213206
C  C126  1  0.30410000  0.02530000  0.72160000  1.0 0.0637213206
C  C127  1  0.69590000  0.52530000  0.77840000  1.0 0.0637213206
C  C128  1  0.80410000  0.47470000  0.27840000  1.0 0.0637213206
C  C129  1  0.97470000  0.22160000  0.19590000  1.0 0.0637213206
C  C130  1  0.02530000  0.72160000  0.30410000  1.0 0.0637213206
C  C131  1  0.52530000  0.77840000  0.69590000  1.0 0.0637213206
C  C132  1  0.47470000  0.27840000  0.80410000  1.0 0.0637213206
C  C133  1  0.77840000  0.80410000  0.02530000  1.0 0.0637213206
C  C134  1  0.72160000  0.19590000  0.52530000  1.0 0.0637213206
C  C135  1  0.27840000  0.69590000  0.97470000  1.0 0.0637213206
C  C136  1  0.80410000  0.02530000  0.77840000  1.0 0.0637213206
C  C137  1  0.22160000  0.30410000  0.47470000  1.0 0.0637213206
C  C138  1  0.69590000  0.97470000  0.27840000  1.0 0.0637213206
C  C139  1  0.30410000  0.47470000  0.22160000  1.0 0.0637213206
C  C140  1  0.19590000  0.52530000  0.72160000  1.0 0.0637213206
C  C141  1  0.02530000  0.77840000  0.80410000  1.0 0.0637213206
C  C142  1  0.97470000  0.27840000  0.69590000  1.0 0.0637213206
C  C143  1  0.47470000  0.22160000  0.30410000  1.0 0.0637213206
C  C144  1  0.52530000  0.72160000  0.19590000  1.0 0.0637213206
C  C145  1  0.16630000  0.23690000  0.94980000  1.0 0.6216180396
C  C146  1  0.33370000  0.76310000  0.44980000  1.0 0.6216180396
C  C147  1  0.66630000  0.26310000  0.05020000  1.0 0.6216180396
C  C148  1  0.23690000  0.94980000  0.16630000  1.0 0.6216180396
C  C149  1  0.83370000  0.73690000  0.55020000  1.0 0.6216180396
C  C150  1  0.26310000  0.05020000  0.66630000  1.0 0.6216180396
C  C151  1  0.73690000  0.55020000  0.83370000  1.0 0.6216180396
C  C152  1  0.76310000  0.44980000  0.33370000  1.0 0.6216180396
C  C153  1  0.94980000  0.16630000  0.23690000  1.0 0.6216180396
C  C154  1  0.05020000  0.66630000  0.26310000  1.0 0.6216180396
C  C155  1  0.55020000  0.83370000  0.73690000  1.0 0.6216180396
C  C156  1  0.44980000  0.33370000  0.76310000  1.0 0.6216180396
C  C157  1  0.83370000  0.76310000  0.05020000  1.0 0.6216180396
C  C158  1  0.66630000  0.23690000  0.55020000  1.0 0.6216180396
C  C159  1  0.33370000  0.73690000  0.94980000  1.0 0.6216180396
C  C160  1  0.76310000  0.05020000  0.83370000  1.0 0.6216180396
C  C161  1  0.16630000  0.26310000  0.44980000  1.0 0.6216180396
C  C162  1  0.73690000  0.94980000  0.33370000  1.0 0.6216180396
C  C163  1  0.26310000  0.44980000  0.16630000  1.0 0.6216180396
C  C164  1  0.23690000  0.55020000  0.66630000  1.0 0.6216180396
C  C165  1  0.05020000  0.83370000  0.76310000  1.0 0.6216180396
C  C166  1  0.94980000  0.33370000  0.73690000  1.0 0.6216180396
C  C167  1  0.44980000  0.16630000  0.26310000  1.0 0.6216180396
C  C168  1  0.55020000  0.66630000  0.23690000  1.0 0.6216180396
N  N1  1  0.26940000  0.23080000  0.00450000  1.0 -0.328968038
N  N2  1  0.23060000  0.76920000  0.50450000  1.0 -0.328968038
N  N3  1  0.76940000  0.26920000  0.99550000  1.0 -0.328968038
N  N4  1  0.23080000  0.00450000  0.26940000  1.0 -0.328968038
N  N5  1  0.73060000  0.73080000  0.49550000  1.0 -0.328968038
N  N6  1  0.26920000  0.99550000  0.76940000  1.0 -0.328968038
N  N7  1  0.73080000  0.49550000  0.73060000  1.0 -0.328968038
N  N8  1  0.76920000  0.50450000  0.23060000  1.0 -0.328968038
N  N9  1  0.00450000  0.26940000  0.23080000  1.0 -0.328968038
N  N10  1  0.99550000  0.76940000  0.26920000  1.0 -0.328968038
N  N11  1  0.49550000  0.73060000  0.73080000  1.0 -0.328968038
N  N12  1  0.50450000  0.23060000  0.76920000  1.0 -0.328968038
N  N13  1  0.73060000  0.76920000  0.99550000  1.0 -0.328968038
N  N14  1  0.76940000  0.23080000  0.49550000  1.0 -0.328968038
N  N15  1  0.23060000  0.73080000  0.00450000  1.0 -0.328968038
N  N16  1  0.76920000  0.99550000  0.73060000  1.0 -0.328968038
N  N17  1  0.26940000  0.26920000  0.50450000  1.0 -0.328968038
N  N18  1  0.73080000  0.00450000  0.23060000  1.0 -0.318470067
N  N19  1  0.26920000  0.50450000  0.26940000  1.0 -0.328968038
N  N20  1  0.23080000  0.49550000  0.76940000  1.0 -0.328968038
N  N21  1  0.99550000  0.73060000  0.76920000  1.0 -0.328968038
N  N22  1  0.00450000  0.23060000  0.73080000  1.0 -0.318470067
N  N23  1  0.50450000  0.26940000  0.26920000  1.0 -0.328968038
N  N24  1  0.49550000  0.76940000  0.23080000  1.0 -0.328968038
Cl  Cl1  1  0.12790000  0.37210000  0.62790000  1.0 1.236701739
Cl  Cl2  1  0.37210000  0.62790000  0.12790000  1.0 1.236701739
Cl  Cl3  1  0.62790000  0.12790000  0.37210000  1.0 1.236701739
Cl  Cl4  1  0.87210000  0.87210000  0.87210000  1.0 1.2297320487
Cl  Cl5  1  0.87210000  0.62790000  0.37210000  1.0 1.236701739
Cl  Cl6  1  0.62790000  0.37210000  0.87210000  1.0 1.236701739
Cl  Cl7  1  0.37210000  0.87210000  0.62790000  1.0 1.236701739
Cl  Cl8  1  0.12790000  0.12790000  0.12790000  1.0 1.2297320487
Cl  Cl9  1  0.28440000  0.21560000  0.78440000  1.0 1.1896443339
Cl  Cl10  1  0.21560000  0.78440000  0.28440000  1.0 1.1896443339
Cl  Cl11  1  0.78440000  0.28440000  0.21560000  1.0 1.1896443339
Cl  Cl12  1  0.71560000  0.71560000  0.71560000  1.0 1.1896443339
Cl  Cl13  1  0.71560000  0.78440000  0.21560000  1.0 1.1896443339
Cl  Cl14  1  0.78440000  0.21560000  0.71560000  1.0 1.1896443339
Cl  Cl15  1  0.21560000  0.71560000  0.78440000  1.0 1.1896443339
Cl  Cl16  1  0.28440000  0.28440000  0.28440000  1.0 1.1896443339
O  O1  1  0.35550000  0.30280000  0.06460000  1.0 -0.5120375507
O  O2  1  0.14450000  0.69720000  0.56460000  1.0 -0.5120375507
O  O3  1  0.85550000  0.19720000  0.93540000  1.0 -0.5120375507
O  O4  1  0.30280000  0.06460000  0.35550000  1.0 -0.5120375507
O  O5  1  0.64450000  0.80280000  0.43540000  1.0 -0.5120375507
O  O6  1  0.19720000  0.93540000  0.85550000  1.0 -0.5120375507
O  O7  1  0.80280000  0.43540000  0.64450000  1.0 -0.5120375507
O  O8  1  0.69720000  0.56460000  0.14450000  1.0 -0.5120375507
O  O9  1  0.06460000  0.35550000  0.30280000  1.0 -0.5120375507
O  O10  1  0.93540000  0.85550000  0.19720000  1.0 -0.5120375507
O  O11  1  0.43540000  0.64450000  0.80280000  1.0 -0.5120375507
O  O12  1  0.56460000  0.14450000  0.69720000  1.0 -0.5120375507
O  O13  1  0.64450000  0.69720000  0.93540000  1.0 -0.5120375507
O  O14  1  0.85550000  0.30280000  0.43540000  1.0 -0.5120375507
O  O15  1  0.14450000  0.80280000  0.06460000  1.0 -0.5120375507
O  O16  1  0.69720000  0.93540000  0.64450000  1.0 -0.5120375507
O  O17  1  0.35550000  0.19720000  0.56460000  1.0 -0.5120375507
O  O18  1  0.80280000  0.06460000  0.14450000  1.0 -0.5120375507
O  O19  1  0.19720000  0.56460000  0.35550000  1.0 -0.5120375507
O  O20  1  0.30280000  0.43540000  0.85550000  1.0 -0.5120375507
O  O21  1  0.93540000  0.64450000  0.69720000  1.0 -0.5120375507
O  O22  1  0.06460000  0.14450000  0.80280000  1.0 -0.5120375507
O  O23  1  0.56460000  0.35550000  0.19720000  1.0 -0.5120375507
O  O24  1  0.43540000  0.85550000  0.30280000  1.0 -0.5120375507
O  O25  1  0.42310000  0.21810000  0.08010000  1.0 -0.541783723
O  O26  1  0.07690000  0.78190000  0.58010000  1.0 -0.541783723
O  O27  1  0.92310000  0.28190000  0.91990000  1.0 -0.541783723
O  O28  1  0.21810000  0.08010000  0.42310000  1.0 -0.541783723
O  O29  1  0.57690000  0.71810000  0.41990000  1.0 -0.541783723
O  O30  1  0.28190000  0.91990000  0.92310000  1.0 -0.541783723
O  O31  1  0.71810000  0.41990000  0.57690000  1.0 -0.541783723
O  O32  1  0.78190000  0.58010000  0.07690000  1.0 -0.541783723
O  O33  1  0.08010000  0.42310000  0.21810000  1.0 -0.541783723
O  O34  1  0.91990000  0.92310000  0.28190000  1.0 -0.541783723
O  O35  1  0.41990000  0.57690000  0.71810000  1.0 -0.541783723
O  O36  1  0.58010000  0.07690000  0.78190000  1.0 -0.541783723
O  O37  1  0.57690000  0.78190000  0.91990000  1.0 -0.541783723
O  O38  1  0.92310000  0.21810000  0.41990000  1.0 -0.541783723
O  O39  1  0.07690000  0.71810000  0.08010000  1.0 -0.541783723
O  O40  1  0.78190000  0.91990000  0.57690000  1.0 -0.541783723
O  O41  1  0.42310000  0.28190000  0.58010000  1.0 -0.541783723
O  O42  1  0.71810000  0.08010000  0.07690000  1.0 -0.541783723
O  O43  1  0.28190000  0.58010000  0.42310000  1.0 -0.541783723
O  O44  1  0.21810000  0.41990000  0.92310000  1.0 -0.541783723
O  O45  1  0.91990000  0.57690000  0.78190000  1.0 -0.541783723
O  O46  1  0.08010000  0.07690000  0.71810000  1.0 -0.541783723
O  O47  1  0.58010000  0.42310000  0.28190000  1.0 -0.541783723
O  O48  1  0.41990000  0.92310000  0.21810000  1.0 -0.541783723
O  O49  1  0.12330000  0.21140000  0.91480000  1.0 -0.5171598149
O  O50  1  0.37670000  0.78860000  0.41480000  1.0 -0.5171598149
O  O51  1  0.62330000  0.28860000  0.08520000  1.0 -0.5171598149
O  O52  1  0.21140000  0.91480000  0.12330000  1.0 -0.5171598149
O  O53  1  0.87670000  0.71140000  0.58520000  1.0 -0.5171598149
O  O54  1  0.28860000  0.08520000  0.62330000  1.0 -0.5171598149
O  O55  1  0.71140000  0.58520000  0.87670000  1.0 -0.5171598149
O  O56  1  0.78860000  0.41480000  0.37670000  1.0 -0.5171598149
O  O57  1  0.91480000  0.12330000  0.21140000  1.0 -0.5171598149
O  O58  1  0.08520000  0.62330000  0.28860000  1.0 -0.5171598149
O  O59  1  0.58520000  0.87670000  0.71140000  1.0 -0.5171598149
O  O60  1  0.41480000  0.37670000  0.78860000  1.0 -0.5171598149
O  O61  1  0.87670000  0.78860000  0.08520000  1.0 -0.5171598149
O  O62  1  0.62330000  0.21140000  0.58520000  1.0 -0.5171598149
O  O63  1  0.37670000  0.71140000  0.91480000  1.0 -0.5171598149
O  O64  1  0.78860000  0.08520000  0.87670000  1.0 -0.5171598149
O  O65  1  0.12330000  0.28860000  0.41480000  1.0 -0.5171598149
O  O66  1  0.71140000  0.91480000  0.37670000  1.0 -0.5171598149
O  O67  1  0.28860000  0.41480000  0.12330000  1.0 -0.5171598149
O  O68  1  0.21140000  0.58520000  0.62330000  1.0 -0.5171598149
O  O69  1  0.08520000  0.87670000  0.78860000  1.0 -0.5171598149
O  O70  1  0.91480000  0.37670000  0.71140000  1.0 -0.5171598149
O  O71  1  0.41480000  0.12330000  0.28860000  1.0 -0.5171598149
O  O72  1  0.58520000  0.62330000  0.21140000  1.0 -0.5171598149
O  O73  1  0.16800000  0.29710000  0.96620000  1.0 -0.527330821
O  O74  1  0.33200000  0.70290000  0.46620000  1.0 -0.527330821
O  O75  1  0.66800000  0.20290000  0.03380000  1.0 -0.527330821
O  O76  1  0.29710000  0.96620000  0.16800000  1.0 -0.527330821
O  O77  1  0.83200000  0.79710000  0.53380000  1.0 -0.527330821
O  O78  1  0.20290000  0.03380000  0.66800000  1.0 -0.527330821
O  O79  1  0.79710000  0.53380000  0.83200000  1.0 -0.527330821
O  O80  1  0.70290000  0.46620000  0.33200000  1.0 -0.527330821
O  O81  1  0.96620000  0.16800000  0.29710000  1.0 -0.527330821
O  O82  1  0.03380000  0.66800000  0.20290000  1.0 -0.527330821
O  O83  1  0.53380000  0.83200000  0.79710000  1.0 -0.527330821
O  O84  1  0.46620000  0.33200000  0.70290000  1.0 -0.527330821
O  O85  1  0.83200000  0.70290000  0.03380000  1.0 -0.527330821
O  O86  1  0.66800000  0.29710000  0.53380000  1.0 -0.527330821
O  O87  1  0.33200000  0.79710000  0.96620000  1.0 -0.527330821
O  O88  1  0.70290000  0.03380000  0.83200000  1.0 -0.527330821
O  O89  1  0.16800000  0.20290000  0.46620000  1.0 -0.527330821
O  O90  1  0.79710000  0.96620000  0.33200000  1.0 -0.527330821
O  O91  1  0.20290000  0.46620000  0.16800000  1.0 -0.527330821
O  O92  1  0.29710000  0.53380000  0.66800000  1.0 -0.527330821
O  O93  1  0.03380000  0.83200000  0.70290000  1.0 -0.527330821
O  O94  1  0.96620000  0.33200000  0.79710000  1.0 -0.527330821
O  O95  1  0.46620000  0.16800000  0.20290000  1.0 -0.527330821
O  O96  1  0.53380000  0.66800000  0.29710000  1.0 -0.527330821
O  O97  1  0.32990000  0.32850000  0.92570000  1.0 -0.318470067
O  O98  1  0.17010000  0.67150000  0.42570000  1.0 -0.318470067
O  O99  1  0.82990000  0.17150000  0.07430000  1.0 -0.318470067
O  O100  1  0.32850000  0.92570000  0.32990000  1.0 -0.318470067
O  O101  1  0.67010000  0.82850000  0.57430000  1.0 -0.318470067
O  O102  1  0.17150000  0.07430000  0.82990000  1.0 -0.318470067
O  O103  1  0.82850000  0.57430000  0.67010000  1.0 -0.318470067
O  O104  1  0.67150000  0.42570000  0.17010000  1.0 -0.318470067
O  O105  1  0.92570000  0.32990000  0.32850000  1.0 -0.318470067
O  O106  1  0.07430000  0.82990000  0.17150000  1.0 -0.318470067
O  O107  1  0.57430000  0.67010000  0.82850000  1.0 -0.318470067
O  O108  1  0.42570000  0.17010000  0.67150000  1.0 -0.318470067
O  O109  1  0.67010000  0.67150000  0.07430000  1.0 -0.318470067
O  O110  1  0.82990000  0.32850000  0.57430000  1.0 -0.318470067
O  O111  1  0.17010000  0.82850000  0.92570000  1.0 -0.318470067
O  O112  1  0.67150000  0.07430000  0.67010000  1.0 -0.318470067
O  O113  1  0.32990000  0.17150000  0.42570000  1.0 -0.318470067
O  O114  1  0.82850000  0.92570000  0.17010000  1.0 -0.318470067
O  O115  1  0.17150000  0.42570000  0.32990000  1.0 -0.318470067
O  O116  1  0.32850000  0.57430000  0.82990000  1.0 -0.318470067
O  O117  1  0.07430000  0.67010000  0.67150000  1.0 -0.318470067
O  O118  1  0.92570000  0.17010000  0.82850000  1.0 -0.318470067
O  O119  1  0.42570000  0.32990000  0.17150000  1.0 -0.318470067
O  O120  1  0.57430000  0.82990000  0.32850000  1.0 -0.318470067
O  O121  1  0.33150000  0.45220000  0.00100000  1.0 -0.2123518748
O  O122  1  0.16850000  0.54780000  0.50100000  1.0 -0.2123518748
O  O123  1  0.83150000  0.04780000  0.99900000  1.0 -0.2123518748
O  O124  1  0.45220000  0.00100000  0.33150000  1.0 -0.2123518748
O  O125  1  0.66850000  0.95220000  0.49900000  1.0 -0.2123518748
O  O126  1  0.04780000  0.99900000  0.83150000  1.0 -0.2123518748
O  O127  1  0.95220000  0.49900000  0.66850000  1.0 -0.2123518748
O  O128  1  0.54780000  0.50100000  0.16850000  1.0 -0.2123518748
O  O129  1  0.00100000  0.33150000  0.45220000  1.0 -0.2123518748
O  O130  1  0.99900000  0.83150000  0.04780000  1.0 -0.2123518748
O  O131  1  0.49900000  0.66850000  0.95220000  1.0 -0.2123518748
O  O132  1  0.50100000  0.16850000  0.54780000  1.0 -0.2123518748
O  O133  1  0.66850000  0.54780000  0.99900000  1.0 -0.2123518748
O  O134  1  0.83150000  0.45220000  0.49900000  1.0 -0.2123518748
O  O135  1  0.16850000  0.95220000  0.00100000  1.0 -0.2123518748
O  O136  1  0.54780000  0.99900000  0.66850000  1.0 -0.2123518748
O  O137  1  0.33150000  0.04780000  0.50100000  1.0 -0.2123518748
O  O138  1  0.95220000  0.00100000  0.16850000  1.0 -0.2123518748
O  O139  1  0.04780000  0.50100000  0.33150000  1.0 -0.2123518748
O  O140  1  0.45220000  0.49900000  0.83150000  1.0 -0.2123518748
O  O141  1  0.99900000  0.66850000  0.54780000  1.0 -0.2123518748
O  O142  1  0.00100000  0.16850000  0.95220000  1.0 -0.2179478799
O  O143  1  0.50100000  0.33150000  0.04780000  1.0 -0.2123518748
O  O144  1  0.49900000  0.83150000  0.45220000  1.0 -0.2123518748
O  O145  1  0.20490000  0.29930000  0.11460000  1.0 -0.2632175818
O  O146  1  0.29510000  0.70070000  0.61460000  1.0 -0.2664521355
O  O147  1  0.70490000  0.20070000  0.88540000  1.0 -0.2664521355
O  O148  1  0.29930000  0.11460000  0.20490000  1.0 -0.2632175818
O  O149  1  0.79510000  0.79930000  0.38540000  1.0 -0.2664521355
O  O150  1  0.20070000  0.88540000  0.70490000  1.0 -0.2664521355
O  O151  1  0.79930000  0.38540000  0.79510000  1.0 -0.2664521355
O  O152  1  0.70070000  0.61460000  0.29510000  1.0 -0.2664521355
O  O153  1  0.11460000  0.20490000  0.29930000  1.0 -0.2632175818
O  O154  1  0.88540000  0.70490000  0.20070000  1.0 -0.2664521355
O  O155  1  0.38540000  0.79510000  0.79930000  1.0 -0.2664521355
O  O156  1  0.61460000  0.29510000  0.70070000  1.0 -0.2632175818
O  O157  1  0.79510000  0.70070000  0.88540000  1.0 -0.2632175818
O  O158  1  0.70490000  0.29930000  0.38540000  1.0 -0.2664521355
O  O159  1  0.29510000  0.79930000  0.11460000  1.0 -0.2664521355
O  O160  1  0.70070000  0.88540000  0.79510000  1.0 -0.2632175818
O  O161  1  0.20490000  0.20070000  0.61460000  1.0 -0.2664521355
O  O162  1  0.79930000  0.11460000  0.29510000  1.0 -0.2664521355
O  O163  1  0.20070000  0.61460000  0.20490000  1.0 -0.2664521355
O  O164  1  0.29930000  0.38540000  0.70490000  1.0 -0.2664521355
O  O165  1  0.88540000  0.79510000  0.70070000  1.0 -0.2632175818
O  O166  1  0.11460000  0.29510000  0.79930000  1.0 -0.2664521355
O  O167  1  0.61460000  0.20490000  0.20070000  1.0 -0.2664521355
O  O168  1  0.38540000  0.70490000  0.29930000  1.0 -0.2664521355
O  O169  1  0.16420000  0.42470000  0.05060000  1.0 -0.2179478799
O  O170  1  0.33580000  0.57530000  0.55060000  1.0 -0.2179478799
O  O171  1  0.66420000  0.07530000  0.94940000  1.0 -0.2123518748
O  O172  1  0.42470000  0.05060000  0.16420000  1.0 -0.2179478799
O  O173  1  0.83580000  0.92470000  0.44940000  1.0 -0.2123518748
O  O174  1  0.07530000  0.94940000  0.66420000  1.0 -0.2179478799
O  O175  1  0.92470000  0.44940000  0.83580000  1.0 -0.2123518748
O  O176  1  0.57530000  0.55060000  0.33580000  1.0 -0.2179478799
O  O177  1  0.05060000  0.16420000  0.42470000  1.0 -0.2179478799
O  O178  1  0.94940000  0.66420000  0.07530000  1.0 -0.2123518748
O  O179  1  0.44940000  0.83580000  0.92470000  1.0 -0.2179478799
O  O180  1  0.55060000  0.33580000  0.57530000  1.0 -0.2179478799
O  O181  1  0.83580000  0.57530000  0.94940000  1.0 -0.2179478799
O  O182  1  0.66420000  0.42470000  0.44940000  1.0 -0.2123518748
O  O183  1  0.33580000  0.92470000  0.05060000  1.0 -0.2179478799
O  O184  1  0.57530000  0.94940000  0.83580000  1.0 -0.2179478799
O  O185  1  0.16420000  0.07530000  0.55060000  1.0 -0.2179478799
O  O186  1  0.92470000  0.05060000  0.33580000  1.0 -0.2179478799
O  O187  1  0.07530000  0.55060000  0.16420000  1.0 -0.2179478799
O  O188  1  0.42470000  0.44940000  0.66420000  1.0 -0.2179478799
O  O189  1  0.94940000  0.83580000  0.57530000  1.0 -0.2179478799
O  O190  1  0.05060000  0.33580000  0.92470000  1.0 -0.2179478799
O  O191  1  0.55060000  0.16420000  0.07530000  1.0 -0.2123518748
O  O192  1  0.44940000  0.66420000  0.42470000  1.0 -0.2123518748
O  O193  1  0.10870000  0.33520000  0.57370000  1.0 -0.3947770474
O  O194  1  0.16480000  0.42630000  0.60870000  1.0 -0.3947770474
O  O195  1  0.07370000  0.39130000  0.66480000  1.0 -0.3947770474
O  O196  1  0.16570000  0.33430000  0.66570000  1.0 -0.328968038
O  O197  1  0.39130000  0.66480000  0.07370000  1.0 -0.3947770474
O  O198  1  0.33520000  0.57370000  0.10870000  1.0 -0.3947770474
O  O199  1  0.42630000  0.60870000  0.16480000  1.0 -0.3947770474
O  O200  1  0.33430000  0.66570000  0.16570000  1.0 -0.328968038
O  O201  1  0.60870000  0.16480000  0.42630000  1.0 -0.3947770474
O  O202  1  0.66480000  0.07370000  0.39130000  1.0 -0.3947770474
O  O203  1  0.57370000  0.10870000  0.33520000  1.0 -0.3947770474
O  O204  1  0.66570000  0.16570000  0.33430000  1.0 -0.328968038
O  O205  1  0.89130000  0.83520000  0.92630000  1.0 -0.3947770474
O  O206  1  0.83520000  0.92630000  0.89130000  1.0 -0.3947770474
O  O207  1  0.92630000  0.89130000  0.83520000  1.0 -0.3947770474
O  O208  1  0.83430000  0.83430000  0.83430000  1.0 -0.328968038
O  O209  1  0.89130000  0.66480000  0.42630000  1.0 -0.3947770474
O  O210  1  0.83520000  0.57370000  0.39130000  1.0 -0.3947770474
O  O211  1  0.92630000  0.60870000  0.33520000  1.0 -0.3947770474
O  O212  1  0.83430000  0.66570000  0.33430000  1.0 -0.328968038
O  O213  1  0.60870000  0.33520000  0.92630000  1.0 -0.3951502619
O  O214  1  0.66480000  0.42630000  0.89130000  1.0 -0.3951502619
O  O215  1  0.57370000  0.39130000  0.83520000  1.0 -0.3947770474
O  O216  1  0.66570000  0.33430000  0.83430000  1.0 -0.328968038
O  O217  1  0.39130000  0.83520000  0.57370000  1.0 -0.3947770474
O  O218  1  0.33520000  0.92630000  0.60870000  1.0 -0.3947770474
O  O219  1  0.42630000  0.89130000  0.66480000  1.0 -0.3947770474
O  O220  1  0.33430000  0.83430000  0.66570000  1.0 -0.328968038
O  O221  1  0.10870000  0.16480000  0.07370000  1.0 -0.3951502619
O  O222  1  0.16480000  0.07370000  0.10870000  1.0 -0.3951502619
O  O223  1  0.07370000  0.10870000  0.16480000  1.0 -0.3951502619
O  O224  1  0.16570000  0.16570000  0.16570000  1.0 -0.328968038
O  O225  1  0.32350000  0.24530000  0.73690000  1.0 -0.3388463674
O  O226  1  0.25470000  0.26310000  0.82350000  1.0 -0.328968038
O  O227  1  0.23690000  0.17650000  0.75470000  1.0 -0.328968038
O  O228  1  0.32090000  0.17910000  0.82090000  1.0 -0.3388463674
O  O229  1  0.17650000  0.75470000  0.23690000  1.0 -0.328968038
O  O230  1  0.24530000  0.73690000  0.32350000  1.0 -0.3388463674
O  O231  1  0.26310000  0.82350000  0.25470000  1.0 -0.328968038
O  O232  1  0.17910000  0.82090000  0.32090000  1.0 -0.3388463674
O  O233  1  0.82350000  0.25470000  0.26310000  1.0 -0.328968038
O  O234  1  0.75470000  0.23690000  0.17650000  1.0 -0.328968038
O  O235  1  0.73690000  0.32350000  0.24530000  1.0 -0.3388463674
O  O236  1  0.82090000  0.32090000  0.17910000  1.0 -0.3388463674
O  O237  1  0.67650000  0.74530000  0.76310000  1.0 -0.3388463674
O  O238  1  0.74530000  0.76310000  0.67650000  1.0 -0.3388463674
O  O239  1  0.76310000  0.67650000  0.74530000  1.0 -0.3388463674
O  O240  1  0.67910000  0.67910000  0.67910000  1.0 -0.3458071528
O  O241  1  0.67650000  0.75470000  0.26310000  1.0 -0.328968038
O  O242  1  0.74530000  0.73690000  0.17650000  1.0 -0.328968038
O  O243  1  0.76310000  0.82350000  0.24530000  1.0 -0.328968038
O  O244  1  0.67910000  0.82090000  0.17910000  1.0 -0.3388463674
O  O245  1  0.82350000  0.24530000  0.76310000  1.0 -0.328968038
O  O246  1  0.75470000  0.26310000  0.67650000  1.0 -0.328968038
O  O247  1  0.73690000  0.17650000  0.74530000  1.0 -0.328968038
O  O248  1  0.82090000  0.17910000  0.67910000  1.0 -0.3388463674
O  O249  1  0.17650000  0.74530000  0.73690000  1.0 -0.328968038
O  O250  1  0.24530000  0.76310000  0.82350000  1.0 -0.328968038
O  O251  1  0.26310000  0.67650000  0.75470000  1.0 -0.328968038
O  O252  1  0.17910000  0.67910000  0.82090000  1.0 -0.3388463674
O  O253  1  0.32350000  0.25470000  0.23690000  1.0 -0.3388463674
O  O254  1  0.25470000  0.23690000  0.32350000  1.0 -0.3388463674
O  O255  1  0.23690000  0.32350000  0.25470000  1.0 -0.3388463674
O  O256  1  0.32090000  0.32090000  0.32090000  1.0 -0.3458071528
