# DDEC6 charges by PACMAN v1.1 (https://github.com/mtap-research/PACMAN-charge/)
data_JOTHOP_ASR_pacman
_symmetry_space_group_name_H-M   'P 1'
_cell_length_a   9.41700000
_cell_length_b   9.75400000
_cell_length_c   11.00200000
_cell_angle_alpha   80.51000000
_cell_angle_beta   71.64000000
_cell_angle_gamma   61.68000000
_symmetry_Int_Tables_number   1
_chemical_formula_structural   Sn4(PO4)3
_chemical_formula_sum   'Sn8 P6 O24'
_cell_volume   844.18855660
_cell_formula_units_Z   2
loop_
 _symmetry_equiv_pos_site_id
 _symmetry_equiv_pos_as_xyz
  1  'x, y, z'
loop_
 _atom_site_type_symbol
 _atom_site_label
 _atom_site_symmetry_multiplicity
 _atom_site_fract_x
 _atom_site_fract_y
 _atom_site_fract_z
 _atom_site_occupancy
 _atom_site_charge
Sn  Sn1  1  0.22400000  0.39590000  0.39730000  1.0 1.0312950737
Sn  Sn2  1  0.77600000  0.60410000  0.60270000  1.0 1.0312950737
Sn  Sn3  1  0.71080000  0.27520000  0.55940000  1.0 0.9951726324
Sn  Sn4  1  0.28920000  0.72480000  0.44060000  1.0 0.9936612374
Sn  Sn5  1  0.97210000  0.29920000  0.12840000  1.0 1.1522539384
Sn  Sn6  1  0.02790000  0.70080000  0.87160000  1.0 1.1522539384
Sn  Sn7  1  0.97190000  0.91330000  0.25300000  1.0 1.0797440535
Sn  Sn8  1  0.02810000  0.08670000  0.74700000  1.0 1.0797440535
P  P1  1  0.62890000  0.26130000  0.28490000  1.0 1.3295928365
P  P2  1  0.37110000  0.73870000  0.71510000  1.0 1.3295928365
P  P3  1  0.01000000  0.59700000  0.17350000  1.0 1.3535370952
P  P4  1  0.99000000  0.40300000  0.82650000  1.0 1.3433354026
P  P5  1  0.12280000  0.11920000  0.41850000  1.0 1.3863239414
P  P6  1  0.87720000  0.88080000  0.58150000  1.0 1.3832657463
O  O1  1  0.13850000  0.54790000  0.24990000  1.0 -0.7128083282
O  O2  1  0.86150000  0.45210000  0.75010000  1.0 -0.7192829126
O  O3  1  0.18980000  0.22600000  0.32900000  1.0 -0.6671338403
O  O4  1  0.81020000  0.77400000  0.67100000  1.0 -0.6671338403
O  O5  1  0.45930000  0.31970000  0.25720000  1.0 -0.6245886558
O  O6  1  0.54070000  0.68030000  0.74280000  1.0 -0.6269235485
O  O7  1  0.59480000  0.28760000  0.42500000  1.0 -0.7192829126
O  O8  1  0.40520000  0.71240000  0.57500000  1.0 -0.7192829126
O  O9  1  0.24970000  0.95160000  0.37900000  1.0 -0.6476405733
O  O10  1  0.75030000  0.04840000  0.62100000  1.0 -0.6476405733
O  O11  1  0.95110000  0.15590000  0.40480000  1.0 -0.7823567563
O  O12  1  0.04890000  0.84410000  0.59520000  1.0 -0.7823567563
O  O13  1  0.71750000  0.35260000  0.20030000  1.0 -0.678170728
O  O14  1  0.28250000  0.64740000  0.79970000  1.0 -0.678170728
O  O15  1  0.90640000  0.50430000  0.21650000  1.0 -0.678170728
O  O16  1  0.09360000  0.49570000  0.78350000  1.0 -0.678170728
O  O17  1  0.10790000  0.56510000  0.03200000  1.0 -0.7192829126
O  O18  1  0.89210000  0.43490000  0.96800000  1.0 -0.7128083282
O  O19  1  0.10800000  0.14770000  0.55630000  1.0 -0.734358477
O  O20  1  0.89200000  0.85230000  0.44370000  1.0 -0.7381877774
O  O21  1  0.73370000  0.08970000  0.25340000  1.0 -0.6865240806
O  O22  1  0.26630000  0.91030000  0.74660000  1.0 -0.6865240806
O  O23  1  0.88810000  0.77110000  0.19560000  1.0 -0.6671338403
O  O24  1  0.11190000  0.22890000  0.80440000  1.0 -0.6671338403
