# DDEC6 charges by PACMAN v1.1 (https://github.com/mtap-research/PACMAN-charge/)
data_JOVDON_FSR_pacman
_symmetry_space_group_name_H-M   'P 1'
_cell_length_a   6.67300000
_cell_length_b   14.04400000
_cell_length_c   23.82500000
_cell_angle_alpha   90.00000000
_cell_angle_beta   90.00000000
_cell_angle_gamma   90.00000000
_symmetry_Int_Tables_number   1
_chemical_formula_structural   CeH8(CO2)5
_chemical_formula_sum   'Ce8 H64 C40 O80'
_cell_volume   2232.77445590
_cell_formula_units_Z   8
loop_
 _symmetry_equiv_pos_site_id
 _symmetry_equiv_pos_as_xyz
  1  'x, y, z'
loop_
 _atom_site_type_symbol
 _atom_site_label
 _atom_site_symmetry_multiplicity
 _atom_site_fract_x
 _atom_site_fract_y
 _atom_site_fract_z
 _atom_site_occupancy
 _atom_site_charge
Ce  Ce1  1  0.11856000  0.29434000  0.36608000  1.0 1.9588661752
Ce  Ce2  1  0.61856000  0.20566000  0.13392000  1.0 1.9588661752
Ce  Ce3  1  0.88144000  0.20566000  0.86608000  1.0 1.9588661752
Ce  Ce4  1  0.38144000  0.29434000  0.63392000  1.0 1.9588661752
Ce  Ce5  1  0.88144000  0.70566000  0.63392000  1.0 1.9588661752
Ce  Ce6  1  0.38144000  0.79434000  0.86608000  1.0 1.9588661752
Ce  Ce7  1  0.11856000  0.79434000  0.13392000  1.0 1.9588661752
Ce  Ce8  1  0.61856000  0.70566000  0.36608000  1.0 1.9588661752
H  H1  1  0.08200000  0.08400000  0.38900000  1.0 0.4002512851
H  H2  1  0.58200000  0.41600000  0.11100000  1.0 0.4002512851
H  H3  1  0.91800000  0.41600000  0.88900000  1.0 0.4002512851
H  H4  1  0.41800000  0.08400000  0.61100000  1.0 0.4002512851
H  H5  1  0.91800000  0.91600000  0.61100000  1.0 0.4002512851
H  H6  1  0.41800000  0.58400000  0.88900000  1.0 0.4002512851
H  H7  1  0.08200000  0.58400000  0.11100000  1.0 0.4002512851
H  H8  1  0.58200000  0.91600000  0.38900000  1.0 0.4002512851
H  H9  1  0.08200000  0.12400000  0.45700000  1.0 0.4002512851
H  H10  1  0.58200000  0.37600000  0.04300000  1.0 0.4002512851
H  H11  1  0.91800000  0.37600000  0.95700000  1.0 0.4002512851
H  H12  1  0.41800000  0.12400000  0.54300000  1.0 0.4002512851
H  H13  1  0.91800000  0.87600000  0.54300000  1.0 0.4052172266
H  H14  1  0.41800000  0.62400000  0.95700000  1.0 0.4002512851
H  H15  1  0.08200000  0.62400000  0.04300000  1.0 0.4002512851
H  H16  1  0.58200000  0.87600000  0.45700000  1.0 0.4002512851
H  H17  1  0.41600000  0.23100000  0.27700000  1.0 0.3821565322
H  H18  1  0.91600000  0.26900000  0.22300000  1.0 0.3821565322
H  H19  1  0.58400000  0.26900000  0.77700000  1.0 0.3821565322
H  H20  1  0.08400000  0.23100000  0.72300000  1.0 0.3821565322
H  H21  1  0.58400000  0.76900000  0.72300000  1.0 0.3821565322
H  H22  1  0.08400000  0.73100000  0.77700000  1.0 0.3821565322
H  H23  1  0.41600000  0.73100000  0.22300000  1.0 0.3821565322
H  H24  1  0.91600000  0.76900000  0.27700000  1.0 0.3821565322
H  H25  1  0.45700000  0.14500000  0.33400000  1.0 0.4002512851
H  H26  1  0.95700000  0.35500000  0.16600000  1.0 0.4002512851
H  H27  1  0.54300000  0.35500000  0.83400000  1.0 0.4002512851
H  H28  1  0.04300000  0.14500000  0.66600000  1.0 0.4002512851
H  H29  1  0.54300000  0.85500000  0.66600000  1.0 0.4002512851
H  H30  1  0.04300000  0.64500000  0.83400000  1.0 0.4002512851
H  H31  1  0.45700000  0.64500000  0.16600000  1.0 0.4002512851
H  H32  1  0.95700000  0.85500000  0.33400000  1.0 0.4002512851
H  H33  1  0.12600000  0.48100000  0.43200000  1.0 0.3206067719
H  H34  1  0.62600000  0.01900000  0.06800000  1.0 0.3206067719
H  H35  1  0.87400000  0.01900000  0.93200000  1.0 0.3206067719
H  H36  1  0.37400000  0.48100000  0.56800000  1.0 0.3206067719
H  H37  1  0.87400000  0.51900000  0.56800000  1.0 0.3206067719
H  H38  1  0.37400000  0.98100000  0.93200000  1.0 0.3206067719
H  H39  1  0.12600000  0.98100000  0.06800000  1.0 0.3206067719
H  H40  1  0.62600000  0.51900000  0.43200000  1.0 0.3206067719
H  H41  1  0.99900000  0.50000000  0.39100000  1.0 0.3206067719
H  H42  1  0.49900000  0.00000000  0.10900000  1.0 0.3206067719
H  H43  1  0.00100000  0.00000000  0.89100000  1.0 0.3206067719
H  H44  1  0.50100000  0.50000000  0.60900000  1.0 0.3206067719
H  H45  1  0.00100000  0.50000000  0.60900000  1.0 0.3206067719
H  H46  1  0.50100000  0.00000000  0.89100000  1.0 0.3206067719
H  H47  1  0.99900000  0.00000000  0.10900000  1.0 0.3206067719
H  H48  1  0.49900000  0.50000000  0.39100000  1.0 0.3206067719
H  H49  1  0.70000000  0.28100000  0.41300000  1.0 0.4256330691
H  H50  1  0.20000000  0.21900000  0.08700000  1.0 0.4256330691
H  H51  1  0.30000000  0.21900000  0.91300000  1.0 0.4256330691
H  H52  1  0.80000000  0.28100000  0.58700000  1.0 0.4256330691
H  H53  1  0.30000000  0.71900000  0.58700000  1.0 0.4256330691
H  H54  1  0.80000000  0.78100000  0.91300000  1.0 0.4256330691
H  H55  1  0.70000000  0.78100000  0.08700000  1.0 0.4256330691
H  H56  1  0.20000000  0.71900000  0.41300000  1.0 0.4256330691
H  H57  1  0.62600000  0.29100000  0.34800000  1.0 0.389733877
H  H58  1  0.12600000  0.20900000  0.15200000  1.0 0.389733877
H  H59  1  0.37400000  0.20900000  0.84800000  1.0 0.389733877
H  H60  1  0.87400000  0.29100000  0.65200000  1.0 0.389733877
H  H61  1  0.37400000  0.70900000  0.65200000  1.0 0.389733877
H  H62  1  0.87400000  0.79100000  0.84800000  1.0 0.389733877
H  H63  1  0.62600000  0.79100000  0.15200000  1.0 0.389733877
H  H64  1  0.12600000  0.70900000  0.34800000  1.0 0.389733877
C  C1  1  0.97780000  0.10940000  0.26770000  1.0 0.1810789108
C  C2  1  0.47780000  0.39060000  0.23230000  1.0 0.1810789108
C  C3  1  0.02220000  0.39060000  0.76770000  1.0 0.1810789108
C  C4  1  0.52220000  0.10940000  0.73230000  1.0 0.1810789108
C  C5  1  0.02220000  0.89060000  0.73230000  1.0 0.1810789108
C  C6  1  0.52220000  0.60940000  0.76770000  1.0 0.1810789108
C  C7  1  0.97780000  0.60940000  0.23230000  1.0 0.1810789108
C  C8  1  0.47780000  0.89060000  0.26770000  1.0 0.1810789108
C  C9  1  0.94410000  0.06720000  0.21220000  1.0 0.1524403965
C  C10  1  0.44410000  0.43280000  0.28780000  1.0 0.1524403965
C  C11  1  0.05590000  0.43280000  0.71220000  1.0 0.1524403965
C  C12  1  0.55590000  0.06720000  0.78780000  1.0 0.1524403965
C  C13  1  0.05590000  0.93280000  0.78780000  1.0 0.1524403965
C  C14  1  0.55590000  0.56720000  0.71220000  1.0 0.1524403965
C  C15  1  0.94410000  0.56720000  0.28780000  1.0 0.1524403965
C  C16  1  0.44410000  0.93280000  0.21220000  1.0 0.1524403965
C  C17  1  0.98690000  0.97280000  0.23390000  1.0 0.1524403965
C  C18  1  0.48690000  0.52720000  0.26610000  1.0 0.1524403965
C  C19  1  0.01310000  0.52720000  0.73390000  1.0 0.1524403965
C  C20  1  0.51310000  0.97280000  0.76610000  1.0 0.1524403965
C  C21  1  0.01310000  0.02720000  0.76610000  1.0 0.1524403965
C  C22  1  0.51310000  0.47280000  0.73390000  1.0 0.1524403965
C  C23  1  0.98690000  0.47280000  0.26610000  1.0 0.1524403965
C  C24  1  0.48690000  0.02720000  0.23390000  1.0 0.1524403965
C  C25  1  0.01190000  0.01280000  0.29060000  1.0 0.1524403965
C  C26  1  0.51190000  0.48720000  0.20940000  1.0 0.1524403965
C  C27  1  0.98810000  0.48720000  0.79060000  1.0 0.1524403965
C  C28  1  0.48810000  0.01280000  0.70940000  1.0 0.1524403965
C  C29  1  0.98810000  0.98720000  0.70940000  1.0 0.1524403965
C  C30  1  0.48810000  0.51280000  0.79060000  1.0 0.1524403965
C  C31  1  0.01190000  0.51280000  0.20940000  1.0 0.1524403965
C  C32  1  0.51190000  0.98720000  0.29060000  1.0 0.1524403965
C  C33  1  0.13830000  0.29610000  0.50890000  1.0 0.4760017433
C  C34  1  0.63830000  0.20390000  0.99110000  1.0 0.4760017433
C  C35  1  0.86170000  0.20390000  0.00890000  1.0 0.4760017433
C  C36  1  0.36170000  0.29610000  0.49110000  1.0 0.4760017433
C  C37  1  0.86170000  0.70390000  0.49110000  1.0 0.4760017433
C  C38  1  0.36170000  0.79610000  0.00890000  1.0 0.4760017433
C  C39  1  0.13830000  0.79610000  0.99110000  1.0 0.4760017433
C  C40  1  0.63830000  0.70390000  0.50890000  1.0 0.4760017433
O  O1  1  0.97560000  0.19180000  0.28690000  1.0 -0.4757622704
O  O2  1  0.47560000  0.30820000  0.21310000  1.0 -0.4757622704
O  O3  1  0.02440000  0.30820000  0.78690000  1.0 -0.4757622704
O  O4  1  0.52440000  0.19180000  0.71310000  1.0 -0.4757622704
O  O5  1  0.02440000  0.80820000  0.71310000  1.0 -0.4757622704
O  O6  1  0.52440000  0.69180000  0.78690000  1.0 -0.4757622704
O  O7  1  0.97560000  0.69180000  0.21310000  1.0 -0.4757622704
O  O8  1  0.47560000  0.80820000  0.28690000  1.0 -0.4757622704
O  O9  1  0.89420000  0.09620000  0.16440000  1.0 -0.5042306222
O  O10  1  0.39420000  0.40380000  0.33560000  1.0 -0.5042306222
O  O11  1  0.10580000  0.40380000  0.66440000  1.0 -0.5042306222
O  O12  1  0.60580000  0.09620000  0.83560000  1.0 -0.5042306222
O  O13  1  0.10580000  0.90380000  0.83560000  1.0 -0.5042306222
O  O14  1  0.60580000  0.59620000  0.66440000  1.0 -0.5042306222
O  O15  1  0.89420000  0.59620000  0.33560000  1.0 -0.5042306222
O  O16  1  0.39420000  0.90380000  0.16440000  1.0 -0.5042306222
O  O17  1  0.99550000  0.89010000  0.21410000  1.0 -0.5146558918
O  O18  1  0.49550000  0.60990000  0.28590000  1.0 -0.5146558918
O  O19  1  0.00450000  0.60990000  0.71410000  1.0 -0.5146558918
O  O20  1  0.50450000  0.89010000  0.78590000  1.0 -0.5146558918
O  O21  1  0.00450000  0.10990000  0.78590000  1.0 -0.5146558918
O  O22  1  0.50450000  0.39010000  0.71410000  1.0 -0.5146558918
O  O23  1  0.99550000  0.39010000  0.28590000  1.0 -0.5146558918
O  O24  1  0.49550000  0.10990000  0.21410000  1.0 -0.5146558918
O  O25  1  0.04420000  0.97920000  0.33780000  1.0 -0.3455216475
O  O26  1  0.54420000  0.52080000  0.16220000  1.0 -0.3455216475
O  O27  1  0.95580000  0.52080000  0.83780000  1.0 -0.3455216475
O  O28  1  0.45580000  0.97920000  0.66220000  1.0 -0.3455216475
O  O29  1  0.95580000  0.02080000  0.66220000  1.0 -0.3455216475
O  O30  1  0.45580000  0.47920000  0.83780000  1.0 -0.3455216475
O  O31  1  0.04420000  0.47920000  0.16220000  1.0 -0.3455216475
O  O32  1  0.54420000  0.02080000  0.33780000  1.0 -0.3455216475
O  O33  1  0.01210000  0.29340000  0.47080000  1.0 -0.5531853475
O  O34  1  0.51210000  0.20660000  0.02920000  1.0 -0.5531853475
O  O35  1  0.98790000  0.20660000  0.97080000  1.0 -0.5531853475
O  O36  1  0.48790000  0.29340000  0.52920000  1.0 -0.5531853475
O  O37  1  0.98790000  0.70660000  0.52920000  1.0 -0.5531853475
O  O38  1  0.48790000  0.79340000  0.97080000  1.0 -0.5531853475
O  O39  1  0.01210000  0.79340000  0.02920000  1.0 -0.5531853475
O  O40  1  0.51210000  0.70660000  0.47080000  1.0 -0.5531853475
O  O41  1  0.10470000  0.30010000  0.56070000  1.0 -0.5793960132
O  O42  1  0.60470000  0.19990000  0.93930000  1.0 -0.5793960132
O  O43  1  0.89530000  0.19990000  0.06070000  1.0 -0.5793960132
O  O44  1  0.39530000  0.30010000  0.43930000  1.0 -0.5793960132
O  O45  1  0.89530000  0.69990000  0.43930000  1.0 -0.5793960132
O  O46  1  0.39530000  0.80010000  0.06070000  1.0 -0.5793960132
O  O47  1  0.10470000  0.80010000  0.93930000  1.0 -0.5793960132
O  O48  1  0.60470000  0.69990000  0.56070000  1.0 -0.5793960132
O  O49  1  0.12070000  0.12820000  0.40410000  1.0 -0.80480716
O  O50  1  0.62070000  0.37180000  0.09590000  1.0 -0.80480716
O  O51  1  0.87930000  0.37180000  0.90410000  1.0 -0.80480716
O  O52  1  0.37930000  0.12820000  0.59590000  1.0 -0.80480716
O  O53  1  0.87930000  0.87180000  0.59590000  1.0 -0.80480716
O  O54  1  0.37930000  0.62820000  0.90410000  1.0 -0.80480716
O  O55  1  0.12070000  0.62820000  0.09590000  1.0 -0.80480716
O  O56  1  0.62070000  0.87180000  0.40410000  1.0 -0.80480716
O  O57  1  0.41460000  0.20410000  0.31960000  1.0 -0.8238895871
O  O58  1  0.91460000  0.29590000  0.18040000  1.0 -0.8238895871
O  O59  1  0.58540000  0.29590000  0.81960000  1.0 -0.8238895871
O  O60  1  0.08540000  0.20410000  0.68040000  1.0 -0.8238895871
O  O61  1  0.58540000  0.79590000  0.68040000  1.0 -0.8238895871
O  O62  1  0.08540000  0.70410000  0.81960000  1.0 -0.8238895871
O  O63  1  0.41460000  0.70410000  0.18040000  1.0 -0.8238895871
O  O64  1  0.91460000  0.79590000  0.31960000  1.0 -0.8238895871
O  O65  1  0.03940000  0.45940000  0.40660000  1.0 -0.6880415119
O  O66  1  0.53940000  0.04060000  0.09340000  1.0 -0.6880415119
O  O67  1  0.96060000  0.04060000  0.90660000  1.0 -0.6880415119
O  O68  1  0.46060000  0.45940000  0.59340000  1.0 -0.6880415119
O  O69  1  0.96060000  0.54060000  0.59340000  1.0 -0.6880415119
O  O70  1  0.46060000  0.95940000  0.90660000  1.0 -0.6880415119
O  O71  1  0.03940000  0.95940000  0.09340000  1.0 -0.6880415119
O  O72  1  0.53940000  0.54060000  0.40660000  1.0 -0.6880415119
O  O73  1  0.74960000  0.27970000  0.37910000  1.0 -0.8238895871
O  O74  1  0.24960000  0.22030000  0.12090000  1.0 -0.8238895871
O  O75  1  0.25040000  0.22030000  0.87910000  1.0 -0.8238895871
O  O76  1  0.75040000  0.27970000  0.62090000  1.0 -0.8238895871
O  O77  1  0.25040000  0.72030000  0.62090000  1.0 -0.8238895871
O  O78  1  0.75040000  0.77970000  0.87910000  1.0 -0.8238895871
O  O79  1  0.74960000  0.77970000  0.12090000  1.0 -0.8238895871
O  O80  1  0.24960000  0.72030000  0.37910000  1.0 -0.8238895871
