# DDEC6 charges by PACMAN v1.1 (https://github.com/mtap-research/PACMAN-charge/)
data_JOVWOI_FSR_pacman
_symmetry_space_group_name_H-M   'P 1'
_cell_length_a   9.05700000
_cell_length_b   12.60600000
_cell_length_c   14.62300000
_cell_angle_alpha   89.54700000
_cell_angle_beta   93.47000000
_cell_angle_gamma   107.48800000
_symmetry_Int_Tables_number   1
_chemical_formula_structural   Al5Fe2P8O33
_chemical_formula_sum   'Al10 Fe4 P16 O66'
_cell_volume   1589.36642867
_cell_formula_units_Z   2
loop_
 _symmetry_equiv_pos_site_id
 _symmetry_equiv_pos_as_xyz
  1  'x, y, z'
loop_
 _atom_site_type_symbol
 _atom_site_label
 _atom_site_symmetry_multiplicity
 _atom_site_fract_x
 _atom_site_fract_y
 _atom_site_fract_z
 _atom_site_occupancy
 _atom_site_charge
Al  Al1  1  0.04650000  0.63365000  0.88787000  1.0 1.7550462203
Al  Al2  1  0.95350000  0.36635000  0.11213000  1.0 1.7541976886
Al  Al3  1  0.05890000  0.14690000  0.87925000  1.0 1.8015314854
Al  Al4  1  0.94110000  0.85310000  0.12075000  1.0 1.8015314854
Al  Al5  1  0.68940000  0.80924000  0.74778000  1.0 1.8219372945
Al  Al6  1  0.31060000  0.19076000  0.25222000  1.0 1.8219372945
Al  Al7  1  0.06260000  0.62777000  0.63894000  1.0 1.7673512417
Al  Al8  1  0.93740000  0.37223000  0.36106000  1.0 1.7673512417
Al  Al9  1  0.68050000  0.31380000  0.73710000  1.0 1.7939367013
Al  Al10  1  0.31950000  0.68620000  0.26290000  1.0 1.8015314854
Fe  Fe1  1  0.18119000  0.93747000  0.76027000  1.0 1.2430506068
Fe  Fe2  1  0.81881000  0.06253000  0.23973000  1.0 1.2430506068
Fe  Fe3  1  0.03642000  0.19497000  0.60570000  1.0 1.3429374414
Fe  Fe4  1  0.96358000  0.80503000  0.39430000  1.0 1.3471331315
P  P1  1  0.32880000  0.76241000  0.78140000  1.0 1.5419306474
P  P2  1  0.67120000  0.23759000  0.21860000  1.0 1.532667728
P  P3  1  0.76730000  0.07424000  0.72950000  1.0 1.5419306474
P  P4  1  0.23270000  0.92576000  0.27050000  1.0 1.5419306474
P  P5  1  0.86180000  0.38032000  0.56651000  1.0 1.5531628248
P  P6  1  0.13820000  0.61968000  0.43349000  1.0 1.5553698259
P  P7  1  0.78630000  0.57780000  0.78374000  1.0 1.5693390883
P  P8  1  0.21370000  0.42220000  0.21626000  1.0 1.5806466457
P  P9  1  0.31850000  0.19423000  0.74348000  1.0 1.5195960122
P  P10  1  0.68150000  0.80577000  0.25652000  1.0 1.5195960122
P  P11  1  0.96080000  0.36626000  0.89558000  1.0 1.5693390883
P  P12  1  0.03920000  0.63374000  0.10442000  1.0 1.5693390883
P  P13  1  0.96230000  0.86968000  0.90148000  1.0 1.5806466457
P  P14  1  0.03770000  0.13032000  0.09852000  1.0 1.5806466457
P  P15  1  0.91730000  0.82930000  0.59800000  1.0 1.5531628248
P  P16  1  0.08270000  0.17070000  0.40200000  1.0 1.5531628248
O  O1  1  0.25280000  0.68030000  0.85620000  1.0 -0.7319928167
O  O2  1  0.74720000  0.31970000  0.14380000  1.0 -0.7319928167
O  O3  1  0.95770000  0.61090000  0.75430000  1.0 -0.8205332441
O  O4  1  0.04230000  0.38910000  0.24570000  1.0 -0.8205332441
O  O5  1  0.71590000  0.32430000  0.61780000  1.0 -0.7825952155
O  O6  1  0.28410000  0.67570000  0.38220000  1.0 -0.7825952155
O  O7  1  0.94780000  0.71750000  0.59520000  1.0 -0.7894334329
O  O8  1  0.05220000  0.28250000  0.40480000  1.0 -0.7894334329
O  O9  1  0.06050000  0.48680000  0.87680000  1.0 -0.7391700877
O  O10  1  0.93950000  0.51320000  0.12320000  1.0 -0.7391700877
O  O11  1  0.79840000  0.84930000  0.85650000  1.0 -0.7825952155
O  O12  1  0.20160000  0.15070000  0.14350000  1.0 -0.7825952155
O  O13  1  0.22280000  0.74170000  0.69380000  1.0 -0.8106665693
O  O14  1  0.77720000  0.25830000  0.30620000  1.0 -0.8106665693
O  O15  1  0.16420000  0.51670000  0.69660000  1.0 0.2613015639
O  O16  1  0.83580000  0.48330000  0.30340000  1.0 0.2809377628
O  O17  1  0.90770000  0.50460000  0.58610000  1.0 -0.7694846792
O  O18  1  0.09230000  0.49540000  0.41390000  1.0 -0.7694846792
O  O19  1  0.07100000  0.98210000  0.86610000  1.0 -0.7694846792
O  O20  1  0.92900000  0.01790000  0.13390000  1.0 -0.7632924003
O  O21  1  0.24760000  0.18160000  0.83600000  1.0 -0.7954916043
O  O22  1  0.75240000  0.81840000  0.16400000  1.0 -0.7954916043
O  O23  1  0.03570000  0.78220000  0.87400000  1.0 -0.8106665693
O  O24  1  0.96430000  0.21780000  0.12600000  1.0 -0.8106665693
O  O25  1  0.68780000  0.46650000  0.74560000  1.0 -0.750502987
O  O26  1  0.31220000  0.53350000  0.25440000  1.0 -0.750502987
O  O27  1  0.90000000  0.35670000  0.99080000  1.0 -0.7894334329
O  O28  1  0.10000000  0.64330000  0.00920000  1.0 -0.7894334329
O  O29  1  0.82120000  0.35540000  0.46440000  1.0 -0.7825952155
O  O30  1  0.17880000  0.64460000  0.53560000  1.0 -0.7825952155
O  O31  1  0.82000000  0.57810000  0.88920000  1.0 -0.7391700877
O  O32  1  0.18000000  0.42190000  0.11080000  1.0 -0.7391700877
O  O33  1  0.70630000  0.66230000  0.75320000  1.0 -0.7319928167
O  O34  1  0.29370000  0.33770000  0.24680000  1.0 -0.7319928167
O  O35  1  0.66870000  0.95460000  0.73230000  1.0 -0.7391700877
O  O36  1  0.33130000  0.04540000  0.26770000  1.0 -0.7391700877
O  O37  1  0.99510000  0.33510000  0.60200000  1.0 -0.7391700877
O  O38  1  0.00490000  0.66490000  0.39800000  1.0 -0.7391700877
O  O39  1  0.66120000  0.14860000  0.73400000  1.0 -0.690189792
O  O40  1  0.33880000  0.85140000  0.26600000  1.0 -0.690189792
O  O41  1  0.48660000  0.74900000  0.76640000  1.0 -0.7694846792
O  O42  1  0.51340000  0.25100000  0.23360000  1.0 -0.7694846792
O  O43  1  0.95350000  0.87940000  0.00410000  1.0 -0.750502987
O  O44  1  0.04650000  0.12060000  0.99590000  1.0 -0.750502987
O  O45  1  0.34900000  0.88260000  0.81250000  1.0 -0.7020344419
O  O46  1  0.65100000  0.11740000  0.18750000  1.0 -0.7020344419
O  O47  1  0.06460000  0.29190000  0.88520000  1.0 -0.7825952155
O  O48  1  0.93540000  0.70810000  0.11480000  1.0 -0.7825952155
O  O49  1  0.88300000  0.10100000  0.81160000  1.0 -0.8205332441
O  O50  1  0.11700000  0.89900000  0.18840000  1.0 -0.8205332441
O  O51  1  0.84930000  0.09560000  0.64000000  1.0 -0.7319928167
O  O52  1  0.15070000  0.90440000  0.36000000  1.0 -0.7319928167
O  O53  1  0.82130000  0.33010000  0.82790000  1.0 -0.8106665693
O  O54  1  0.17870000  0.66990000  0.17210000  1.0 -0.8106665693
O  O55  1  0.75370000  0.81450000  0.62980000  1.0 -0.750502987
O  O56  1  0.24630000  0.18550000  0.37020000  1.0 -0.750502987
O  O57  1  0.48140000  0.27590000  0.75630000  1.0 -0.750502987
O  O58  1  0.51860000  0.72410000  0.24370000  1.0 -0.750502987
O  O59  1  0.91950000  0.87370000  0.49890000  1.0 -0.6777222735
O  O60  1  0.08050000  0.12630000  0.50110000  1.0 -0.6777222735
O  O61  1  0.03850000  0.91430000  0.65750000  1.0 -0.7319928167
O  O62  1  0.96150000  0.08570000  0.34250000  1.0 -0.7319928167
O  O63  1  0.22220000  0.24140000  0.67530000  1.0 -0.690189792
O  O64  1  0.77780000  0.75860000  0.32470000  1.0 -0.690189792
O  O65  1  0.32030000  0.08120000  0.71170000  1.0 -0.7020344419
O  O66  1  0.67970000  0.91880000  0.28830000  1.0 -0.7052694244
