# DDEC6 charges by PACMAN v1.1 (https://github.com/mtap-research/PACMAN-charge/)
data_JOWQUK_ASR_pacman
_symmetry_space_group_name_H-M   'P 1'
_cell_length_a   37.21500000
_cell_length_b   37.21500000
_cell_length_c   37.21500000
_cell_angle_alpha   60.00000000
_cell_angle_beta   60.00000000
_cell_angle_gamma   60.00000000
_symmetry_Int_Tables_number   1
_chemical_formula_structural   CuH18C29NO4
_chemical_formula_sum   'Cu12 H216 C348 N12 O48'
_cell_volume   36445.09378547
_cell_formula_units_Z   12
loop_
 _symmetry_equiv_pos_site_id
 _symmetry_equiv_pos_as_xyz
  1  'x, y, z'
loop_
 _atom_site_type_symbol
 _atom_site_label
 _atom_site_symmetry_multiplicity
 _atom_site_fract_x
 _atom_site_fract_y
 _atom_site_fract_z
 _atom_site_occupancy
 _atom_site_charge
Cu  Cu1  1  0.36786000  0.36786000  0.63214000  1.0 0.8617558636
Cu  Cu2  1  0.31786000  0.31786000  0.68214000  1.0 0.8731506921
Cu  Cu3  1  0.63214000  0.63214000  0.36786000  1.0 0.8617558636
Cu  Cu4  1  0.68214000  0.68214000  0.31786000  1.0 0.8750057675
Cu  Cu5  1  0.36786000  0.63214000  0.36786000  1.0 0.8617558636
Cu  Cu6  1  0.31786000  0.68214000  0.31786000  1.0 0.8750057675
Cu  Cu7  1  0.63214000  0.36786000  0.63214000  1.0 0.8617558636
Cu  Cu8  1  0.68214000  0.31786000  0.68214000  1.0 0.8731506921
Cu  Cu9  1  0.63214000  0.36786000  0.36786000  1.0 0.8617558636
Cu  Cu10  1  0.68214000  0.31786000  0.31786000  1.0 0.8750057675
Cu  Cu11  1  0.36786000  0.63214000  0.63214000  1.0 0.8617558636
Cu  Cu12  1  0.31786000  0.68214000  0.68214000  1.0 0.8731506921
H  H1  1  0.11390000  0.56070000  0.50470000  1.0 0.1103864687
H  H2  1  0.05120000  0.56040000  0.50360000  1.0 0.0905824745
H  H3  1  0.99920000  0.50580000  0.55880000  1.0 0.0905824745
H  H4  1  0.50470000  0.82070000  0.11390000  1.0 0.1103864687
H  H5  1  0.50360000  0.88480000  0.05120000  1.0 0.0905824745
H  H6  1  0.55880000  0.93620000  0.99920000  1.0 0.0905824745
H  H7  1  0.56070000  0.11390000  0.82070000  1.0 0.1103864687
H  H8  1  0.56040000  0.05120000  0.88480000  1.0 0.0905824745
H  H9  1  0.50580000  0.99920000  0.93620000  1.0 0.0905824745
H  H10  1  0.82070000  0.50470000  0.56070000  1.0 0.1103864687
H  H11  1  0.88480000  0.50360000  0.56040000  1.0 0.0905824745
H  H12  1  0.93620000  0.55880000  0.50580000  1.0 0.0905824745
H  H13  1  0.56070000  0.50470000  0.11390000  1.0 0.1103864687
H  H14  1  0.56040000  0.50360000  0.05120000  1.0 0.0905824745
H  H15  1  0.50580000  0.55880000  0.99920000  1.0 0.0905824745
H  H16  1  0.82070000  0.11390000  0.50470000  1.0 0.1103864687
H  H17  1  0.88480000  0.05120000  0.50360000  1.0 0.0905824745
H  H18  1  0.93620000  0.99920000  0.55880000  1.0 0.0905824745
H  H19  1  0.11390000  0.82070000  0.56070000  1.0 0.1103864687
H  H20  1  0.05120000  0.88480000  0.56040000  1.0 0.0905824745
H  H21  1  0.99920000  0.93620000  0.50580000  1.0 0.0905824745
H  H22  1  0.50470000  0.56070000  0.82070000  1.0 0.1103864687
H  H23  1  0.50360000  0.56040000  0.88480000  1.0 0.0905824745
H  H24  1  0.55880000  0.50580000  0.93620000  1.0 0.0905824745
H  H25  1  0.50470000  0.11390000  0.56070000  1.0 0.1103864687
H  H26  1  0.50360000  0.05120000  0.56040000  1.0 0.0905824745
H  H27  1  0.55880000  0.99920000  0.50580000  1.0 0.0905824745
H  H28  1  0.11390000  0.50470000  0.82070000  1.0 0.1103864687
H  H29  1  0.05120000  0.50360000  0.88480000  1.0 0.0905824745
H  H30  1  0.99920000  0.55880000  0.93620000  1.0 0.0905824745
H  H31  1  0.82070000  0.56070000  0.11390000  1.0 0.1103864687
H  H32  1  0.88480000  0.56040000  0.05120000  1.0 0.0905824745
H  H33  1  0.93620000  0.50580000  0.99920000  1.0 0.0905824745
H  H34  1  0.56070000  0.82070000  0.50470000  1.0 0.1103864687
H  H35  1  0.56040000  0.88480000  0.50360000  1.0 0.0905824745
H  H36  1  0.50580000  0.93620000  0.55880000  1.0 0.0905824745
H  H37  1  0.88610000  0.17930000  0.49530000  1.0 0.1103864687
H  H38  1  0.94880000  0.11520000  0.49640000  1.0 0.0905824745
H  H39  1  0.00080000  0.06380000  0.44120000  1.0 0.0905824745
H  H40  1  0.49530000  0.43930000  0.88610000  1.0 0.1103864687
H  H41  1  0.49640000  0.43960000  0.94880000  1.0 0.0905824745
H  H42  1  0.44120000  0.49420000  0.00080000  1.0 0.0905824745
H  H43  1  0.43930000  0.49530000  0.17930000  1.0 0.1103864687
H  H44  1  0.43960000  0.49640000  0.11520000  1.0 0.0905824745
H  H45  1  0.49420000  0.44120000  0.06380000  1.0 0.0905824745
H  H46  1  0.17930000  0.88610000  0.43930000  1.0 0.1103864687
H  H47  1  0.11520000  0.94880000  0.43960000  1.0 0.0905824745
H  H48  1  0.06380000  0.00080000  0.49420000  1.0 0.0905824745
H  H49  1  0.43930000  0.17930000  0.88610000  1.0 0.1103864687
H  H50  1  0.43960000  0.11520000  0.94880000  1.0 0.0905824745
H  H51  1  0.49420000  0.06380000  0.00080000  1.0 0.0905824745
H  H52  1  0.17930000  0.43930000  0.49530000  1.0 0.1103864687
H  H53  1  0.11520000  0.43960000  0.49640000  1.0 0.0905824745
H  H54  1  0.06380000  0.49420000  0.44120000  1.0 0.0905824745
H  H55  1  0.88610000  0.49530000  0.43930000  1.0 0.1103864687
H  H56  1  0.94880000  0.49640000  0.43960000  1.0 0.0905824745
H  H57  1  0.00080000  0.44120000  0.49420000  1.0 0.0905824745
H  H58  1  0.49530000  0.88610000  0.17930000  1.0 0.1103864687
H  H59  1  0.49640000  0.94880000  0.11520000  1.0 0.0905824745
H  H60  1  0.44120000  0.00080000  0.06380000  1.0 0.0905824745
H  H61  1  0.49530000  0.17930000  0.43930000  1.0 0.1103864687
H  H62  1  0.49640000  0.11520000  0.43960000  1.0 0.0905824745
H  H63  1  0.44120000  0.06380000  0.49420000  1.0 0.0905824745
H  H64  1  0.88610000  0.43930000  0.17930000  1.0 0.1103864687
H  H65  1  0.94880000  0.43960000  0.11520000  1.0 0.0905824745
H  H66  1  0.00080000  0.49420000  0.06380000  1.0 0.0905824745
H  H67  1  0.17930000  0.49530000  0.88610000  1.0 0.1103864687
H  H68  1  0.11520000  0.49640000  0.94880000  1.0 0.0905824745
H  H69  1  0.06380000  0.44120000  0.00080000  1.0 0.0905824745
H  H70  1  0.43930000  0.88610000  0.49530000  1.0 0.1103864687
H  H71  1  0.43960000  0.94880000  0.49640000  1.0 0.0905824745
H  H72  1  0.49420000  0.00080000  0.44120000  1.0 0.0905824745
H  H73  1  0.88610000  0.43930000  0.49530000  1.0 0.1103864687
H  H74  1  0.94880000  0.43960000  0.49640000  1.0 0.0905824745
H  H75  1  0.00080000  0.49420000  0.44120000  1.0 0.0905824745
H  H76  1  0.49530000  0.17930000  0.88610000  1.0 0.1103864687
H  H77  1  0.49640000  0.11520000  0.94880000  1.0 0.0905824745
H  H78  1  0.44120000  0.06380000  0.00080000  1.0 0.0905824745
H  H79  1  0.43930000  0.88610000  0.17930000  1.0 0.1103864687
H  H80  1  0.43960000  0.94880000  0.11520000  1.0 0.0905824745
H  H81  1  0.49420000  0.00080000  0.06380000  1.0 0.0905824745
H  H82  1  0.17930000  0.49530000  0.43930000  1.0 0.1103864687
H  H83  1  0.11520000  0.49640000  0.43960000  1.0 0.0905824745
H  H84  1  0.06380000  0.44120000  0.49420000  1.0 0.0905824745
H  H85  1  0.43930000  0.49530000  0.88610000  1.0 0.1103864687
H  H86  1  0.43960000  0.49640000  0.94880000  1.0 0.0905824745
H  H87  1  0.49420000  0.44120000  0.00080000  1.0 0.0905824745
H  H88  1  0.17930000  0.88610000  0.49530000  1.0 0.1103864687
H  H89  1  0.11520000  0.94880000  0.49640000  1.0 0.0905824745
H  H90  1  0.06380000  0.00080000  0.44120000  1.0 0.0905824745
H  H91  1  0.88610000  0.17930000  0.43930000  1.0 0.1103864687
H  H92  1  0.94880000  0.11520000  0.43960000  1.0 0.0905824745
H  H93  1  0.00080000  0.06380000  0.49420000  1.0 0.0905824745
H  H94  1  0.49530000  0.43930000  0.17930000  1.0 0.1103864687
H  H95  1  0.49640000  0.43960000  0.11520000  1.0 0.0905824745
H  H96  1  0.44120000  0.49420000  0.06380000  1.0 0.0905824745
H  H97  1  0.49530000  0.88610000  0.43930000  1.0 0.1103864687
H  H98  1  0.49640000  0.94880000  0.43960000  1.0 0.0905824745
H  H99  1  0.44120000  0.00080000  0.49420000  1.0 0.0905824745
H  H100  1  0.88610000  0.49530000  0.17930000  1.0 0.1103864687
H  H101  1  0.94880000  0.49640000  0.11520000  1.0 0.0905824745
H  H102  1  0.00080000  0.44120000  0.06380000  1.0 0.0905824745
H  H103  1  0.17930000  0.43930000  0.88610000  1.0 0.1103864687
H  H104  1  0.11520000  0.43960000  0.94880000  1.0 0.0905824745
H  H105  1  0.06380000  0.49420000  0.00080000  1.0 0.0905824745
H  H106  1  0.43930000  0.17930000  0.49530000  1.0 0.1103864687
H  H107  1  0.43960000  0.11520000  0.49640000  1.0 0.0905824745
H  H108  1  0.49420000  0.06380000  0.44120000  1.0 0.0905824745
H  H109  1  0.11390000  0.82070000  0.50470000  1.0 0.1103864687
H  H110  1  0.05120000  0.88480000  0.50360000  1.0 0.0905824745
H  H111  1  0.99920000  0.93620000  0.55880000  1.0 0.0905824745
H  H112  1  0.50470000  0.56070000  0.11390000  1.0 0.1103864687
H  H113  1  0.50360000  0.56040000  0.05120000  1.0 0.0905824745
H  H114  1  0.55880000  0.50580000  0.99920000  1.0 0.0905824745
H  H115  1  0.56070000  0.50470000  0.82070000  1.0 0.1103864687
H  H116  1  0.56040000  0.50360000  0.88480000  1.0 0.0905824745
H  H117  1  0.50580000  0.55880000  0.93620000  1.0 0.0905824745
H  H118  1  0.82070000  0.11390000  0.56070000  1.0 0.1103864687
H  H119  1  0.88480000  0.05120000  0.56040000  1.0 0.0905824745
H  H120  1  0.93620000  0.99920000  0.50580000  1.0 0.0905824745
H  H121  1  0.56070000  0.82070000  0.11390000  1.0 0.1103864687
H  H122  1  0.56040000  0.88480000  0.05120000  1.0 0.0905824745
H  H123  1  0.50580000  0.93620000  0.99920000  1.0 0.0905824745
H  H124  1  0.82070000  0.56070000  0.50470000  1.0 0.1103864687
H  H125  1  0.88480000  0.56040000  0.50360000  1.0 0.0905824745
H  H126  1  0.93620000  0.50580000  0.55880000  1.0 0.0905824745
H  H127  1  0.11390000  0.50470000  0.56070000  1.0 0.1103864687
H  H128  1  0.05120000  0.50360000  0.56040000  1.0 0.0905824745
H  H129  1  0.99920000  0.55880000  0.50580000  1.0 0.0905824745
H  H130  1  0.50470000  0.11390000  0.82070000  1.0 0.1103864687
H  H131  1  0.50360000  0.05120000  0.88480000  1.0 0.0905824745
H  H132  1  0.55880000  0.99920000  0.93620000  1.0 0.0905824745
H  H133  1  0.50470000  0.82070000  0.56070000  1.0 0.1103864687
H  H134  1  0.50360000  0.88480000  0.56040000  1.0 0.0905824745
H  H135  1  0.55880000  0.93620000  0.50580000  1.0 0.0905824745
H  H136  1  0.11390000  0.56070000  0.82070000  1.0 0.1103864687
H  H137  1  0.05120000  0.56040000  0.88480000  1.0 0.0905824745
H  H138  1  0.99920000  0.50580000  0.93620000  1.0 0.0905824745
H  H139  1  0.82070000  0.50470000  0.11390000  1.0 0.1103864687
H  H140  1  0.88480000  0.50360000  0.05120000  1.0 0.0905824745
H  H141  1  0.93620000  0.55880000  0.99920000  1.0 0.0905824745
H  H142  1  0.56070000  0.11390000  0.50470000  1.0 0.1103864687
H  H143  1  0.56040000  0.05120000  0.50360000  1.0 0.0905824745
H  H144  1  0.50580000  0.99920000  0.55880000  1.0 0.0905824745
H  H145  1  0.29930000  0.46210000  0.53790000  1.0 0.1426035266
H  H146  1  0.17870000  0.42690000  0.57310000  1.0 0.1200983136
H  H147  1  0.22340000  0.38480000  0.61520000  1.0 0.127690303
H  H148  1  0.53790000  0.70070000  0.29930000  1.0 0.1426035266
H  H149  1  0.57310000  0.82130000  0.17870000  1.0 0.1200983136
H  H150  1  0.61520000  0.77660000  0.22340000  1.0 0.127690303
H  H151  1  0.46210000  0.29930000  0.70070000  1.0 0.1426035266
H  H152  1  0.42690000  0.17870000  0.82130000  1.0 0.1200983136
H  H153  1  0.38480000  0.22340000  0.77660000  1.0 0.127690303
H  H154  1  0.70070000  0.53790000  0.46210000  1.0 0.1426035266
H  H155  1  0.82130000  0.57310000  0.42690000  1.0 0.1200983136
H  H156  1  0.77660000  0.61520000  0.38480000  1.0 0.127690303
H  H157  1  0.46210000  0.53790000  0.29930000  1.0 0.1426035266
H  H158  1  0.42690000  0.57310000  0.17870000  1.0 0.1200983136
H  H159  1  0.38480000  0.61520000  0.22340000  1.0 0.127690303
H  H160  1  0.70070000  0.29930000  0.53790000  1.0 0.1426035266
H  H161  1  0.82130000  0.17870000  0.57310000  1.0 0.1200983136
H  H162  1  0.77660000  0.22340000  0.61520000  1.0 0.127690303
H  H163  1  0.29930000  0.70070000  0.46210000  1.0 0.1426035266
H  H164  1  0.17870000  0.82130000  0.42690000  1.0 0.1200983136
H  H165  1  0.22340000  0.77660000  0.38480000  1.0 0.127690303
H  H166  1  0.53790000  0.46210000  0.70070000  1.0 0.1426035266
H  H167  1  0.57310000  0.42690000  0.82130000  1.0 0.1200983136
H  H168  1  0.61520000  0.38480000  0.77660000  1.0 0.127690303
H  H169  1  0.53790000  0.29930000  0.46210000  1.0 0.1426035266
H  H170  1  0.57310000  0.17870000  0.42690000  1.0 0.1200983136
H  H171  1  0.61520000  0.22340000  0.38480000  1.0 0.127690303
H  H172  1  0.29930000  0.53790000  0.70070000  1.0 0.1426035266
H  H173  1  0.17870000  0.57310000  0.82130000  1.0 0.1200983136
H  H174  1  0.22340000  0.61520000  0.77660000  1.0 0.127690303
H  H175  1  0.70070000  0.46210000  0.29930000  1.0 0.1426035266
H  H176  1  0.82130000  0.42690000  0.17870000  1.0 0.1200983136
H  H177  1  0.77660000  0.38480000  0.22340000  1.0 0.127690303
H  H178  1  0.46210000  0.70070000  0.53790000  1.0 0.1426035266
H  H179  1  0.42690000  0.82130000  0.57310000  1.0 0.1200983136
H  H180  1  0.38480000  0.77660000  0.61520000  1.0 0.127690303
H  H181  1  0.70070000  0.29930000  0.46210000  1.0 0.1426035266
H  H182  1  0.82130000  0.17870000  0.42690000  1.0 0.1200983136
H  H183  1  0.77660000  0.22340000  0.38480000  1.0 0.127690303
H  H184  1  0.46210000  0.53790000  0.70070000  1.0 0.1426035266
H  H185  1  0.42690000  0.57310000  0.82130000  1.0 0.1200983136
H  H186  1  0.38480000  0.61520000  0.77660000  1.0 0.127690303
H  H187  1  0.53790000  0.46210000  0.29930000  1.0 0.1426035266
H  H188  1  0.57310000  0.42690000  0.17870000  1.0 0.1200983136
H  H189  1  0.61520000  0.38480000  0.22340000  1.0 0.127690303
H  H190  1  0.29930000  0.70070000  0.53790000  1.0 0.1426035266
H  H191  1  0.17870000  0.82130000  0.57310000  1.0 0.1200983136
H  H192  1  0.22340000  0.77660000  0.61520000  1.0 0.127690303
H  H193  1  0.53790000  0.29930000  0.70070000  1.0 0.1426035266
H  H194  1  0.57310000  0.17870000  0.82130000  1.0 0.1200983136
H  H195  1  0.61520000  0.22340000  0.77660000  1.0 0.127690303
H  H196  1  0.29930000  0.53790000  0.46210000  1.0 0.1426035266
H  H197  1  0.17870000  0.57310000  0.42690000  1.0 0.1200983136
H  H198  1  0.22340000  0.61520000  0.38480000  1.0 0.127690303
H  H199  1  0.70070000  0.46210000  0.53790000  1.0 0.1426035266
H  H200  1  0.82130000  0.42690000  0.57310000  1.0 0.1200983136
H  H201  1  0.77660000  0.38480000  0.61520000  1.0 0.127690303
H  H202  1  0.46210000  0.70070000  0.29930000  1.0 0.1426035266
H  H203  1  0.42690000  0.82130000  0.17870000  1.0 0.1200983136
H  H204  1  0.38480000  0.77660000  0.22340000  1.0 0.127690303
H  H205  1  0.46210000  0.29930000  0.53790000  1.0 0.1426035266
H  H206  1  0.42690000  0.17870000  0.57310000  1.0 0.1200983136
H  H207  1  0.38480000  0.22340000  0.61520000  1.0 0.127690303
H  H208  1  0.70070000  0.53790000  0.29930000  1.0 0.1426035266
H  H209  1  0.82130000  0.57310000  0.17870000  1.0 0.1200983136
H  H210  1  0.77660000  0.61520000  0.22340000  1.0 0.127690303
H  H211  1  0.29930000  0.46210000  0.70070000  1.0 0.1426035266
H  H212  1  0.17870000  0.42690000  0.82130000  1.0 0.1200983136
H  H213  1  0.22340000  0.38480000  0.77660000  1.0 0.127690303
H  H214  1  0.53790000  0.70070000  0.46210000  1.0 0.1426035266
H  H215  1  0.57310000  0.82130000  0.42690000  1.0 0.1200983136
H  H216  1  0.61520000  0.77660000  0.38480000  1.0 0.127690303
C  C1  1  0.11443000  0.53657000  0.50263000  1.0 -0.1092880934
C  C2  1  0.07684000  0.53608000  0.50232000  1.0 -0.0876388142
C  C3  1  0.00030000  0.50350000  0.53450000  1.0 -0.0792584916
C  C4  1  0.50263000  0.84637000  0.11443000  1.0 -0.1092880934
C  C5  1  0.50232000  0.88476000  0.07684000  1.0 -0.0876388142
C  C6  1  0.53450000  0.96170000  0.00030000  1.0 -0.0792584916
C  C7  1  0.53657000  0.11443000  0.84637000  1.0 -0.1092880934
C  C8  1  0.53608000  0.07684000  0.88476000  1.0 -0.0876388142
C  C9  1  0.50350000  0.00030000  0.96170000  1.0 -0.0792584916
C  C10  1  0.84637000  0.50263000  0.53657000  1.0 -0.1092880934
C  C11  1  0.88476000  0.50232000  0.53608000  1.0 -0.0876388142
C  C12  1  0.96170000  0.53450000  0.50350000  1.0 -0.0792584916
C  C13  1  0.53657000  0.50263000  0.11443000  1.0 -0.1092880934
C  C14  1  0.53608000  0.50232000  0.07684000  1.0 -0.0876388142
C  C15  1  0.50350000  0.53450000  0.00030000  1.0 -0.0792584916
C  C16  1  0.84637000  0.11443000  0.50263000  1.0 -0.1092880934
C  C17  1  0.88476000  0.07684000  0.50232000  1.0 -0.0876388142
C  C18  1  0.96170000  0.00030000  0.53450000  1.0 -0.0792584916
C  C19  1  0.11443000  0.84637000  0.53657000  1.0 -0.1092880934
C  C20  1  0.07684000  0.88476000  0.53608000  1.0 -0.0876388142
C  C21  1  0.00030000  0.96170000  0.50350000  1.0 -0.0792584916
C  C22  1  0.50263000  0.53657000  0.84637000  1.0 -0.1092880934
C  C23  1  0.50232000  0.53608000  0.88476000  1.0 -0.0876388142
C  C24  1  0.53450000  0.50350000  0.96170000  1.0 -0.0792584916
C  C25  1  0.50263000  0.11443000  0.53657000  1.0 -0.1092880934
C  C26  1  0.50232000  0.07684000  0.53608000  1.0 -0.0876388142
C  C27  1  0.53450000  0.00030000  0.50350000  1.0 -0.0792584916
C  C28  1  0.11443000  0.50263000  0.84637000  1.0 -0.1092880934
C  C29  1  0.07684000  0.50232000  0.88476000  1.0 -0.0876388142
C  C30  1  0.00030000  0.53450000  0.96170000  1.0 -0.0792584916
C  C31  1  0.84637000  0.53657000  0.11443000  1.0 -0.1092880934
C  C32  1  0.88476000  0.53608000  0.07684000  1.0 -0.0876388142
C  C33  1  0.96170000  0.50350000  0.00030000  1.0 -0.0792584916
C  C34  1  0.53657000  0.84637000  0.50263000  1.0 -0.1092880934
C  C35  1  0.53608000  0.88476000  0.50232000  1.0 -0.0876388142
C  C36  1  0.50350000  0.96170000  0.53450000  1.0 -0.0792584916
C  C37  1  0.88557000  0.15363000  0.49737000  1.0 -0.1092880934
C  C38  1  0.92316000  0.11524000  0.49768000  1.0 -0.0876388142
C  C39  1  0.99970000  0.03830000  0.46550000  1.0 -0.0792584916
C  C40  1  0.49737000  0.46343000  0.88557000  1.0 -0.1092880934
C  C41  1  0.49768000  0.46392000  0.92316000  1.0 -0.0876388142
C  C42  1  0.46550000  0.49650000  0.99970000  1.0 -0.0792584916
C  C43  1  0.46343000  0.49737000  0.15363000  1.0 -0.1092880934
C  C44  1  0.46392000  0.49768000  0.11524000  1.0 -0.0876388142
C  C45  1  0.49650000  0.46550000  0.03830000  1.0 -0.0792584916
C  C46  1  0.15363000  0.88557000  0.46343000  1.0 -0.1092880934
C  C47  1  0.11524000  0.92316000  0.46392000  1.0 -0.0876388142
C  C48  1  0.03830000  0.99970000  0.49650000  1.0 -0.0792584916
C  C49  1  0.46343000  0.15363000  0.88557000  1.0 -0.1092880934
C  C50  1  0.46392000  0.11524000  0.92316000  1.0 -0.0876388142
C  C51  1  0.49650000  0.03830000  0.99970000  1.0 -0.0792584916
C  C52  1  0.15363000  0.46343000  0.49737000  1.0 -0.1092880934
C  C53  1  0.11524000  0.46392000  0.49768000  1.0 -0.0876388142
C  C54  1  0.03830000  0.49650000  0.46550000  1.0 -0.0792584916
C  C55  1  0.88557000  0.49737000  0.46343000  1.0 -0.1092880934
C  C56  1  0.92316000  0.49768000  0.46392000  1.0 -0.0876388142
C  C57  1  0.99970000  0.46550000  0.49650000  1.0 -0.0792584916
C  C58  1  0.49737000  0.88557000  0.15363000  1.0 -0.1092880934
C  C59  1  0.49768000  0.92316000  0.11524000  1.0 -0.0876388142
C  C60  1  0.46550000  0.99970000  0.03830000  1.0 -0.0792584916
C  C61  1  0.49737000  0.15363000  0.46343000  1.0 -0.1092880934
C  C62  1  0.49768000  0.11524000  0.46392000  1.0 -0.0876388142
C  C63  1  0.46550000  0.03830000  0.49650000  1.0 -0.0792584916
C  C64  1  0.88557000  0.46343000  0.15363000  1.0 -0.1092880934
C  C65  1  0.92316000  0.46392000  0.11524000  1.0 -0.0876388142
C  C66  1  0.99970000  0.49650000  0.03830000  1.0 -0.0792584916
C  C67  1  0.15363000  0.49737000  0.88557000  1.0 -0.1092880934
C  C68  1  0.11524000  0.49768000  0.92316000  1.0 -0.0876388142
C  C69  1  0.03830000  0.46550000  0.99970000  1.0 -0.0792584916
C  C70  1  0.46343000  0.88557000  0.49737000  1.0 -0.1092880934
C  C71  1  0.46392000  0.92316000  0.49768000  1.0 -0.0876388142
C  C72  1  0.49650000  0.99970000  0.46550000  1.0 -0.0792584916
C  C73  1  0.88557000  0.46343000  0.49737000  1.0 -0.1092880934
C  C74  1  0.92316000  0.46392000  0.49768000  1.0 -0.0876388142
C  C75  1  0.99970000  0.49650000  0.46550000  1.0 -0.0792584916
C  C76  1  0.49737000  0.15363000  0.88557000  1.0 -0.1092880934
C  C77  1  0.49768000  0.11524000  0.92316000  1.0 -0.0876388142
C  C78  1  0.46550000  0.03830000  0.99970000  1.0 -0.0792584916
C  C79  1  0.46343000  0.88557000  0.15363000  1.0 -0.1092880934
C  C80  1  0.46392000  0.92316000  0.11524000  1.0 -0.0876388142
C  C81  1  0.49650000  0.99970000  0.03830000  1.0 -0.0792584916
C  C82  1  0.15363000  0.49737000  0.46343000  1.0 -0.1092880934
C  C83  1  0.11524000  0.49768000  0.46392000  1.0 -0.0876388142
C  C84  1  0.03830000  0.46550000  0.49650000  1.0 -0.0792584916
C  C85  1  0.46343000  0.49737000  0.88557000  1.0 -0.1092880934
C  C86  1  0.46392000  0.49768000  0.92316000  1.0 -0.0876388142
C  C87  1  0.49650000  0.46550000  0.99970000  1.0 -0.0792584916
C  C88  1  0.15363000  0.88557000  0.49737000  1.0 -0.1092880934
C  C89  1  0.11524000  0.92316000  0.49768000  1.0 -0.0876388142
C  C90  1  0.03830000  0.99970000  0.46550000  1.0 -0.0792584916
C  C91  1  0.88557000  0.15363000  0.46343000  1.0 -0.1092880934
C  C92  1  0.92316000  0.11524000  0.46392000  1.0 -0.0876388142
C  C93  1  0.99970000  0.03830000  0.49650000  1.0 -0.0792584916
C  C94  1  0.49737000  0.46343000  0.15363000  1.0 -0.1092880934
C  C95  1  0.49768000  0.46392000  0.11524000  1.0 -0.0876388142
C  C96  1  0.46550000  0.49650000  0.03830000  1.0 -0.0792584916
C  C97  1  0.49737000  0.88557000  0.46343000  1.0 -0.1092880934
C  C98  1  0.49768000  0.92316000  0.46392000  1.0 -0.0876388142
C  C99  1  0.46550000  0.99970000  0.49650000  1.0 -0.0792584916
C  C100  1  0.88557000  0.49737000  0.15363000  1.0 -0.1092880934
C  C101  1  0.92316000  0.49768000  0.11524000  1.0 -0.0876388142
C  C102  1  0.99970000  0.46550000  0.03830000  1.0 -0.0792584916
C  C103  1  0.15363000  0.46343000  0.88557000  1.0 -0.1092880934
C  C104  1  0.11524000  0.46392000  0.92316000  1.0 -0.0876388142
C  C105  1  0.03830000  0.49650000  0.99970000  1.0 -0.0792584916
C  C106  1  0.46343000  0.15363000  0.49737000  1.0 -0.1092880934
C  C107  1  0.46392000  0.11524000  0.49768000  1.0 -0.0876388142
C  C108  1  0.49650000  0.03830000  0.46550000  1.0 -0.0792584916
C  C109  1  0.11443000  0.84637000  0.50263000  1.0 -0.1092880934
C  C110  1  0.07684000  0.88476000  0.50232000  1.0 -0.0876388142
C  C111  1  0.00030000  0.96170000  0.53450000  1.0 -0.0792584916
C  C112  1  0.50263000  0.53657000  0.11443000  1.0 -0.1092880934
C  C113  1  0.50232000  0.53608000  0.07684000  1.0 -0.0876388142
C  C114  1  0.53450000  0.50350000  0.00030000  1.0 -0.0792584916
C  C115  1  0.53657000  0.50263000  0.84637000  1.0 -0.1092880934
C  C116  1  0.53608000  0.50232000  0.88476000  1.0 -0.0876388142
C  C117  1  0.50350000  0.53450000  0.96170000  1.0 -0.0792584916
C  C118  1  0.84637000  0.11443000  0.53657000  1.0 -0.1092880934
C  C119  1  0.88476000  0.07684000  0.53608000  1.0 -0.0876388142
C  C120  1  0.96170000  0.00030000  0.50350000  1.0 -0.0792584916
C  C121  1  0.53657000  0.84637000  0.11443000  1.0 -0.1092880934
C  C122  1  0.53608000  0.88476000  0.07684000  1.0 -0.0876388142
C  C123  1  0.50350000  0.96170000  0.00030000  1.0 -0.0792584916
C  C124  1  0.84637000  0.53657000  0.50263000  1.0 -0.1092880934
C  C125  1  0.88476000  0.53608000  0.50232000  1.0 -0.0876388142
C  C126  1  0.96170000  0.50350000  0.53450000  1.0 -0.0792584916
C  C127  1  0.11443000  0.50263000  0.53657000  1.0 -0.1092880934
C  C128  1  0.07684000  0.50232000  0.53608000  1.0 -0.0876388142
C  C129  1  0.00030000  0.53450000  0.50350000  1.0 -0.0792584916
C  C130  1  0.50263000  0.11443000  0.84637000  1.0 -0.1092880934
C  C131  1  0.50232000  0.07684000  0.88476000  1.0 -0.0876388142
C  C132  1  0.53450000  0.00030000  0.96170000  1.0 -0.0792584916
C  C133  1  0.50263000  0.84637000  0.53657000  1.0 -0.1092880934
C  C134  1  0.50232000  0.88476000  0.53608000  1.0 -0.0876388142
C  C135  1  0.53450000  0.96170000  0.50350000  1.0 -0.0792584916
C  C136  1  0.11443000  0.53657000  0.84637000  1.0 -0.1092880934
C  C137  1  0.07684000  0.53608000  0.88476000  1.0 -0.0876388142
C  C138  1  0.00030000  0.50350000  0.96170000  1.0 -0.0792584916
C  C139  1  0.84637000  0.50263000  0.11443000  1.0 -0.1092880934
C  C140  1  0.88476000  0.50232000  0.07684000  1.0 -0.0876388142
C  C141  1  0.96170000  0.53450000  0.00030000  1.0 -0.0792584916
C  C142  1  0.53657000  0.11443000  0.50263000  1.0 -0.1092880934
C  C143  1  0.53608000  0.07684000  0.50232000  1.0 -0.0876388142
C  C144  1  0.50350000  0.00030000  0.53450000  1.0 -0.0792584916
C  C145  1  0.29537000  0.39053000  0.60947000  1.0 0.578209078
C  C146  1  0.26698000  0.41854000  0.58146000  1.0 -0.0403357289
C  C147  1  0.27532000  0.45494000  0.54506000  1.0 -0.1212320863
C  C148  1  0.24876000  0.48052000  0.51948000  1.0 -0.0303198888
C  C149  1  0.21304000  0.46996000  0.53004000  1.0 0.1200983136
C  C150  1  0.20272000  0.43366000  0.56634000  1.0 -0.2147163593
C  C151  1  0.22953000  0.40897000  0.59103000  1.0 -0.0730545643
C  C152  1  0.60947000  0.70463000  0.29537000  1.0 0.578209078
C  C153  1  0.58146000  0.73302000  0.26698000  1.0 -0.0403357289
C  C154  1  0.54506000  0.72468000  0.27532000  1.0 -0.1212320863
C  C155  1  0.51948000  0.75124000  0.24876000  1.0 -0.0303198888
C  C156  1  0.53004000  0.78696000  0.21304000  1.0 0.1200983136
C  C157  1  0.56634000  0.79728000  0.20272000  1.0 -0.2147163593
C  C158  1  0.59103000  0.77047000  0.22953000  1.0 -0.0730545643
C  C159  1  0.39053000  0.29537000  0.70463000  1.0 0.578209078
C  C160  1  0.41854000  0.26698000  0.73302000  1.0 -0.0403357289
C  C161  1  0.45494000  0.27532000  0.72468000  1.0 -0.1212320863
C  C162  1  0.48052000  0.24876000  0.75124000  1.0 -0.0303198888
C  C163  1  0.46996000  0.21304000  0.78696000  1.0 0.1200983136
C  C164  1  0.43366000  0.20272000  0.79728000  1.0 -0.2147163593
C  C165  1  0.40897000  0.22953000  0.77047000  1.0 -0.0730545643
C  C166  1  0.70463000  0.60947000  0.39053000  1.0 0.578209078
C  C167  1  0.73302000  0.58146000  0.41854000  1.0 -0.0403357289
C  C168  1  0.72468000  0.54506000  0.45494000  1.0 -0.1212320863
C  C169  1  0.75124000  0.51948000  0.48052000  1.0 -0.0303198888
C  C170  1  0.78696000  0.53004000  0.46996000  1.0 0.1200983136
C  C171  1  0.79728000  0.56634000  0.43366000  1.0 -0.2147163593
C  C172  1  0.77047000  0.59103000  0.40897000  1.0 -0.0730545643
C  C173  1  0.39053000  0.60947000  0.29537000  1.0 0.578209078
C  C174  1  0.41854000  0.58146000  0.26698000  1.0 -0.0403357289
C  C175  1  0.45494000  0.54506000  0.27532000  1.0 -0.1212320863
C  C176  1  0.48052000  0.51948000  0.24876000  1.0 -0.0303198888
C  C177  1  0.46996000  0.53004000  0.21304000  1.0 0.1200983136
C  C178  1  0.43366000  0.56634000  0.20272000  1.0 -0.2155863635
C  C179  1  0.40897000  0.59103000  0.22953000  1.0 -0.0730545643
C  C180  1  0.70463000  0.29537000  0.60947000  1.0 0.578209078
C  C181  1  0.73302000  0.26698000  0.58146000  1.0 -0.0403357289
C  C182  1  0.72468000  0.27532000  0.54506000  1.0 -0.1212320863
C  C183  1  0.75124000  0.24876000  0.51948000  1.0 -0.0303198888
C  C184  1  0.78696000  0.21304000  0.53004000  1.0 0.1200983136
C  C185  1  0.79728000  0.20272000  0.56634000  1.0 -0.2147163593
C  C186  1  0.77047000  0.22953000  0.59103000  1.0 -0.0730545643
C  C187  1  0.29537000  0.70463000  0.39053000  1.0 0.578209078
C  C188  1  0.26698000  0.73302000  0.41854000  1.0 -0.0403357289
C  C189  1  0.27532000  0.72468000  0.45494000  1.0 -0.1212320863
C  C190  1  0.24876000  0.75124000  0.48052000  1.0 -0.0303198888
C  C191  1  0.21304000  0.78696000  0.46996000  1.0 0.1200983136
C  C192  1  0.20272000  0.79728000  0.43366000  1.0 -0.2147163593
C  C193  1  0.22953000  0.77047000  0.40897000  1.0 -0.0730545643
C  C194  1  0.60947000  0.39053000  0.70463000  1.0 0.578209078
C  C195  1  0.58146000  0.41854000  0.73302000  1.0 -0.0403357289
C  C196  1  0.54506000  0.45494000  0.72468000  1.0 -0.1212320863
C  C197  1  0.51948000  0.48052000  0.75124000  1.0 -0.0303198888
C  C198  1  0.53004000  0.46996000  0.78696000  1.0 0.1200983136
C  C199  1  0.56634000  0.43366000  0.79728000  1.0 -0.2155863635
C  C200  1  0.59103000  0.40897000  0.77047000  1.0 -0.0730545643
C  C201  1  0.60947000  0.29537000  0.39053000  1.0 0.578209078
C  C202  1  0.58146000  0.26698000  0.41854000  1.0 -0.0403357289
C  C203  1  0.54506000  0.27532000  0.45494000  1.0 -0.1212320863
C  C204  1  0.51948000  0.24876000  0.48052000  1.0 -0.0303198888
C  C205  1  0.53004000  0.21304000  0.46996000  1.0 0.1200983136
C  C206  1  0.56634000  0.20272000  0.43366000  1.0 -0.2147163593
C  C207  1  0.59103000  0.22953000  0.40897000  1.0 -0.0730545643
C  C208  1  0.29537000  0.60947000  0.70463000  1.0 0.578209078
C  C209  1  0.26698000  0.58146000  0.73302000  1.0 -0.0403357289
C  C210  1  0.27532000  0.54506000  0.72468000  1.0 -0.1212320863
C  C211  1  0.24876000  0.51948000  0.75124000  1.0 -0.0303198888
C  C212  1  0.21304000  0.53004000  0.78696000  1.0 0.1200983136
C  C213  1  0.20272000  0.56634000  0.79728000  1.0 -0.2147163593
C  C214  1  0.22953000  0.59103000  0.77047000  1.0 -0.0730545643
C  C215  1  0.70463000  0.39053000  0.29537000  1.0 0.578209078
C  C216  1  0.73302000  0.41854000  0.26698000  1.0 -0.0403357289
C  C217  1  0.72468000  0.45494000  0.27532000  1.0 -0.1212320863
C  C218  1  0.75124000  0.48052000  0.24876000  1.0 -0.0303198888
C  C219  1  0.78696000  0.46996000  0.21304000  1.0 0.1200983136
C  C220  1  0.79728000  0.43366000  0.20272000  1.0 -0.2147163593
C  C221  1  0.77047000  0.40897000  0.22953000  1.0 -0.0730545643
C  C222  1  0.39053000  0.70463000  0.60947000  1.0 0.578209078
C  C223  1  0.41854000  0.73302000  0.58146000  1.0 -0.0403357289
C  C224  1  0.45494000  0.72468000  0.54506000  1.0 -0.1212320863
C  C225  1  0.48052000  0.75124000  0.51948000  1.0 -0.0303198888
C  C226  1  0.46996000  0.78696000  0.53004000  1.0 0.1200983136
C  C227  1  0.43366000  0.79728000  0.56634000  1.0 -0.2147163593
C  C228  1  0.40897000  0.77047000  0.59103000  1.0 -0.0730545643
C  C229  1  0.70463000  0.29537000  0.39053000  1.0 0.578209078
C  C230  1  0.73302000  0.26698000  0.41854000  1.0 -0.0403357289
C  C231  1  0.72468000  0.27532000  0.45494000  1.0 -0.1212320863
C  C232  1  0.75124000  0.24876000  0.48052000  1.0 -0.0303198888
C  C233  1  0.78696000  0.21304000  0.46996000  1.0 0.1200983136
C  C234  1  0.79728000  0.20272000  0.43366000  1.0 -0.2147163593
C  C235  1  0.77047000  0.22953000  0.40897000  1.0 -0.0730545643
C  C236  1  0.39053000  0.60947000  0.70463000  1.0 0.578209078
C  C237  1  0.41854000  0.58146000  0.73302000  1.0 -0.0403357289
C  C238  1  0.45494000  0.54506000  0.72468000  1.0 -0.1212320863
C  C239  1  0.48052000  0.51948000  0.75124000  1.0 -0.0303198888
C  C240  1  0.46996000  0.53004000  0.78696000  1.0 0.1200983136
C  C241  1  0.43366000  0.56634000  0.79728000  1.0 -0.2147163593
C  C242  1  0.40897000  0.59103000  0.77047000  1.0 -0.0730545643
C  C243  1  0.60947000  0.39053000  0.29537000  1.0 0.578209078
C  C244  1  0.58146000  0.41854000  0.26698000  1.0 -0.0403357289
C  C245  1  0.54506000  0.45494000  0.27532000  1.0 -0.1212320863
C  C246  1  0.51948000  0.48052000  0.24876000  1.0 -0.0303198888
C  C247  1  0.53004000  0.46996000  0.21304000  1.0 0.1200983136
C  C248  1  0.56634000  0.43366000  0.20272000  1.0 -0.2147163593
C  C249  1  0.59103000  0.40897000  0.22953000  1.0 -0.0730545643
C  C250  1  0.29537000  0.70463000  0.60947000  1.0 0.578209078
C  C251  1  0.26698000  0.73302000  0.58146000  1.0 -0.0403357289
C  C252  1  0.27532000  0.72468000  0.54506000  1.0 -0.1212320863
C  C253  1  0.24876000  0.75124000  0.51948000  1.0 -0.0303198888
C  C254  1  0.21304000  0.78696000  0.53004000  1.0 0.1200983136
C  C255  1  0.20272000  0.79728000  0.56634000  1.0 -0.2147163593
C  C256  1  0.22953000  0.77047000  0.59103000  1.0 -0.0730545643
C  C257  1  0.60947000  0.29537000  0.70463000  1.0 0.578209078
C  C258  1  0.58146000  0.26698000  0.73302000  1.0 -0.0403357289
C  C259  1  0.54506000  0.27532000  0.72468000  1.0 -0.1212320863
C  C260  1  0.51948000  0.24876000  0.75124000  1.0 -0.0303198888
C  C261  1  0.53004000  0.21304000  0.78696000  1.0 0.1200983136
C  C262  1  0.56634000  0.20272000  0.79728000  1.0 -0.2147163593
C  C263  1  0.59103000  0.22953000  0.77047000  1.0 -0.0730545643
C  C264  1  0.29537000  0.60947000  0.39053000  1.0 0.578209078
C  C265  1  0.26698000  0.58146000  0.41854000  1.0 -0.0403357289
C  C266  1  0.27532000  0.54506000  0.45494000  1.0 -0.1212320863
C  C267  1  0.24876000  0.51948000  0.48052000  1.0 -0.0303198888
C  C268  1  0.21304000  0.53004000  0.46996000  1.0 0.1200983136
C  C269  1  0.20272000  0.56634000  0.43366000  1.0 -0.2147163593
C  C270  1  0.22953000  0.59103000  0.40897000  1.0 -0.0730545643
C  C271  1  0.70463000  0.39053000  0.60947000  1.0 0.578209078
C  C272  1  0.73302000  0.41854000  0.58146000  1.0 -0.0403357289
C  C273  1  0.72468000  0.45494000  0.54506000  1.0 -0.1212320863
C  C274  1  0.75124000  0.48052000  0.51948000  1.0 -0.0303198888
C  C275  1  0.78696000  0.46996000  0.53004000  1.0 0.1200983136
C  C276  1  0.79728000  0.43366000  0.56634000  1.0 -0.2155863635
C  C277  1  0.77047000  0.40897000  0.59103000  1.0 -0.0730545643
C  C278  1  0.39053000  0.70463000  0.29537000  1.0 0.578209078
C  C279  1  0.41854000  0.73302000  0.26698000  1.0 -0.0403357289
C  C280  1  0.45494000  0.72468000  0.27532000  1.0 -0.1212320863
C  C281  1  0.48052000  0.75124000  0.24876000  1.0 -0.0303198888
C  C282  1  0.46996000  0.78696000  0.21304000  1.0 0.1200983136
C  C283  1  0.43366000  0.79728000  0.20272000  1.0 -0.2147163593
C  C284  1  0.40897000  0.77047000  0.22953000  1.0 -0.0730545643
C  C285  1  0.39053000  0.29537000  0.60947000  1.0 0.578209078
C  C286  1  0.41854000  0.26698000  0.58146000  1.0 -0.0403357289
C  C287  1  0.45494000  0.27532000  0.54506000  1.0 -0.1212320863
C  C288  1  0.48052000  0.24876000  0.51948000  1.0 -0.0303198888
C  C289  1  0.46996000  0.21304000  0.53004000  1.0 0.1200983136
C  C290  1  0.43366000  0.20272000  0.56634000  1.0 -0.2147163593
C  C291  1  0.40897000  0.22953000  0.59103000  1.0 -0.0730545643
C  C292  1  0.70463000  0.60947000  0.29537000  1.0 0.578209078
C  C293  1  0.73302000  0.58146000  0.26698000  1.0 -0.0403357289
C  C294  1  0.72468000  0.54506000  0.27532000  1.0 -0.1212320863
C  C295  1  0.75124000  0.51948000  0.24876000  1.0 -0.0303198888
C  C296  1  0.78696000  0.53004000  0.21304000  1.0 0.1200983136
C  C297  1  0.79728000  0.56634000  0.20272000  1.0 -0.2147163593
C  C298  1  0.77047000  0.59103000  0.22953000  1.0 -0.0730545643
C  C299  1  0.29537000  0.39053000  0.70463000  1.0 0.578209078
C  C300  1  0.26698000  0.41854000  0.73302000  1.0 -0.0403357289
C  C301  1  0.27532000  0.45494000  0.72468000  1.0 -0.1212320863
C  C302  1  0.24876000  0.48052000  0.75124000  1.0 -0.0303198888
C  C303  1  0.21304000  0.46996000  0.78696000  1.0 0.1200983136
C  C304  1  0.20272000  0.43366000  0.79728000  1.0 -0.2155863635
C  C305  1  0.22953000  0.40897000  0.77047000  1.0 -0.0730545643
C  C306  1  0.60947000  0.70463000  0.39053000  1.0 0.578209078
C  C307  1  0.58146000  0.73302000  0.41854000  1.0 -0.0403357289
C  C308  1  0.54506000  0.72468000  0.45494000  1.0 -0.1212320863
C  C309  1  0.51948000  0.75124000  0.48052000  1.0 -0.0303198888
C  C310  1  0.53004000  0.78696000  0.46996000  1.0 0.1200983136
C  C311  1  0.56634000  0.79728000  0.43366000  1.0 -0.2147163593
C  C312  1  0.59103000  0.77047000  0.40897000  1.0 -0.0730545643
C  C313  1  0.15164000  0.50000000  0.50000000  1.0 0.1103864687
C  C314  1  0.07802000  0.50000000  0.50000000  1.0 0.0253498074
C  C315  1  0.03854000  0.50000000  0.50000000  1.0 -0.0237826885
C  C316  1  0.50000000  0.84836000  0.15164000  1.0 0.104969696
C  C317  1  0.50000000  0.92198000  0.07802000  1.0 0.0253498074
C  C318  1  0.50000000  0.96146000  0.03854000  1.0 -0.0237826885
C  C319  1  0.50000000  0.15164000  0.84836000  1.0 0.1103864687
C  C320  1  0.50000000  0.07802000  0.92198000  1.0 0.0253498074
C  C321  1  0.50000000  0.03854000  0.96146000  1.0 -0.0237826885
C  C322  1  0.84836000  0.50000000  0.50000000  1.0 0.1103864687
C  C323  1  0.92198000  0.50000000  0.50000000  1.0 0.0253498074
C  C324  1  0.96146000  0.50000000  0.50000000  1.0 -0.0237826885
C  C325  1  0.50000000  0.50000000  0.15164000  1.0 0.104969696
C  C326  1  0.50000000  0.50000000  0.07802000  1.0 0.024294135
C  C327  1  0.50000000  0.50000000  0.03854000  1.0 -0.0237826885
C  C328  1  0.84836000  0.15164000  0.50000000  1.0 0.1103864687
C  C329  1  0.92198000  0.07802000  0.50000000  1.0 0.0253498074
C  C330  1  0.96146000  0.03854000  0.50000000  1.0 -0.0237826885
C  C331  1  0.15164000  0.84836000  0.50000000  1.0 0.1103864687
C  C332  1  0.07802000  0.92198000  0.50000000  1.0 0.0253498074
C  C333  1  0.03854000  0.96146000  0.50000000  1.0 -0.0237826885
C  C334  1  0.50000000  0.50000000  0.84836000  1.0 0.1103864687
C  C335  1  0.50000000  0.50000000  0.92198000  1.0 0.0253498074
C  C336  1  0.50000000  0.50000000  0.96146000  1.0 -0.0237826885
C  C337  1  0.50000000  0.15164000  0.50000000  1.0 0.1103864687
C  C338  1  0.50000000  0.07802000  0.50000000  1.0 0.0253498074
C  C339  1  0.50000000  0.03854000  0.50000000  1.0 -0.0237826885
C  C340  1  0.15164000  0.50000000  0.84836000  1.0 0.1103864687
C  C341  1  0.07802000  0.50000000  0.92198000  1.0 0.0253498074
C  C342  1  0.03854000  0.50000000  0.96146000  1.0 -0.0237826885
C  C343  1  0.84836000  0.50000000  0.15164000  1.0 0.104969696
C  C344  1  0.92198000  0.50000000  0.07802000  1.0 0.024294135
C  C345  1  0.96146000  0.50000000  0.03854000  1.0 -0.0237826885
C  C346  1  0.50000000  0.84836000  0.50000000  1.0 0.1103864687
C  C347  1  0.50000000  0.92198000  0.50000000  1.0 0.0253498074
C  C348  1  0.50000000  0.96146000  0.50000000  1.0 -0.0237826885
N  N1  1  0.19174000  0.50000000  0.50000000  1.0 -0.15802173
N  N2  1  0.50000000  0.80826000  0.19174000  1.0 -0.15802173
N  N3  1  0.50000000  0.19174000  0.80826000  1.0 -0.15802173
N  N4  1  0.80826000  0.50000000  0.50000000  1.0 -0.15802173
N  N5  1  0.50000000  0.50000000  0.19174000  1.0 -0.15802173
N  N6  1  0.80826000  0.19174000  0.50000000  1.0 -0.15802173
N  N7  1  0.19174000  0.80826000  0.50000000  1.0 -0.15802173
N  N8  1  0.50000000  0.50000000  0.80826000  1.0 -0.15802173
N  N9  1  0.50000000  0.19174000  0.50000000  1.0 -0.15802173
N  N10  1  0.19174000  0.50000000  0.80826000  1.0 -0.15802173
N  N11  1  0.80826000  0.50000000  0.19174000  1.0 -0.15802173
N  N12  1  0.50000000  0.80826000  0.50000000  1.0 -0.15802173
O  O1  1  0.32743000  0.40077000  0.59923000  1.0 -0.5187152418
O  O2  1  0.28530000  0.35810000  0.64190000  1.0 -0.5310720844
O  O3  1  0.59923000  0.67257000  0.32743000  1.0 -0.5187152418
O  O4  1  0.64190000  0.71470000  0.28530000  1.0 -0.5310720844
O  O5  1  0.40077000  0.32743000  0.67257000  1.0 -0.5187152418
O  O6  1  0.35810000  0.28530000  0.71470000  1.0 -0.5310720844
O  O7  1  0.67257000  0.59923000  0.40077000  1.0 -0.5187152418
O  O8  1  0.71470000  0.64190000  0.35810000  1.0 -0.5310720844
O  O9  1  0.40077000  0.59923000  0.32743000  1.0 -0.5187152418
O  O10  1  0.35810000  0.64190000  0.28530000  1.0 -0.5310720844
O  O11  1  0.67257000  0.32743000  0.59923000  1.0 -0.5187152418
O  O12  1  0.71470000  0.28530000  0.64190000  1.0 -0.5310720844
O  O13  1  0.32743000  0.67257000  0.40077000  1.0 -0.5187152418
O  O14  1  0.28530000  0.71470000  0.35810000  1.0 -0.5310720844
O  O15  1  0.59923000  0.40077000  0.67257000  1.0 -0.5187152418
O  O16  1  0.64190000  0.35810000  0.71470000  1.0 -0.5310720844
O  O17  1  0.59923000  0.32743000  0.40077000  1.0 -0.5187152418
O  O18  1  0.64190000  0.28530000  0.35810000  1.0 -0.5310720844
O  O19  1  0.32743000  0.59923000  0.67257000  1.0 -0.5187152418
O  O20  1  0.28530000  0.64190000  0.71470000  1.0 -0.5310720844
O  O21  1  0.67257000  0.40077000  0.32743000  1.0 -0.5187152418
O  O22  1  0.71470000  0.35810000  0.28530000  1.0 -0.5310720844
O  O23  1  0.40077000  0.67257000  0.59923000  1.0 -0.5187152418
O  O24  1  0.35810000  0.71470000  0.64190000  1.0 -0.5310720844
O  O25  1  0.67257000  0.32743000  0.40077000  1.0 -0.5187152418
O  O26  1  0.71470000  0.28530000  0.35810000  1.0 -0.5310720844
O  O27  1  0.40077000  0.59923000  0.67257000  1.0 -0.5187152418
O  O28  1  0.35810000  0.64190000  0.71470000  1.0 -0.5310720844
O  O29  1  0.59923000  0.40077000  0.32743000  1.0 -0.5187152418
O  O30  1  0.64190000  0.35810000  0.28530000  1.0 -0.5310720844
O  O31  1  0.32743000  0.67257000  0.59923000  1.0 -0.5187152418
O  O32  1  0.28530000  0.71470000  0.64190000  1.0 -0.5310720844
O  O33  1  0.59923000  0.32743000  0.67257000  1.0 -0.5187152418
O  O34  1  0.64190000  0.28530000  0.71470000  1.0 -0.5310720844
O  O35  1  0.32743000  0.59923000  0.40077000  1.0 -0.5187152418
O  O36  1  0.28530000  0.64190000  0.35810000  1.0 -0.5310720844
O  O37  1  0.67257000  0.40077000  0.59923000  1.0 -0.5187152418
O  O38  1  0.71470000  0.35810000  0.64190000  1.0 -0.5310720844
O  O39  1  0.40077000  0.67257000  0.32743000  1.0 -0.5187152418
O  O40  1  0.35810000  0.71470000  0.28530000  1.0 -0.5310720844
O  O41  1  0.40077000  0.32743000  0.59923000  1.0 -0.5187152418
O  O42  1  0.35810000  0.28530000  0.64190000  1.0 -0.5310720844
O  O43  1  0.67257000  0.59923000  0.32743000  1.0 -0.5187152418
O  O44  1  0.71470000  0.64190000  0.28530000  1.0 -0.5310720844
O  O45  1  0.32743000  0.40077000  0.67257000  1.0 -0.5187152418
O  O46  1  0.28530000  0.35810000  0.71470000  1.0 -0.5310720844
O  O47  1  0.59923000  0.67257000  0.40077000  1.0 -0.5187152418
O  O48  1  0.64190000  0.71470000  0.35810000  1.0 -0.5310720844
