# DDEC6 charges by PACMAN v1.1 (https://github.com/mtap-research/PACMAN-charge/)
data_JOWREV_ASR_pacman
_symmetry_space_group_name_H-M   'P 1'
_cell_length_a   30.79450000
_cell_length_b   30.79450000
_cell_length_c   30.79450000
_cell_angle_alpha   60.00000000
_cell_angle_beta   60.00000000
_cell_angle_gamma   60.00000000
_symmetry_Int_Tables_number   1
_chemical_formula_structural   CuH14C27NO4
_chemical_formula_sum   'Cu12 H168 C324 N12 O48'
_cell_volume   20649.25907367
_cell_formula_units_Z   12
loop_
 _symmetry_equiv_pos_site_id
 _symmetry_equiv_pos_as_xyz
  1  'x, y, z'
loop_
 _atom_site_type_symbol
 _atom_site_label
 _atom_site_symmetry_multiplicity
 _atom_site_fract_x
 _atom_site_fract_y
 _atom_site_fract_z
 _atom_site_occupancy
 _atom_site_charge
Cu  Cu1  1  0.65968000  0.34032000  0.34032000  1.0 0.8628953919
Cu  Cu2  1  0.72005000  0.27995000  0.27995000  1.0 0.870487325
Cu  Cu3  1  0.34032000  0.65968000  0.65968000  1.0 0.8628953919
Cu  Cu4  1  0.27995000  0.72005000  0.72005000  1.0 0.870487325
Cu  Cu5  1  0.34032000  0.34032000  0.65968000  1.0 0.8628953919
Cu  Cu6  1  0.27995000  0.27995000  0.72005000  1.0 0.870487325
Cu  Cu7  1  0.65968000  0.65968000  0.34032000  1.0 0.8628953919
Cu  Cu8  1  0.72005000  0.72005000  0.27995000  1.0 0.870487325
Cu  Cu9  1  0.34032000  0.65968000  0.34032000  1.0 0.8628953919
Cu  Cu10  1  0.27995000  0.72005000  0.27995000  1.0 0.870487325
Cu  Cu11  1  0.65968000  0.34032000  0.65968000  1.0 0.8628953919
Cu  Cu12  1  0.72005000  0.27995000  0.72005000  1.0 0.870487325
H  H1  1  0.56650000  0.03890000  0.50590000  1.0 0.1289477911
H  H2  1  0.59560000  0.95680000  0.50720000  1.0 0.0730571676
H  H3  1  0.50590000  0.88870000  0.56650000  1.0 0.1289477911
H  H4  1  0.50720000  0.94040000  0.59560000  1.0 0.0730571676
H  H5  1  0.03890000  0.56650000  0.88870000  1.0 0.1289477911
H  H6  1  0.95680000  0.59560000  0.94040000  1.0 0.0730571676
H  H7  1  0.88870000  0.50590000  0.03890000  1.0 0.1289477911
H  H8  1  0.94040000  0.50720000  0.95680000  1.0 0.0730571676
H  H9  1  0.03890000  0.50590000  0.56650000  1.0 0.1289477911
H  H10  1  0.95680000  0.50720000  0.59560000  1.0 0.0730571676
H  H11  1  0.88870000  0.56650000  0.50590000  1.0 0.1289477911
H  H12  1  0.94040000  0.59560000  0.50720000  1.0 0.0730571676
H  H13  1  0.56650000  0.88870000  0.03890000  1.0 0.1289477911
H  H14  1  0.59560000  0.94040000  0.95680000  1.0 0.0730571676
H  H15  1  0.50590000  0.03890000  0.88870000  1.0 0.1289477911
H  H16  1  0.50720000  0.95680000  0.94040000  1.0 0.0730571676
H  H17  1  0.50590000  0.56650000  0.03890000  1.0 0.1289477911
H  H18  1  0.50720000  0.59560000  0.95680000  1.0 0.0730571676
H  H19  1  0.56650000  0.50590000  0.88870000  1.0 0.1289477911
H  H20  1  0.59560000  0.50720000  0.94040000  1.0 0.0730571676
H  H21  1  0.88870000  0.03890000  0.56650000  1.0 0.1289477911
H  H22  1  0.94040000  0.95680000  0.59560000  1.0 0.0730571676
H  H23  1  0.03890000  0.88870000  0.50590000  1.0 0.1289477911
H  H24  1  0.95680000  0.94040000  0.50720000  1.0 0.0730571676
H  H25  1  0.43350000  0.11130000  0.49410000  1.0 0.1289477911
H  H26  1  0.40440000  0.05960000  0.49280000  1.0 0.0730571676
H  H27  1  0.49410000  0.96110000  0.43350000  1.0 0.1289477911
H  H28  1  0.49280000  0.04320000  0.40440000  1.0 0.0730571676
H  H29  1  0.96110000  0.49410000  0.11130000  1.0 0.1289477911
H  H30  1  0.04320000  0.49280000  0.05960000  1.0 0.0730571676
H  H31  1  0.11130000  0.43350000  0.96110000  1.0 0.1289477911
H  H32  1  0.05960000  0.40440000  0.04320000  1.0 0.0730571676
H  H33  1  0.96110000  0.11130000  0.43350000  1.0 0.1289477911
H  H34  1  0.04320000  0.05960000  0.40440000  1.0 0.0730571676
H  H35  1  0.11130000  0.96110000  0.49410000  1.0 0.1289477911
H  H36  1  0.05960000  0.04320000  0.49280000  1.0 0.0730571676
H  H37  1  0.43350000  0.49410000  0.96110000  1.0 0.1289477911
H  H38  1  0.40440000  0.49280000  0.04320000  1.0 0.0730571676
H  H39  1  0.49410000  0.43350000  0.11130000  1.0 0.1289477911
H  H40  1  0.49280000  0.40440000  0.05960000  1.0 0.0730571676
H  H41  1  0.49410000  0.11130000  0.96110000  1.0 0.1289477911
H  H42  1  0.49280000  0.05960000  0.04320000  1.0 0.0730571676
H  H43  1  0.43350000  0.96110000  0.11130000  1.0 0.1289477911
H  H44  1  0.40440000  0.04320000  0.05960000  1.0 0.0730571676
H  H45  1  0.11130000  0.49410000  0.43350000  1.0 0.1289477911
H  H46  1  0.05960000  0.49280000  0.40440000  1.0 0.0730571676
H  H47  1  0.96110000  0.43350000  0.49410000  1.0 0.1289477911
H  H48  1  0.04320000  0.40440000  0.49280000  1.0 0.0730571676
H  H49  1  0.43350000  0.96110000  0.49410000  1.0 0.1289477911
H  H50  1  0.40440000  0.04320000  0.49280000  1.0 0.0730571676
H  H51  1  0.49410000  0.11130000  0.43350000  1.0 0.1289477911
H  H52  1  0.49280000  0.05960000  0.40440000  1.0 0.0730571676
H  H53  1  0.96110000  0.43350000  0.11130000  1.0 0.1289477911
H  H54  1  0.04320000  0.40440000  0.05960000  1.0 0.0730571676
H  H55  1  0.11130000  0.49410000  0.96110000  1.0 0.1289477911
H  H56  1  0.05960000  0.49280000  0.04320000  1.0 0.0730571676
H  H57  1  0.96110000  0.49410000  0.43350000  1.0 0.1289477911
H  H58  1  0.04320000  0.49280000  0.40440000  1.0 0.0730571676
H  H59  1  0.11130000  0.43350000  0.49410000  1.0 0.1289477911
H  H60  1  0.05960000  0.40440000  0.49280000  1.0 0.0730571676
H  H61  1  0.43350000  0.11130000  0.96110000  1.0 0.1289477911
H  H62  1  0.40440000  0.05960000  0.04320000  1.0 0.0730571676
H  H63  1  0.49410000  0.96110000  0.11130000  1.0 0.1289477911
H  H64  1  0.49280000  0.04320000  0.05960000  1.0 0.0730571676
H  H65  1  0.49410000  0.43350000  0.96110000  1.0 0.1289477911
H  H66  1  0.49280000  0.40440000  0.04320000  1.0 0.0730571676
H  H67  1  0.43350000  0.49410000  0.11130000  1.0 0.1289477911
H  H68  1  0.40440000  0.49280000  0.05960000  1.0 0.0730571676
H  H69  1  0.11130000  0.96110000  0.43350000  1.0 0.1289477911
H  H70  1  0.05960000  0.04320000  0.40440000  1.0 0.0730571676
H  H71  1  0.96110000  0.11130000  0.49410000  1.0 0.1289477911
H  H72  1  0.04320000  0.05960000  0.49280000  1.0 0.0730571676
H  H73  1  0.56650000  0.88870000  0.50590000  1.0 0.1289477911
H  H74  1  0.59560000  0.94040000  0.50720000  1.0 0.0730571676
H  H75  1  0.50590000  0.03890000  0.56650000  1.0 0.1289477911
H  H76  1  0.50720000  0.95680000  0.59560000  1.0 0.0730571676
H  H77  1  0.03890000  0.50590000  0.88870000  1.0 0.1289477911
H  H78  1  0.95680000  0.50720000  0.94040000  1.0 0.0730571676
H  H79  1  0.88870000  0.56650000  0.03890000  1.0 0.1289477911
H  H80  1  0.94040000  0.59560000  0.95680000  1.0 0.0730571676
H  H81  1  0.03890000  0.88870000  0.56650000  1.0 0.1289477911
H  H82  1  0.95680000  0.94040000  0.59560000  1.0 0.0730571676
H  H83  1  0.88870000  0.03890000  0.50590000  1.0 0.1289477911
H  H84  1  0.94040000  0.95680000  0.50720000  1.0 0.0730571676
H  H85  1  0.56650000  0.50590000  0.03890000  1.0 0.1289477911
H  H86  1  0.59560000  0.50720000  0.95680000  1.0 0.0730571676
H  H87  1  0.50590000  0.56650000  0.88870000  1.0 0.1289477911
H  H88  1  0.50720000  0.59560000  0.94040000  1.0 0.0730571676
H  H89  1  0.50590000  0.88870000  0.03890000  1.0 0.1289477911
H  H90  1  0.50720000  0.94040000  0.95680000  1.0 0.0730571676
H  H91  1  0.56650000  0.03890000  0.88870000  1.0 0.1289477911
H  H92  1  0.59560000  0.95680000  0.94040000  1.0 0.0730571676
H  H93  1  0.88870000  0.50590000  0.56650000  1.0 0.1289477911
H  H94  1  0.94040000  0.50720000  0.59560000  1.0 0.0730571676
H  H95  1  0.03890000  0.56650000  0.50590000  1.0 0.1289477911
H  H96  1  0.95680000  0.59560000  0.50720000  1.0 0.0730571676
H  H97  1  0.54610000  0.25790000  0.45390000  1.0 0.1289477911
H  H98  1  0.58880000  0.11260000  0.41120000  1.0 0.1836742392
H  H99  1  0.63920000  0.16640000  0.36080000  1.0 0.1289477911
H  H100  1  0.45390000  0.74210000  0.54610000  1.0 0.1289477911
H  H101  1  0.41120000  0.88740000  0.58880000  1.0 0.1836742392
H  H102  1  0.36080000  0.83360000  0.63920000  1.0 0.1355458523
H  H103  1  0.25790000  0.54610000  0.74210000  1.0 0.1289477911
H  H104  1  0.11260000  0.58880000  0.88740000  1.0 0.1836742392
H  H105  1  0.16640000  0.63920000  0.83360000  1.0 0.1355458523
H  H106  1  0.74210000  0.45390000  0.25790000  1.0 0.1289477911
H  H107  1  0.88740000  0.41120000  0.11260000  1.0 0.1836742392
H  H108  1  0.83360000  0.36080000  0.16640000  1.0 0.1289477911
H  H109  1  0.25790000  0.45390000  0.54610000  1.0 0.1289477911
H  H110  1  0.11260000  0.41120000  0.58880000  1.0 0.1836742392
H  H111  1  0.16640000  0.36080000  0.63920000  1.0 0.1355458523
H  H112  1  0.74210000  0.54610000  0.45390000  1.0 0.1289477911
H  H113  1  0.88740000  0.58880000  0.41120000  1.0 0.1836742392
H  H114  1  0.83360000  0.63920000  0.36080000  1.0 0.1289477911
H  H115  1  0.54610000  0.74210000  0.25790000  1.0 0.1289477911
H  H116  1  0.58880000  0.88740000  0.11260000  1.0 0.1836742392
H  H117  1  0.63920000  0.83360000  0.16640000  1.0 0.1289477911
H  H118  1  0.45390000  0.25790000  0.74210000  1.0 0.1289477911
H  H119  1  0.41120000  0.11260000  0.88740000  1.0 0.1836742392
H  H120  1  0.36080000  0.16640000  0.83360000  1.0 0.1355458523
H  H121  1  0.45390000  0.54610000  0.25790000  1.0 0.1289477911
H  H122  1  0.41120000  0.58880000  0.11260000  1.0 0.1836742392
H  H123  1  0.36080000  0.63920000  0.16640000  1.0 0.1289477911
H  H124  1  0.54610000  0.45390000  0.74210000  1.0 0.1289477911
H  H125  1  0.58880000  0.41120000  0.88740000  1.0 0.185334382
H  H126  1  0.63920000  0.36080000  0.83360000  1.0 0.1355458523
H  H127  1  0.74210000  0.25790000  0.54610000  1.0 0.1289477911
H  H128  1  0.88740000  0.11260000  0.58880000  1.0 0.1836742392
H  H129  1  0.83360000  0.16640000  0.63920000  1.0 0.1355458523
H  H130  1  0.25790000  0.74210000  0.45390000  1.0 0.1289477911
H  H131  1  0.11260000  0.88740000  0.41120000  1.0 0.185334382
H  H132  1  0.16640000  0.83360000  0.36080000  1.0 0.1289477911
H  H133  1  0.45390000  0.25790000  0.54610000  1.0 0.1289477911
H  H134  1  0.41120000  0.11260000  0.58880000  1.0 0.1836742392
H  H135  1  0.36080000  0.16640000  0.63920000  1.0 0.1355458523
H  H136  1  0.54610000  0.74210000  0.45390000  1.0 0.1289477911
H  H137  1  0.58880000  0.88740000  0.41120000  1.0 0.1836742392
H  H138  1  0.63920000  0.83360000  0.36080000  1.0 0.1289477911
H  H139  1  0.74210000  0.54610000  0.25790000  1.0 0.1289477911
H  H140  1  0.88740000  0.58880000  0.11260000  1.0 0.1836742392
H  H141  1  0.83360000  0.63920000  0.16640000  1.0 0.1289477911
H  H142  1  0.25790000  0.45390000  0.74210000  1.0 0.1289477911
H  H143  1  0.11260000  0.41120000  0.88740000  1.0 0.1836742392
H  H144  1  0.16640000  0.36080000  0.83360000  1.0 0.1355458523
H  H145  1  0.74210000  0.25790000  0.45390000  1.0 0.1289477911
H  H146  1  0.88740000  0.11260000  0.41120000  1.0 0.1836742392
H  H147  1  0.83360000  0.16640000  0.36080000  1.0 0.1289477911
H  H148  1  0.25790000  0.74210000  0.54610000  1.0 0.1289477911
H  H149  1  0.11260000  0.88740000  0.58880000  1.0 0.185334382
H  H150  1  0.16640000  0.83360000  0.63920000  1.0 0.1355458523
H  H151  1  0.45390000  0.54610000  0.74210000  1.0 0.1289477911
H  H152  1  0.41120000  0.58880000  0.88740000  1.0 0.1836742392
H  H153  1  0.36080000  0.63920000  0.83360000  1.0 0.1355458523
H  H154  1  0.54610000  0.45390000  0.25790000  1.0 0.1289477911
H  H155  1  0.58880000  0.41120000  0.11260000  1.0 0.185334382
H  H156  1  0.63920000  0.36080000  0.16640000  1.0 0.1289477911
H  H157  1  0.54610000  0.25790000  0.74210000  1.0 0.1289477911
H  H158  1  0.58880000  0.11260000  0.88740000  1.0 0.1836742392
H  H159  1  0.63920000  0.16640000  0.83360000  1.0 0.1355458523
H  H160  1  0.45390000  0.74210000  0.25790000  1.0 0.1289477911
H  H161  1  0.41120000  0.88740000  0.11260000  1.0 0.1836742392
H  H162  1  0.36080000  0.83360000  0.16640000  1.0 0.1289477911
H  H163  1  0.25790000  0.54610000  0.45390000  1.0 0.1289477911
H  H164  1  0.11260000  0.58880000  0.41120000  1.0 0.1836742392
H  H165  1  0.16640000  0.63920000  0.36080000  1.0 0.1289477911
H  H166  1  0.74210000  0.45390000  0.54610000  1.0 0.1289477911
H  H167  1  0.88740000  0.41120000  0.58880000  1.0 0.1836742392
H  H168  1  0.83360000  0.36080000  0.63920000  1.0 0.1355458523
C  C1  1  0.54130000  0.03286000  0.50338000  1.0 -0.1391670877
C  C2  1  0.56264000  0.98174000  0.50470000  1.0 -0.0672058606
C  C3  1  0.52248000  0.97660000  0.50144000  1.0 0.038152404
C  C4  1  0.50338000  0.92246000  0.54130000  1.0 -0.1391670877
C  C5  1  0.50470000  0.95092000  0.56264000  1.0 -0.0672058606
C  C6  1  0.50144000  0.99948000  0.52248000  1.0 0.038152404
C  C7  1  0.03286000  0.54130000  0.92246000  1.0 -0.1391670877
C  C8  1  0.98174000  0.56264000  0.95092000  1.0 -0.0672058606
C  C9  1  0.97660000  0.52248000  0.99948000  1.0 0.038152404
C  C10  1  0.92246000  0.50338000  0.03286000  1.0 -0.1391670877
C  C11  1  0.95092000  0.50470000  0.98174000  1.0 -0.0672058606
C  C12  1  0.99948000  0.50144000  0.97660000  1.0 0.038152404
C  C13  1  0.03286000  0.50338000  0.54130000  1.0 -0.1391670877
C  C14  1  0.98174000  0.50470000  0.56264000  1.0 -0.0672058606
C  C15  1  0.97660000  0.50144000  0.52248000  1.0 0.038152404
C  C16  1  0.92246000  0.54130000  0.50338000  1.0 -0.1391670877
C  C17  1  0.95092000  0.56264000  0.50470000  1.0 -0.0672058606
C  C18  1  0.99948000  0.52248000  0.50144000  1.0 0.038152404
C  C19  1  0.54130000  0.92246000  0.03286000  1.0 -0.1391670877
C  C20  1  0.56264000  0.95092000  0.98174000  1.0 -0.0672058606
C  C21  1  0.52248000  0.99948000  0.97660000  1.0 0.038152404
C  C22  1  0.50338000  0.03286000  0.92246000  1.0 -0.1391670877
C  C23  1  0.50470000  0.98174000  0.95092000  1.0 -0.0672058606
C  C24  1  0.50144000  0.97660000  0.99948000  1.0 0.038152404
C  C25  1  0.50338000  0.54130000  0.03286000  1.0 -0.1391670877
C  C26  1  0.50470000  0.56264000  0.98174000  1.0 -0.0672058606
C  C27  1  0.50144000  0.52248000  0.97660000  1.0 0.038152404
C  C28  1  0.54130000  0.50338000  0.92246000  1.0 -0.1391670877
C  C29  1  0.56264000  0.50470000  0.95092000  1.0 -0.0672058606
C  C30  1  0.52248000  0.50144000  0.99948000  1.0 0.038152404
C  C31  1  0.92246000  0.03286000  0.54130000  1.0 -0.1391670877
C  C32  1  0.95092000  0.98174000  0.56264000  1.0 -0.0672058606
C  C33  1  0.99948000  0.97660000  0.52248000  1.0 0.038152404
C  C34  1  0.03286000  0.92246000  0.50338000  1.0 -0.1391670877
C  C35  1  0.98174000  0.95092000  0.50470000  1.0 -0.0672058606
C  C36  1  0.97660000  0.99948000  0.50144000  1.0 0.038152404
C  C37  1  0.45870000  0.07754000  0.49662000  1.0 -0.1391670877
C  C38  1  0.43736000  0.04908000  0.49530000  1.0 -0.0672058606
C  C39  1  0.47752000  0.00052000  0.49856000  1.0 0.038152404
C  C40  1  0.49662000  0.96714000  0.45870000  1.0 -0.1391670877
C  C41  1  0.49530000  0.01826000  0.43736000  1.0 -0.0672058606
C  C42  1  0.49856000  0.02340000  0.47752000  1.0 0.038152404
C  C43  1  0.96714000  0.49662000  0.07754000  1.0 -0.1391670877
C  C44  1  0.01826000  0.49530000  0.04908000  1.0 -0.0672058606
C  C45  1  0.02340000  0.49856000  0.00052000  1.0 0.038152404
C  C46  1  0.07754000  0.45870000  0.96714000  1.0 -0.1391670877
C  C47  1  0.04908000  0.43736000  0.01826000  1.0 -0.0672058606
C  C48  1  0.00052000  0.47752000  0.02340000  1.0 0.038152404
C  C49  1  0.96714000  0.07754000  0.45870000  1.0 -0.1391670877
C  C50  1  0.01826000  0.04908000  0.43736000  1.0 -0.0672058606
C  C51  1  0.02340000  0.00052000  0.47752000  1.0 0.038152404
C  C52  1  0.07754000  0.96714000  0.49662000  1.0 -0.1391670877
C  C53  1  0.04908000  0.01826000  0.49530000  1.0 -0.0672058606
C  C54  1  0.00052000  0.02340000  0.49856000  1.0 0.0340172177
C  C55  1  0.45870000  0.49662000  0.96714000  1.0 -0.1391670877
C  C56  1  0.43736000  0.49530000  0.01826000  1.0 -0.0672058606
C  C57  1  0.47752000  0.49856000  0.02340000  1.0 0.038152404
C  C58  1  0.49662000  0.45870000  0.07754000  1.0 -0.1391670877
C  C59  1  0.49530000  0.43736000  0.04908000  1.0 -0.0672058606
C  C60  1  0.49856000  0.47752000  0.00052000  1.0 0.038152404
C  C61  1  0.49662000  0.07754000  0.96714000  1.0 -0.1391670877
C  C62  1  0.49530000  0.04908000  0.01826000  1.0 -0.0672058606
C  C63  1  0.49856000  0.00052000  0.02340000  1.0 0.038152404
C  C64  1  0.45870000  0.96714000  0.07754000  1.0 -0.1391670877
C  C65  1  0.43736000  0.01826000  0.04908000  1.0 -0.0672058606
C  C66  1  0.47752000  0.02340000  0.00052000  1.0 0.038152404
C  C67  1  0.07754000  0.49662000  0.45870000  1.0 -0.1391670877
C  C68  1  0.04908000  0.49530000  0.43736000  1.0 -0.0672058606
C  C69  1  0.00052000  0.49856000  0.47752000  1.0 0.038152404
C  C70  1  0.96714000  0.45870000  0.49662000  1.0 -0.1391670877
C  C71  1  0.01826000  0.43736000  0.49530000  1.0 -0.0672058606
C  C72  1  0.02340000  0.47752000  0.49856000  1.0 0.038152404
C  C73  1  0.45870000  0.96714000  0.49662000  1.0 -0.1391670877
C  C74  1  0.43736000  0.01826000  0.49530000  1.0 -0.0672058606
C  C75  1  0.47752000  0.02340000  0.49856000  1.0 0.0340172177
C  C76  1  0.49662000  0.07754000  0.45870000  1.0 -0.1391670877
C  C77  1  0.49530000  0.04908000  0.43736000  1.0 -0.0672058606
C  C78  1  0.49856000  0.00052000  0.47752000  1.0 0.038152404
C  C79  1  0.96714000  0.45870000  0.07754000  1.0 -0.1391670877
C  C80  1  0.01826000  0.43736000  0.04908000  1.0 -0.0672058606
C  C81  1  0.02340000  0.47752000  0.00052000  1.0 0.038152404
C  C82  1  0.07754000  0.49662000  0.96714000  1.0 -0.1391670877
C  C83  1  0.04908000  0.49530000  0.01826000  1.0 -0.0672058606
C  C84  1  0.00052000  0.49856000  0.02340000  1.0 0.038152404
C  C85  1  0.96714000  0.49662000  0.45870000  1.0 -0.1391670877
C  C86  1  0.01826000  0.49530000  0.43736000  1.0 -0.0672058606
C  C87  1  0.02340000  0.49856000  0.47752000  1.0 0.038152404
C  C88  1  0.07754000  0.45870000  0.49662000  1.0 -0.1391670877
C  C89  1  0.04908000  0.43736000  0.49530000  1.0 -0.0672058606
C  C90  1  0.00052000  0.47752000  0.49856000  1.0 0.038152404
C  C91  1  0.45870000  0.07754000  0.96714000  1.0 -0.1391670877
C  C92  1  0.43736000  0.04908000  0.01826000  1.0 -0.0672058606
C  C93  1  0.47752000  0.00052000  0.02340000  1.0 0.038152404
C  C94  1  0.49662000  0.96714000  0.07754000  1.0 -0.1391670877
C  C95  1  0.49530000  0.01826000  0.04908000  1.0 -0.0672058606
C  C96  1  0.49856000  0.02340000  0.00052000  1.0 0.038152404
C  C97  1  0.49662000  0.45870000  0.96714000  1.0 -0.1391670877
C  C98  1  0.49530000  0.43736000  0.01826000  1.0 -0.0672058606
C  C99  1  0.49856000  0.47752000  0.02340000  1.0 0.038152404
C  C100  1  0.45870000  0.49662000  0.07754000  1.0 -0.1391670877
C  C101  1  0.43736000  0.49530000  0.04908000  1.0 -0.0672058606
C  C102  1  0.47752000  0.49856000  0.00052000  1.0 0.038152404
C  C103  1  0.07754000  0.96714000  0.45870000  1.0 -0.1391670877
C  C104  1  0.04908000  0.01826000  0.43736000  1.0 -0.0672058606
C  C105  1  0.00052000  0.02340000  0.47752000  1.0 0.038152404
C  C106  1  0.96714000  0.07754000  0.49662000  1.0 -0.1391670877
C  C107  1  0.01826000  0.04908000  0.49530000  1.0 -0.0672058606
C  C108  1  0.02340000  0.00052000  0.49856000  1.0 0.038152404
C  C109  1  0.54130000  0.92246000  0.50338000  1.0 -0.1391670877
C  C110  1  0.56264000  0.95092000  0.50470000  1.0 -0.0672058606
C  C111  1  0.52248000  0.99948000  0.50144000  1.0 0.038152404
C  C112  1  0.50338000  0.03286000  0.54130000  1.0 -0.1391670877
C  C113  1  0.50470000  0.98174000  0.56264000  1.0 -0.0672058606
C  C114  1  0.50144000  0.97660000  0.52248000  1.0 0.038152404
C  C115  1  0.03286000  0.50338000  0.92246000  1.0 -0.1391670877
C  C116  1  0.98174000  0.50470000  0.95092000  1.0 -0.0672058606
C  C117  1  0.97660000  0.50144000  0.99948000  1.0 0.038152404
C  C118  1  0.92246000  0.54130000  0.03286000  1.0 -0.1391670877
C  C119  1  0.95092000  0.56264000  0.98174000  1.0 -0.0672058606
C  C120  1  0.99948000  0.52248000  0.97660000  1.0 0.038152404
C  C121  1  0.03286000  0.92246000  0.54130000  1.0 -0.1391670877
C  C122  1  0.98174000  0.95092000  0.56264000  1.0 -0.0672058606
C  C123  1  0.97660000  0.99948000  0.52248000  1.0 0.038152404
C  C124  1  0.92246000  0.03286000  0.50338000  1.0 -0.1391670877
C  C125  1  0.95092000  0.98174000  0.50470000  1.0 -0.0672058606
C  C126  1  0.99948000  0.97660000  0.50144000  1.0 0.038152404
C  C127  1  0.54130000  0.50338000  0.03286000  1.0 -0.1391670877
C  C128  1  0.56264000  0.50470000  0.98174000  1.0 -0.0672058606
C  C129  1  0.52248000  0.50144000  0.97660000  1.0 0.038152404
C  C130  1  0.50338000  0.54130000  0.92246000  1.0 -0.1391670877
C  C131  1  0.50470000  0.56264000  0.95092000  1.0 -0.0672058606
C  C132  1  0.50144000  0.52248000  0.99948000  1.0 0.038152404
C  C133  1  0.50338000  0.92246000  0.03286000  1.0 -0.1391670877
C  C134  1  0.50470000  0.95092000  0.98174000  1.0 -0.0672058606
C  C135  1  0.50144000  0.99948000  0.97660000  1.0 0.038152404
C  C136  1  0.54130000  0.03286000  0.92246000  1.0 -0.1391670877
C  C137  1  0.56264000  0.98174000  0.95092000  1.0 -0.0672058606
C  C138  1  0.52248000  0.97660000  0.99948000  1.0 0.038152404
C  C139  1  0.92246000  0.50338000  0.54130000  1.0 -0.1391670877
C  C140  1  0.95092000  0.50470000  0.56264000  1.0 -0.0672058606
C  C141  1  0.99948000  0.50144000  0.52248000  1.0 0.038152404
C  C142  1  0.03286000  0.54130000  0.50338000  1.0 -0.1391670877
C  C143  1  0.98174000  0.56264000  0.50470000  1.0 -0.0672058606
C  C144  1  0.97660000  0.52248000  0.50144000  1.0 0.038152404
C  C145  1  0.50000000  0.07888000  0.50000000  1.0 -0.033863238
C  C146  1  0.50000000  0.92112000  0.50000000  1.0 -0.033863238
C  C147  1  0.07888000  0.50000000  0.92112000  1.0 -0.033863238
C  C148  1  0.92112000  0.50000000  0.07888000  1.0 -0.033863238
C  C149  1  0.07888000  0.50000000  0.50000000  1.0 -0.033863238
C  C150  1  0.92112000  0.50000000  0.50000000  1.0 -0.0357548623
C  C151  1  0.50000000  0.92112000  0.07888000  1.0 -0.033863238
C  C152  1  0.50000000  0.07888000  0.92112000  1.0 -0.0357548623
C  C153  1  0.50000000  0.50000000  0.07888000  1.0 -0.0357548623
C  C154  1  0.50000000  0.50000000  0.92112000  1.0 -0.0357548623
C  C155  1  0.92112000  0.07888000  0.50000000  1.0 -0.033863238
C  C156  1  0.07888000  0.92112000  0.50000000  1.0 -0.033863238
C  C157  1  0.63203000  0.25189000  0.36797000  1.0 0.574359638
C  C158  1  0.59848000  0.21780000  0.40152000  1.0 -0.033863238
C  C159  1  0.55445000  0.22887000  0.44555000  1.0 -0.1140944302
C  C160  1  0.52325000  0.19661000  0.47675000  1.0 -0.0071647957
C  C161  1  0.53678000  0.15268000  0.46322000  1.0 0.0962621344
C  C162  1  0.58026000  0.14154000  0.41974000  1.0 -0.1998294765
C  C163  1  0.60990000  0.17372000  0.39010000  1.0 -0.0855445067
C  C164  1  0.36797000  0.74811000  0.63203000  1.0 0.574359638
C  C165  1  0.40152000  0.78220000  0.59848000  1.0 -0.033863238
C  C166  1  0.44555000  0.77113000  0.55445000  1.0 -0.1140944302
C  C167  1  0.47675000  0.80339000  0.52325000  1.0 -0.0071647957
C  C168  1  0.46322000  0.84732000  0.53678000  1.0 0.0962621344
C  C169  1  0.41974000  0.85846000  0.58026000  1.0 -0.1998294765
C  C170  1  0.39010000  0.82628000  0.60990000  1.0 -0.0846411588
C  C171  1  0.25189000  0.63203000  0.74811000  1.0 0.574359638
C  C172  1  0.21780000  0.59848000  0.78220000  1.0 -0.033863238
C  C173  1  0.22887000  0.55445000  0.77113000  1.0 -0.1140944302
C  C174  1  0.19661000  0.52325000  0.80339000  1.0 -0.0071647957
C  C175  1  0.15268000  0.53678000  0.84732000  1.0 0.0962621344
C  C176  1  0.14154000  0.58026000  0.85846000  1.0 -0.1998294765
C  C177  1  0.17372000  0.60990000  0.82628000  1.0 -0.0846411588
C  C178  1  0.74811000  0.36797000  0.25189000  1.0 0.574359638
C  C179  1  0.78220000  0.40152000  0.21780000  1.0 -0.033863238
C  C180  1  0.77113000  0.44555000  0.22887000  1.0 -0.1140944302
C  C181  1  0.80339000  0.47675000  0.19661000  1.0 -0.0071647957
C  C182  1  0.84732000  0.46322000  0.15268000  1.0 0.0962621344
C  C183  1  0.85846000  0.41974000  0.14154000  1.0 -0.1998294765
C  C184  1  0.82628000  0.39010000  0.17372000  1.0 -0.0846411588
C  C185  1  0.25189000  0.36797000  0.63203000  1.0 0.5750371044
C  C186  1  0.21780000  0.40152000  0.59848000  1.0 -0.033863238
C  C187  1  0.22887000  0.44555000  0.55445000  1.0 -0.1140944302
C  C188  1  0.19661000  0.47675000  0.52325000  1.0 -0.0071647957
C  C189  1  0.15268000  0.46322000  0.53678000  1.0 0.0962621344
C  C190  1  0.14154000  0.41974000  0.58026000  1.0 -0.1998294765
C  C191  1  0.17372000  0.39010000  0.60990000  1.0 -0.0846411588
C  C192  1  0.74811000  0.63203000  0.36797000  1.0 0.574359638
C  C193  1  0.78220000  0.59848000  0.40152000  1.0 -0.033863238
C  C194  1  0.77113000  0.55445000  0.44555000  1.0 -0.1140944302
C  C195  1  0.80339000  0.52325000  0.47675000  1.0 -0.0071647957
C  C196  1  0.84732000  0.53678000  0.46322000  1.0 0.0962621344
C  C197  1  0.85846000  0.58026000  0.41974000  1.0 -0.1998294765
C  C198  1  0.82628000  0.60990000  0.39010000  1.0 -0.0846411588
C  C199  1  0.63203000  0.74811000  0.25189000  1.0 0.574359638
C  C200  1  0.59848000  0.78220000  0.21780000  1.0 -0.033863238
C  C201  1  0.55445000  0.77113000  0.22887000  1.0 -0.1140944302
C  C202  1  0.52325000  0.80339000  0.19661000  1.0 -0.0071647957
C  C203  1  0.53678000  0.84732000  0.15268000  1.0 0.0962621344
C  C204  1  0.58026000  0.85846000  0.14154000  1.0 -0.1998294765
C  C205  1  0.60990000  0.82628000  0.17372000  1.0 -0.0846411588
C  C206  1  0.36797000  0.25189000  0.74811000  1.0 0.5750371044
C  C207  1  0.40152000  0.21780000  0.78220000  1.0 -0.033863238
C  C208  1  0.44555000  0.22887000  0.77113000  1.0 -0.1152402932
C  C209  1  0.47675000  0.19661000  0.80339000  1.0 -0.0071647957
C  C210  1  0.46322000  0.15268000  0.84732000  1.0 0.0962621344
C  C211  1  0.41974000  0.14154000  0.85846000  1.0 -0.1998294765
C  C212  1  0.39010000  0.17372000  0.82628000  1.0 -0.0855445067
C  C213  1  0.36797000  0.63203000  0.25189000  1.0 0.574359638
C  C214  1  0.40152000  0.59848000  0.21780000  1.0 -0.033863238
C  C215  1  0.44555000  0.55445000  0.22887000  1.0 -0.1140944302
C  C216  1  0.47675000  0.52325000  0.19661000  1.0 -0.0071647957
C  C217  1  0.46322000  0.53678000  0.15268000  1.0 0.0962621344
C  C218  1  0.41974000  0.58026000  0.14154000  1.0 -0.1998294765
C  C219  1  0.39010000  0.60990000  0.17372000  1.0 -0.0846411588
C  C220  1  0.63203000  0.36797000  0.74811000  1.0 0.574359638
C  C221  1  0.59848000  0.40152000  0.78220000  1.0 -0.033863238
C  C222  1  0.55445000  0.44555000  0.77113000  1.0 -0.1140944302
C  C223  1  0.52325000  0.47675000  0.80339000  1.0 -0.0071647957
C  C224  1  0.53678000  0.46322000  0.84732000  1.0 0.0962621344
C  C225  1  0.58026000  0.41974000  0.85846000  1.0 -0.1998294765
C  C226  1  0.60990000  0.39010000  0.82628000  1.0 -0.0846411588
C  C227  1  0.74811000  0.25189000  0.63203000  1.0 0.574359638
C  C228  1  0.78220000  0.21780000  0.59848000  1.0 -0.033863238
C  C229  1  0.77113000  0.22887000  0.55445000  1.0 -0.1140944302
C  C230  1  0.80339000  0.19661000  0.52325000  1.0 -0.0071647957
C  C231  1  0.84732000  0.15268000  0.53678000  1.0 0.0944362556
C  C232  1  0.85846000  0.14154000  0.58026000  1.0 -0.1998294765
C  C233  1  0.82628000  0.17372000  0.60990000  1.0 -0.0846411588
C  C234  1  0.25189000  0.74811000  0.36797000  1.0 0.574359638
C  C235  1  0.21780000  0.78220000  0.40152000  1.0 -0.033863238
C  C236  1  0.22887000  0.77113000  0.44555000  1.0 -0.1140944302
C  C237  1  0.19661000  0.80339000  0.47675000  1.0 -0.0071647957
C  C238  1  0.15268000  0.84732000  0.46322000  1.0 0.0944362556
C  C239  1  0.14154000  0.85846000  0.41974000  1.0 -0.1998294765
C  C240  1  0.17372000  0.82628000  0.39010000  1.0 -0.0846411588
C  C241  1  0.36797000  0.25189000  0.63203000  1.0 0.574359638
C  C242  1  0.40152000  0.21780000  0.59848000  1.0 -0.033863238
C  C243  1  0.44555000  0.22887000  0.55445000  1.0 -0.1140944302
C  C244  1  0.47675000  0.19661000  0.52325000  1.0 -0.0071647957
C  C245  1  0.46322000  0.15268000  0.53678000  1.0 0.0944362556
C  C246  1  0.41974000  0.14154000  0.58026000  1.0 -0.1998294765
C  C247  1  0.39010000  0.17372000  0.60990000  1.0 -0.0855445067
C  C248  1  0.63203000  0.74811000  0.36797000  1.0 0.574359638
C  C249  1  0.59848000  0.78220000  0.40152000  1.0 -0.033863238
C  C250  1  0.55445000  0.77113000  0.44555000  1.0 -0.1140944302
C  C251  1  0.52325000  0.80339000  0.47675000  1.0 -0.0071647957
C  C252  1  0.53678000  0.84732000  0.46322000  1.0 0.0962621344
C  C253  1  0.58026000  0.85846000  0.41974000  1.0 -0.1998294765
C  C254  1  0.60990000  0.82628000  0.39010000  1.0 -0.0846411588
C  C255  1  0.74811000  0.63203000  0.25189000  1.0 0.574359638
C  C256  1  0.78220000  0.59848000  0.21780000  1.0 -0.033863238
C  C257  1  0.77113000  0.55445000  0.22887000  1.0 -0.1140944302
C  C258  1  0.80339000  0.52325000  0.19661000  1.0 -0.0071647957
C  C259  1  0.84732000  0.53678000  0.15268000  1.0 0.0962621344
C  C260  1  0.85846000  0.58026000  0.14154000  1.0 -0.1998294765
C  C261  1  0.82628000  0.60990000  0.17372000  1.0 -0.0855445067
C  C262  1  0.25189000  0.36797000  0.74811000  1.0 0.5750371044
C  C263  1  0.21780000  0.40152000  0.78220000  1.0 -0.033863238
C  C264  1  0.22887000  0.44555000  0.77113000  1.0 -0.1140944302
C  C265  1  0.19661000  0.47675000  0.80339000  1.0 -0.0071647957
C  C266  1  0.15268000  0.46322000  0.84732000  1.0 0.0962621344
C  C267  1  0.14154000  0.41974000  0.85846000  1.0 -0.1998294765
C  C268  1  0.17372000  0.39010000  0.82628000  1.0 -0.0846411588
C  C269  1  0.74811000  0.25189000  0.36797000  1.0 0.574359638
C  C270  1  0.78220000  0.21780000  0.40152000  1.0 -0.033863238
C  C271  1  0.77113000  0.22887000  0.44555000  1.0 -0.1140944302
C  C272  1  0.80339000  0.19661000  0.47675000  1.0 -0.0071647957
C  C273  1  0.84732000  0.15268000  0.46322000  1.0 0.0962621344
C  C274  1  0.85846000  0.14154000  0.41974000  1.0 -0.1998294765
C  C275  1  0.82628000  0.17372000  0.39010000  1.0 -0.0846411588
C  C276  1  0.25189000  0.74811000  0.63203000  1.0 0.5750371044
C  C277  1  0.21780000  0.78220000  0.59848000  1.0 -0.033863238
C  C278  1  0.22887000  0.77113000  0.55445000  1.0 -0.1140944302
C  C279  1  0.19661000  0.80339000  0.52325000  1.0 -0.0071647957
C  C280  1  0.15268000  0.84732000  0.53678000  1.0 0.0962621344
C  C281  1  0.14154000  0.85846000  0.58026000  1.0 -0.1998294765
C  C282  1  0.17372000  0.82628000  0.60990000  1.0 -0.0846411588
C  C283  1  0.36797000  0.63203000  0.74811000  1.0 0.5750371044
C  C284  1  0.40152000  0.59848000  0.78220000  1.0 -0.0357548623
C  C285  1  0.44555000  0.55445000  0.77113000  1.0 -0.1140944302
C  C286  1  0.47675000  0.52325000  0.80339000  1.0 -0.0071647957
C  C287  1  0.46322000  0.53678000  0.84732000  1.0 0.0962621344
C  C288  1  0.41974000  0.58026000  0.85846000  1.0 -0.1998294765
C  C289  1  0.39010000  0.60990000  0.82628000  1.0 -0.0846411588
C  C290  1  0.63203000  0.36797000  0.25189000  1.0 0.574359638
C  C291  1  0.59848000  0.40152000  0.21780000  1.0 -0.033863238
C  C292  1  0.55445000  0.44555000  0.22887000  1.0 -0.1140944302
C  C293  1  0.52325000  0.47675000  0.19661000  1.0 -0.0071647957
C  C294  1  0.53678000  0.46322000  0.15268000  1.0 0.0962621344
C  C295  1  0.58026000  0.41974000  0.14154000  1.0 -0.1998294765
C  C296  1  0.60990000  0.39010000  0.17372000  1.0 -0.0855445067
C  C297  1  0.63203000  0.25189000  0.74811000  1.0 0.5750371044
C  C298  1  0.59848000  0.21780000  0.78220000  1.0 -0.033863238
C  C299  1  0.55445000  0.22887000  0.77113000  1.0 -0.1140944302
C  C300  1  0.52325000  0.19661000  0.80339000  1.0 -0.0071647957
C  C301  1  0.53678000  0.15268000  0.84732000  1.0 0.0962621344
C  C302  1  0.58026000  0.14154000  0.85846000  1.0 -0.1998294765
C  C303  1  0.60990000  0.17372000  0.82628000  1.0 -0.0855445067
C  C304  1  0.36797000  0.74811000  0.25189000  1.0 0.574359638
C  C305  1  0.40152000  0.78220000  0.21780000  1.0 -0.033863238
C  C306  1  0.44555000  0.77113000  0.22887000  1.0 -0.1140944302
C  C307  1  0.47675000  0.80339000  0.19661000  1.0 -0.0071647957
C  C308  1  0.46322000  0.84732000  0.15268000  1.0 0.0962621344
C  C309  1  0.41974000  0.85846000  0.14154000  1.0 -0.1998294765
C  C310  1  0.39010000  0.82628000  0.17372000  1.0 -0.0846411588
C  C311  1  0.25189000  0.63203000  0.36797000  1.0 0.574359638
C  C312  1  0.21780000  0.59848000  0.40152000  1.0 -0.033863238
C  C313  1  0.22887000  0.55445000  0.44555000  1.0 -0.1140944302
C  C314  1  0.19661000  0.52325000  0.47675000  1.0 -0.0071647957
C  C315  1  0.15268000  0.53678000  0.46322000  1.0 0.0944362556
C  C316  1  0.14154000  0.58026000  0.41974000  1.0 -0.1998294765
C  C317  1  0.17372000  0.60990000  0.39010000  1.0 -0.0846411588
C  C318  1  0.74811000  0.36797000  0.63203000  1.0 0.5750371044
C  C319  1  0.78220000  0.40152000  0.59848000  1.0 -0.033863238
C  C320  1  0.77113000  0.44555000  0.55445000  1.0 -0.1140944302
C  C321  1  0.80339000  0.47675000  0.52325000  1.0 -0.0071647957
C  C322  1  0.84732000  0.46322000  0.53678000  1.0 0.0962621344
C  C323  1  0.85846000  0.41974000  0.58026000  1.0 -0.1998294765
C  C324  1  0.82628000  0.39010000  0.60990000  1.0 -0.0855445067
N  N1  1  0.50000000  0.12718000  0.50000000  1.0 -0.2323110438
N  N2  1  0.50000000  0.87282000  0.50000000  1.0 -0.2323110438
N  N3  1  0.12718000  0.50000000  0.87282000  1.0 -0.2323110438
N  N4  1  0.87282000  0.50000000  0.12718000  1.0 -0.2323110438
N  N5  1  0.12718000  0.50000000  0.50000000  1.0 -0.2323110438
N  N6  1  0.87282000  0.50000000  0.50000000  1.0 -0.2323110438
N  N7  1  0.50000000  0.87282000  0.12718000  1.0 -0.2323110438
N  N8  1  0.50000000  0.12718000  0.87282000  1.0 -0.2323110438
N  N9  1  0.50000000  0.50000000  0.12718000  1.0 -0.2323110438
N  N10  1  0.50000000  0.50000000  0.87282000  1.0 -0.2323110438
N  N11  1  0.87282000  0.12718000  0.50000000  1.0 -0.2323110438
N  N12  1  0.12718000  0.87282000  0.50000000  1.0 -0.2323110438
O  O1  1  0.61949000  0.29093000  0.38051000  1.0 -0.521422478
O  O2  1  0.67089000  0.23987000  0.32911000  1.0 -0.521422478
O  O3  1  0.38051000  0.70907000  0.61949000  1.0 -0.521422478
O  O4  1  0.32911000  0.76013000  0.67089000  1.0 -0.521422478
O  O5  1  0.29093000  0.61949000  0.70907000  1.0 -0.521422478
O  O6  1  0.23987000  0.67089000  0.76013000  1.0 -0.521422478
O  O7  1  0.70907000  0.38051000  0.29093000  1.0 -0.521422478
O  O8  1  0.76013000  0.32911000  0.23987000  1.0 -0.521422478
O  O9  1  0.29093000  0.38051000  0.61949000  1.0 -0.521422478
O  O10  1  0.23987000  0.32911000  0.67089000  1.0 -0.521422478
O  O11  1  0.70907000  0.61949000  0.38051000  1.0 -0.521422478
O  O12  1  0.76013000  0.67089000  0.32911000  1.0 -0.521422478
O  O13  1  0.61949000  0.70907000  0.29093000  1.0 -0.521422478
O  O14  1  0.67089000  0.76013000  0.23987000  1.0 -0.521422478
O  O15  1  0.38051000  0.29093000  0.70907000  1.0 -0.521422478
O  O16  1  0.32911000  0.23987000  0.76013000  1.0 -0.521422478
O  O17  1  0.38051000  0.61949000  0.29093000  1.0 -0.521422478
O  O18  1  0.32911000  0.67089000  0.23987000  1.0 -0.521422478
O  O19  1  0.61949000  0.38051000  0.70907000  1.0 -0.521422478
O  O20  1  0.67089000  0.32911000  0.76013000  1.0 -0.521422478
O  O21  1  0.70907000  0.29093000  0.61949000  1.0 -0.521422478
O  O22  1  0.76013000  0.23987000  0.67089000  1.0 -0.521422478
O  O23  1  0.29093000  0.70907000  0.38051000  1.0 -0.521422478
O  O24  1  0.23987000  0.76013000  0.32911000  1.0 -0.521422478
O  O25  1  0.38051000  0.29093000  0.61949000  1.0 -0.521422478
O  O26  1  0.32911000  0.23987000  0.67089000  1.0 -0.521422478
O  O27  1  0.61949000  0.70907000  0.38051000  1.0 -0.521422478
O  O28  1  0.67089000  0.76013000  0.32911000  1.0 -0.521422478
O  O29  1  0.70907000  0.61949000  0.29093000  1.0 -0.521422478
O  O30  1  0.76013000  0.67089000  0.23987000  1.0 -0.521422478
O  O31  1  0.29093000  0.38051000  0.70907000  1.0 -0.521422478
O  O32  1  0.23987000  0.32911000  0.76013000  1.0 -0.521422478
O  O33  1  0.70907000  0.29093000  0.38051000  1.0 -0.521422478
O  O34  1  0.76013000  0.23987000  0.32911000  1.0 -0.521422478
O  O35  1  0.29093000  0.70907000  0.61949000  1.0 -0.521422478
O  O36  1  0.23987000  0.76013000  0.67089000  1.0 -0.521422478
O  O37  1  0.38051000  0.61949000  0.70907000  1.0 -0.521422478
O  O38  1  0.32911000  0.67089000  0.76013000  1.0 -0.521422478
O  O39  1  0.61949000  0.38051000  0.29093000  1.0 -0.521422478
O  O40  1  0.67089000  0.32911000  0.23987000  1.0 -0.521422478
O  O41  1  0.61949000  0.29093000  0.70907000  1.0 -0.521422478
O  O42  1  0.67089000  0.23987000  0.76013000  1.0 -0.521422478
O  O43  1  0.38051000  0.70907000  0.29093000  1.0 -0.521422478
O  O44  1  0.32911000  0.76013000  0.23987000  1.0 -0.521422478
O  O45  1  0.29093000  0.61949000  0.38051000  1.0 -0.521422478
O  O46  1  0.23987000  0.67089000  0.32911000  1.0 -0.521422478
O  O47  1  0.70907000  0.38051000  0.61949000  1.0 -0.521422478
O  O48  1  0.76013000  0.32911000  0.67089000  1.0 -0.521422478
