# DDEC6 charges by PACMAN v1.1 (https://github.com/mtap-research/PACMAN-charge/)
data_JOWRAR_ASR_pacman
_symmetry_space_group_name_H-M   'P 1'
_cell_length_a   41.43960000
_cell_length_b   41.43960000
_cell_length_c   41.45000000
_cell_angle_alpha   60.18520000
_cell_angle_beta   119.81500000
_cell_angle_gamma   119.79200000
_symmetry_Int_Tables_number   1
_chemical_formula_structural   Cu12H184C329(NO4)12
_chemical_formula_sum   'Cu24 H368 C658 N24 O96'
_cell_volume   50551.25172014
_cell_formula_units_Z   2
loop_
 _symmetry_equiv_pos_site_id
 _symmetry_equiv_pos_as_xyz
  1  'x, y, z'
loop_
 _atom_site_type_symbol
 _atom_site_label
 _atom_site_symmetry_multiplicity
 _atom_site_fract_x
 _atom_site_fract_y
 _atom_site_fract_z
 _atom_site_occupancy
 _atom_site_charge
Cu  Cu1  1  0.89351000  0.34057000  0.04130000  1.0 0.84884607
Cu  Cu2  1  0.93926000  0.38512000  0.99692000  1.0 0.8212783208
Cu  Cu3  1  0.89385000  0.34539000  0.27597000  1.0 0.84884607
Cu  Cu4  1  0.93783000  0.39075000  0.32027000  1.0 0.8583078455
Cu  Cu5  1  0.65943000  0.10649000  0.04130000  1.0 0.84884607
Cu  Cu6  1  0.61488000  0.06074000  0.99692000  1.0 0.8212783208
Cu  Cu7  1  0.65461000  0.10615000  0.27597000  1.0 0.84884607
Cu  Cu8  1  0.60925000  0.06217000  0.32027000  1.0 0.8583078455
Cu  Cu9  1  0.89391000  0.10609000  0.28414000  1.0 0.84884607
Cu  Cu10  1  0.65729000  0.34271000  0.04093000  1.0 0.841977047
Cu  Cu11  1  0.61250000  0.38750000  0.99522000  1.0 0.84884607
Cu  Cu12  1  0.93888000  0.06112000  0.32978000  1.0 0.8583078455
Cu  Cu13  1  0.34057000  0.89351000  0.95870000  1.0 0.84884607
Cu  Cu14  1  0.38512000  0.93926000  0.00308000  1.0 0.8212783208
Cu  Cu15  1  0.34539000  0.89385000  0.72403000  1.0 0.84884607
Cu  Cu16  1  0.39075000  0.93783000  0.67973000  1.0 0.8583078455
Cu  Cu17  1  0.10649000  0.65943000  0.95870000  1.0 0.84884607
Cu  Cu18  1  0.06074000  0.61488000  0.00308000  1.0 0.8212783208
Cu  Cu19  1  0.10615000  0.65461000  0.72403000  1.0 0.84884607
Cu  Cu20  1  0.06217000  0.60925000  0.67973000  1.0 0.8583078455
Cu  Cu21  1  0.10609000  0.89391000  0.71586000  1.0 0.84884607
Cu  Cu22  1  0.34271000  0.65729000  0.95907000  1.0 0.841977047
Cu  Cu23  1  0.38750000  0.61250000  0.00478000  1.0 0.84884607
Cu  Cu24  1  0.06112000  0.93888000  0.67022000  1.0 0.8583078455
H  H1  1  0.95480000  0.26040000  0.34220000  1.0 0.1397867812
H  H2  1  0.05960000  0.29140000  0.45080000  1.0 0.1290074618
H  H3  1  0.02040000  0.33120000  0.40830000  1.0 0.1290074618
H  H4  1  0.95480000  0.19020000  0.34450000  1.0 0.1462125633
H  H5  1  0.02010000  0.11870000  0.41660000  1.0 0.1290074618
H  H6  1  0.05850000  0.15790000  0.45650000  1.0 0.1290074618
H  H7  1  0.80990000  0.04430000  0.19950000  1.0 0.1462125633
H  H8  1  0.83990000  0.93470000  0.23470000  1.0 0.1290074618
H  H9  1  0.87850000  0.97610000  0.27230000  1.0 0.1290074618
H  H10  1  0.74160000  0.04380000  0.13070000  1.0 0.1397867812
H  H11  1  0.67220000  0.97480000  0.06280000  1.0 0.1290074618
H  H12  1  0.71070000  0.93410000  0.10300000  1.0 0.1290074618
H  H13  1  0.81570000  0.25290000  0.98410000  1.0 0.1397867812
H  H14  1  0.85150000  0.27870000  0.88170000  1.0 0.1290074618
H  H15  1  0.88850000  0.31930000  0.92010000  1.0 0.1200884303
H  H16  1  0.83800000  0.21460000  0.87550000  1.0 0.1021307074
H  H17  1  0.83690000  0.21650000  0.81810000  1.0 0.0898125337
H  H18  1  0.72700000  0.22160000  0.76360000  1.0 0.1021307074
H  H19  1  0.72810000  0.21990000  0.82090000  1.0 0.1104632036
H  H20  1  0.79250000  0.27590000  0.72260000  1.0 0.0818345591
H  H21  1  0.78700000  0.27740000  0.66360000  1.0 0.0898125337
H  H22  1  0.76500000  0.16040000  0.70720000  1.0 0.0818345591
H  H23  1  0.77030000  0.15890000  0.76650000  1.0 0.0898125337
H  H24  1  0.72210000  0.21610000  0.61340000  1.0 0.0818345591
H  H25  1  0.72010000  0.21670000  0.55620000  1.0 0.0818345591
H  H26  1  0.83430000  0.22530000  0.60560000  1.0 0.0898125337
H  H27  1  0.83630000  0.22470000  0.66280000  1.0 0.0818345591
H  H28  1  0.71970000  0.23050000  0.50100000  1.0 0.1021307074
H  H29  1  0.71820000  0.23080000  0.44410000  1.0 0.1104632036
H  H30  1  0.82650000  0.22150000  0.50020000  1.0 0.1021307074
H  H31  1  0.82790000  0.22110000  0.55700000  1.0 0.0898125337
H  H32  1  0.95460000  0.40420000  0.12410000  1.0 0.1397867812
H  H33  1  0.06010000  0.51230000  0.09040000  1.0 0.1290074618
H  H34  1  0.01860000  0.47240000  0.05130000  1.0 0.1397867812
H  H35  1  0.95600000  0.40460000  0.19310000  1.0 0.1397867812
H  H36  1  0.02440000  0.47140000  0.26320000  1.0 0.1290074618
H  H37  1  0.06520000  0.51040000  0.22500000  1.0 0.1290074618
H  H38  1  0.80710000  0.26230000  0.33440000  1.0 0.1397867812
H  H39  1  0.83690000  0.29270000  0.44200000  1.0 0.1200884303
H  H40  1  0.87620000  0.33140000  0.40230000  1.0 0.1290074618
H  H41  1  0.81040000  0.40780000  0.19060000  1.0 0.1462125633
H  H42  1  0.84020000  0.51560000  0.22060000  1.0 0.1290074618
H  H43  1  0.87930000  0.47550000  0.25970000  1.0 0.1290074618
H  H44  1  0.74130000  0.40610000  0.12340000  1.0 0.1462125633
H  H45  1  0.66840000  0.47000000  0.05470000  1.0 0.1290074618
H  H46  1  0.70820000  0.51280000  0.09070000  1.0 0.1290074618
H  H47  1  0.73440000  0.50860000  0.18410000  1.0 0.1397867812
H  H48  1  0.73670000  0.56270000  0.18950000  1.0 0.1104632036
H  H49  1  0.81290000  0.63390000  0.12940000  1.0 0.1104632036
H  H50  1  0.81060000  0.57980000  0.12390000  1.0 0.1397867812
H  H51  1  0.12190000  0.50830000  0.21650000  1.0 0.1290074618
H  H52  1  0.17990000  0.56170000  0.21780000  1.0 0.1104632036
H  H53  1  0.12850000  0.62010000  0.10540000  1.0 0.1104632036
H  H54  1  0.07050000  0.56670000  0.10410000  1.0 0.1290074618
H  H55  1  0.21400000  0.62660000  0.21890000  1.0 0.1104632036
H  H56  1  0.27000000  0.68220000  0.21890000  1.0 0.1104632036
H  H57  1  0.24890000  0.70270000  0.10590000  1.0 0.1104632036
H  H58  1  0.19280000  0.64720000  0.10590000  1.0 0.1200884303
H  H59  1  0.81590000  0.93970000  0.14310000  1.0 0.1397867812
H  H60  1  0.81770000  0.88510000  0.14220000  1.0 0.1200884303
H  H61  1  0.73650000  0.81450000  0.19650000  1.0 0.1200884303
H  H62  1  0.73470000  0.86910000  0.19730000  1.0 0.1290074618
H  H63  1  0.12140000  0.27460000  0.45010000  1.0 0.1397867812
H  H64  1  0.17710000  0.27590000  0.50600000  1.0 0.1104632036
H  H65  1  0.11390000  0.17790000  0.57070000  1.0 0.1104632036
H  H66  1  0.05810000  0.17650000  0.51480000  1.0 0.1397867812
H  H67  1  0.16590000  0.17210000  0.61200000  1.0 0.1104632036
H  H68  1  0.22000000  0.17360000  0.66930000  1.0 0.1104632036
H  H69  1  0.27760000  0.28360000  0.61240000  1.0 0.1104632036
H  H70  1  0.22340000  0.28220000  0.55510000  1.0 0.1104632036
H  H71  1  0.33040000  0.27360000  0.65270000  1.0 0.1104632036
H  H72  1  0.38720000  0.27360000  0.70740000  1.0 0.1104632036
H  H73  1  0.32380000  0.18020000  0.77490000  1.0 0.1021307074
H  H74  1  0.26700000  0.18020000  0.72020000  1.0 0.1021307074
H  H75  1  0.37710000  0.17470000  0.81530000  1.0 0.1104632036
H  H76  1  0.43330000  0.17530000  0.87080000  1.0 0.1290074618
H  H77  1  0.49330000  0.27990000  0.80880000  1.0 0.1397867812
H  H78  1  0.43710000  0.27930000  0.75330000  1.0 0.1104632036
H  H79  1  0.59920000  0.19100000  0.97740000  1.0 0.1397867812
H  H80  1  0.53700000  0.12700000  0.90490000  1.0 0.1200884303
H  H81  1  0.49680000  0.16580000  0.86520000  1.0 0.1290074618
H  H82  1  0.49120000  0.29000000  0.87090000  1.0 0.1290074618
H  H83  1  0.52920000  0.32740000  0.91250000  1.0 0.1290074618
H  H84  1  0.59850000  0.25990000  0.97880000  1.0 0.1462125633
H  H85  1  0.75060000  0.61280000  0.20320000  1.0 0.1104632036
H  H86  1  0.75990000  0.67010000  0.20860000  1.0 0.1104632036
H  H87  1  0.79620000  0.73440000  0.11430000  1.0 0.1104632036
H  H88  1  0.78690000  0.67710000  0.10890000  1.0 0.1104632036
H  H89  1  0.78380000  0.72700000  0.21670000  1.0 0.1104632036
H  H90  1  0.79640000  0.78800000  0.21710000  1.0 0.1200884303
H  H91  1  0.77250000  0.83250000  0.09970000  1.0 0.1290074618
H  H92  1  0.75990000  0.77150000  0.09930000  1.0 0.1104632036
H  H93  1  0.73960000  0.04520000  0.34220000  1.0 0.1397867812
H  H94  1  0.70860000  0.94040000  0.45080000  1.0 0.1290074618
H  H95  1  0.66880000  0.97960000  0.40830000  1.0 0.1290074618
H  H96  1  0.80980000  0.04520000  0.34450000  1.0 0.1462125633
H  H97  1  0.88130000  0.97990000  0.41660000  1.0 0.1290074618
H  H98  1  0.84210000  0.94150000  0.45650000  1.0 0.1290074618
H  H99  1  0.95570000  0.19010000  0.19950000  1.0 0.1462125633
H  H100  1  0.06530000  0.16010000  0.23470000  1.0 0.1290074618
H  H101  1  0.02390000  0.12150000  0.27230000  1.0 0.1290074618
H  H102  1  0.95620000  0.25840000  0.13070000  1.0 0.1397867812
H  H103  1  0.02520000  0.32780000  0.06280000  1.0 0.1290074618
H  H104  1  0.06590000  0.28930000  0.10300000  1.0 0.1290074618
H  H105  1  0.74710000  0.18430000  0.98410000  1.0 0.1397867812
H  H106  1  0.72130000  0.14850000  0.88170000  1.0 0.1290074618
H  H107  1  0.68070000  0.11150000  0.92010000  1.0 0.1200884303
H  H108  1  0.78540000  0.16200000  0.87550000  1.0 0.1021307074
H  H109  1  0.78350000  0.16310000  0.81810000  1.0 0.0898125337
H  H110  1  0.77840000  0.27300000  0.76360000  1.0 0.1021307074
H  H111  1  0.78010000  0.27190000  0.82090000  1.0 0.1104632036
H  H112  1  0.72410000  0.20750000  0.72260000  1.0 0.0818345591
H  H113  1  0.72260000  0.21300000  0.66360000  1.0 0.0898125337
H  H114  1  0.83960000  0.23500000  0.70720000  1.0 0.0818345591
H  H115  1  0.84110000  0.22970000  0.76650000  1.0 0.0898125337
H  H116  1  0.78390000  0.27790000  0.61340000  1.0 0.0818345591
H  H117  1  0.78330000  0.27990000  0.55620000  1.0 0.0818345591
H  H118  1  0.77470000  0.16570000  0.60560000  1.0 0.0898125337
H  H119  1  0.77530000  0.16370000  0.66280000  1.0 0.0818345591
H  H120  1  0.76950000  0.28030000  0.50100000  1.0 0.1021307074
H  H121  1  0.76920000  0.28180000  0.44410000  1.0 0.1104632036
H  H122  1  0.77850000  0.17350000  0.50020000  1.0 0.1021307074
H  H123  1  0.77890000  0.17210000  0.55700000  1.0 0.0898125337
H  H124  1  0.59580000  0.04540000  0.12410000  1.0 0.1397867812
H  H125  1  0.48770000  0.93990000  0.09040000  1.0 0.1290074618
H  H126  1  0.52760000  0.98140000  0.05130000  1.0 0.1397867812
H  H127  1  0.59540000  0.04400000  0.19310000  1.0 0.1397867812
H  H128  1  0.52860000  0.97560000  0.26320000  1.0 0.1290074618
H  H129  1  0.48960000  0.93480000  0.22500000  1.0 0.1290074618
H  H130  1  0.73770000  0.19290000  0.33440000  1.0 0.1397867812
H  H131  1  0.70730000  0.16310000  0.44200000  1.0 0.1200884303
H  H132  1  0.66860000  0.12380000  0.40230000  1.0 0.1290074618
H  H133  1  0.59220000  0.18960000  0.19060000  1.0 0.1462125633
H  H134  1  0.48440000  0.15980000  0.22060000  1.0 0.1290074618
H  H135  1  0.52450000  0.12070000  0.25970000  1.0 0.1290074618
H  H136  1  0.59390000  0.25870000  0.12340000  1.0 0.1462125633
H  H137  1  0.53000000  0.33160000  0.05470000  1.0 0.1290074618
H  H138  1  0.48720000  0.29180000  0.09070000  1.0 0.1290074618
H  H139  1  0.49140000  0.26560000  0.18410000  1.0 0.1397867812
H  H140  1  0.43730000  0.26330000  0.18950000  1.0 0.1104632036
H  H141  1  0.36610000  0.18710000  0.12940000  1.0 0.1104632036
H  H142  1  0.42020000  0.18940000  0.12390000  1.0 0.1397867812
H  H143  1  0.49170000  0.87810000  0.21650000  1.0 0.1290074618
H  H144  1  0.43830000  0.82010000  0.21780000  1.0 0.1104632036
H  H145  1  0.37990000  0.87150000  0.10540000  1.0 0.1104632036
H  H146  1  0.43330000  0.92950000  0.10410000  1.0 0.1290074618
H  H147  1  0.37340000  0.78600000  0.21890000  1.0 0.1104632036
H  H148  1  0.31780000  0.73000000  0.21890000  1.0 0.1104632036
H  H149  1  0.29730000  0.75110000  0.10590000  1.0 0.1104632036
H  H150  1  0.35280000  0.80720000  0.10590000  1.0 0.1200884303
H  H151  1  0.06030000  0.18410000  0.14310000  1.0 0.1397867812
H  H152  1  0.11490000  0.18230000  0.14220000  1.0 0.1200884303
H  H153  1  0.18550000  0.26350000  0.19650000  1.0 0.1200884303
H  H154  1  0.13090000  0.26530000  0.19730000  1.0 0.1290074618
H  H155  1  0.72540000  0.87860000  0.45010000  1.0 0.1397867812
H  H156  1  0.72410000  0.82290000  0.50600000  1.0 0.1104632036
H  H157  1  0.82210000  0.88610000  0.57070000  1.0 0.1104632036
H  H158  1  0.82350000  0.94190000  0.51480000  1.0 0.1397867812
H  H159  1  0.82790000  0.83410000  0.61200000  1.0 0.1104632036
H  H160  1  0.82640000  0.78000000  0.66930000  1.0 0.1104632036
H  H161  1  0.71640000  0.72240000  0.61240000  1.0 0.1104632036
H  H162  1  0.71780000  0.77660000  0.55510000  1.0 0.1104632036
H  H163  1  0.72640000  0.66960000  0.65270000  1.0 0.1104632036
H  H164  1  0.72640000  0.61280000  0.70740000  1.0 0.1104632036
H  H165  1  0.81980000  0.67620000  0.77490000  1.0 0.1021307074
H  H166  1  0.81980000  0.73300000  0.72020000  1.0 0.1021307074
H  H167  1  0.82530000  0.62290000  0.81530000  1.0 0.1104632036
H  H168  1  0.82470000  0.56670000  0.87080000  1.0 0.1290074618
H  H169  1  0.72010000  0.50670000  0.80880000  1.0 0.1290074618
H  H170  1  0.72070000  0.56290000  0.75330000  1.0 0.1104632036
H  H171  1  0.80900000  0.40080000  0.97740000  1.0 0.1397867812
H  H172  1  0.87300000  0.46300000  0.90490000  1.0 0.1200884303
H  H173  1  0.83420000  0.50320000  0.86520000  1.0 0.1290074618
H  H174  1  0.71000000  0.50880000  0.87090000  1.0 0.1290074618
H  H175  1  0.67260000  0.47080000  0.91250000  1.0 0.1290074618
H  H176  1  0.74010000  0.40150000  0.97880000  1.0 0.1462125633
H  H177  1  0.38720000  0.24940000  0.20320000  1.0 0.1104632036
H  H178  1  0.32990000  0.24010000  0.20860000  1.0 0.1104632036
H  H179  1  0.26560000  0.20380000  0.11430000  1.0 0.1104632036
H  H180  1  0.32290000  0.21310000  0.10890000  1.0 0.1104632036
H  H181  1  0.27300000  0.21620000  0.21670000  1.0 0.1104632036
H  H182  1  0.21200000  0.20360000  0.21710000  1.0 0.1200884303
H  H183  1  0.16750000  0.22750000  0.09970000  1.0 0.1290074618
H  H184  1  0.22850000  0.24010000  0.09930000  1.0 0.1104632036
H  H185  1  0.26040000  0.95480000  0.65780000  1.0 0.1397867812
H  H186  1  0.29140000  0.05960000  0.54920000  1.0 0.1290074618
H  H187  1  0.33120000  0.02040000  0.59170000  1.0 0.1290074618
H  H188  1  0.19020000  0.95480000  0.65550000  1.0 0.1462125633
H  H189  1  0.11870000  0.02010000  0.58340000  1.0 0.1290074618
H  H190  1  0.15790000  0.05850000  0.54350000  1.0 0.1290074618
H  H191  1  0.04430000  0.80990000  0.80050000  1.0 0.1462125633
H  H192  1  0.93470000  0.83990000  0.76530000  1.0 0.1290074618
H  H193  1  0.97610000  0.87850000  0.72770000  1.0 0.1290074618
H  H194  1  0.04380000  0.74160000  0.86930000  1.0 0.1397867812
H  H195  1  0.97480000  0.67220000  0.93720000  1.0 0.1290074618
H  H196  1  0.93410000  0.71070000  0.89700000  1.0 0.1290074618
H  H197  1  0.25290000  0.81570000  0.01590000  1.0 0.1397867812
H  H198  1  0.27870000  0.85150000  0.11830000  1.0 0.1290074618
H  H199  1  0.31930000  0.88850000  0.07990000  1.0 0.1200884303
H  H200  1  0.21460000  0.83800000  0.12450000  1.0 0.1021307074
H  H201  1  0.21650000  0.83690000  0.18190000  1.0 0.0898125337
H  H202  1  0.22160000  0.72700000  0.23640000  1.0 0.1021307074
H  H203  1  0.21990000  0.72810000  0.17910000  1.0 0.1104632036
H  H204  1  0.27590000  0.79250000  0.27740000  1.0 0.0818345591
H  H205  1  0.27740000  0.78700000  0.33640000  1.0 0.0898125337
H  H206  1  0.16040000  0.76500000  0.29280000  1.0 0.0818345591
H  H207  1  0.15890000  0.77030000  0.23350000  1.0 0.0898125337
H  H208  1  0.21610000  0.72210000  0.38660000  1.0 0.0818345591
H  H209  1  0.21670000  0.72010000  0.44380000  1.0 0.0818345591
H  H210  1  0.22530000  0.83430000  0.39440000  1.0 0.0898125337
H  H211  1  0.22470000  0.83630000  0.33720000  1.0 0.0818345591
H  H212  1  0.23050000  0.71970000  0.49900000  1.0 0.1021307074
H  H213  1  0.23080000  0.71820000  0.55590000  1.0 0.1104632036
H  H214  1  0.22150000  0.82650000  0.49980000  1.0 0.1021307074
H  H215  1  0.22110000  0.82790000  0.44300000  1.0 0.0898125337
H  H216  1  0.40420000  0.95460000  0.87590000  1.0 0.1397867812
H  H217  1  0.51230000  0.06010000  0.90960000  1.0 0.1290074618
H  H218  1  0.47240000  0.01860000  0.94870000  1.0 0.1397867812
H  H219  1  0.40460000  0.95600000  0.80690000  1.0 0.1397867812
H  H220  1  0.47140000  0.02440000  0.73680000  1.0 0.1290074618
H  H221  1  0.51040000  0.06520000  0.77500000  1.0 0.1290074618
H  H222  1  0.26230000  0.80710000  0.66560000  1.0 0.1397867812
H  H223  1  0.29270000  0.83690000  0.55800000  1.0 0.1200884303
H  H224  1  0.33140000  0.87620000  0.59770000  1.0 0.1290074618
H  H225  1  0.40780000  0.81040000  0.80940000  1.0 0.1462125633
H  H226  1  0.51560000  0.84020000  0.77940000  1.0 0.1290074618
H  H227  1  0.47550000  0.87930000  0.74030000  1.0 0.1290074618
H  H228  1  0.40610000  0.74130000  0.87660000  1.0 0.1462125633
H  H229  1  0.47000000  0.66840000  0.94530000  1.0 0.1290074618
H  H230  1  0.51280000  0.70820000  0.90930000  1.0 0.1290074618
H  H231  1  0.50860000  0.73440000  0.81590000  1.0 0.1397867812
H  H232  1  0.56270000  0.73670000  0.81050000  1.0 0.1104632036
H  H233  1  0.63390000  0.81290000  0.87060000  1.0 0.1104632036
H  H234  1  0.57980000  0.81060000  0.87610000  1.0 0.1397867812
H  H235  1  0.50830000  0.12190000  0.78350000  1.0 0.1290074618
H  H236  1  0.56170000  0.17990000  0.78220000  1.0 0.1104632036
H  H237  1  0.62010000  0.12850000  0.89460000  1.0 0.1104632036
H  H238  1  0.56670000  0.07050000  0.89590000  1.0 0.1290074618
H  H239  1  0.62660000  0.21400000  0.78110000  1.0 0.1104632036
H  H240  1  0.68220000  0.27000000  0.78110000  1.0 0.1104632036
H  H241  1  0.70270000  0.24890000  0.89410000  1.0 0.1104632036
H  H242  1  0.64720000  0.19280000  0.89410000  1.0 0.1200884303
H  H243  1  0.93970000  0.81590000  0.85690000  1.0 0.1397867812
H  H244  1  0.88510000  0.81770000  0.85780000  1.0 0.1200884303
H  H245  1  0.81450000  0.73650000  0.80350000  1.0 0.1200884303
H  H246  1  0.86910000  0.73470000  0.80270000  1.0 0.1290074618
H  H247  1  0.27460000  0.12140000  0.54990000  1.0 0.1397867812
H  H248  1  0.27590000  0.17710000  0.49400000  1.0 0.1104632036
H  H249  1  0.17790000  0.11390000  0.42930000  1.0 0.1104632036
H  H250  1  0.17650000  0.05810000  0.48520000  1.0 0.1397867812
H  H251  1  0.17210000  0.16590000  0.38800000  1.0 0.1104632036
H  H252  1  0.17360000  0.22000000  0.33070000  1.0 0.1104632036
H  H253  1  0.28360000  0.27760000  0.38760000  1.0 0.1104632036
H  H254  1  0.28220000  0.22340000  0.44490000  1.0 0.1104632036
H  H255  1  0.27360000  0.33040000  0.34730000  1.0 0.1104632036
H  H256  1  0.27360000  0.38720000  0.29260000  1.0 0.1104632036
H  H257  1  0.18020000  0.32380000  0.22510000  1.0 0.1021307074
H  H258  1  0.18020000  0.26700000  0.27980000  1.0 0.1021307074
H  H259  1  0.17470000  0.37710000  0.18470000  1.0 0.1104632036
H  H260  1  0.17530000  0.43330000  0.12920000  1.0 0.1290074618
H  H261  1  0.27990000  0.49330000  0.19120000  1.0 0.1290074618
H  H262  1  0.27930000  0.43710000  0.24670000  1.0 0.1104632036
H  H263  1  0.19100000  0.59920000  0.02260000  1.0 0.1397867812
H  H264  1  0.12700000  0.53700000  0.09510000  1.0 0.1200884303
H  H265  1  0.16580000  0.49680000  0.13480000  1.0 0.1290074618
H  H266  1  0.29000000  0.49120000  0.12910000  1.0 0.1290074618
H  H267  1  0.32740000  0.52920000  0.08750000  1.0 0.1290074618
H  H268  1  0.25990000  0.59850000  0.02120000  1.0 0.1462125633
H  H269  1  0.61280000  0.75060000  0.79680000  1.0 0.1104632036
H  H270  1  0.67010000  0.75990000  0.79140000  1.0 0.1104632036
H  H271  1  0.73440000  0.79620000  0.88570000  1.0 0.1104632036
H  H272  1  0.67710000  0.78690000  0.89110000  1.0 0.1104632036
H  H273  1  0.72700000  0.78380000  0.78330000  1.0 0.1104632036
H  H274  1  0.78800000  0.79640000  0.78290000  1.0 0.1200884303
H  H275  1  0.83250000  0.77250000  0.90030000  1.0 0.1290074618
H  H276  1  0.77150000  0.75990000  0.90070000  1.0 0.1104632036
H  H277  1  0.04520000  0.73960000  0.65780000  1.0 0.1462125633
H  H278  1  0.94040000  0.70860000  0.54920000  1.0 0.1290074618
H  H279  1  0.97960000  0.66880000  0.59170000  1.0 0.1290074618
H  H280  1  0.04520000  0.80980000  0.65550000  1.0 0.1462125633
H  H281  1  0.97990000  0.88130000  0.58340000  1.0 0.1290074618
H  H282  1  0.94150000  0.84210000  0.54350000  1.0 0.1290074618
H  H283  1  0.19010000  0.95570000  0.80050000  1.0 0.1462125633
H  H284  1  0.16010000  0.06530000  0.76530000  1.0 0.1290074618
H  H285  1  0.12150000  0.02390000  0.72770000  1.0 0.1290074618
H  H286  1  0.25840000  0.95620000  0.86930000  1.0 0.1397867812
H  H287  1  0.32780000  0.02520000  0.93720000  1.0 0.1290074618
H  H288  1  0.28930000  0.06590000  0.89700000  1.0 0.1290074618
H  H289  1  0.18430000  0.74710000  0.01590000  1.0 0.1397867812
H  H290  1  0.14850000  0.72130000  0.11830000  1.0 0.1290074618
H  H291  1  0.11150000  0.68070000  0.07990000  1.0 0.1200884303
H  H292  1  0.16200000  0.78540000  0.12450000  1.0 0.1021307074
H  H293  1  0.16310000  0.78350000  0.18190000  1.0 0.0898125337
H  H294  1  0.27300000  0.77840000  0.23640000  1.0 0.1021307074
H  H295  1  0.27190000  0.78010000  0.17910000  1.0 0.1104632036
H  H296  1  0.20750000  0.72410000  0.27740000  1.0 0.0818345591
H  H297  1  0.21300000  0.72260000  0.33640000  1.0 0.0898125337
H  H298  1  0.23500000  0.83960000  0.29280000  1.0 0.0818345591
H  H299  1  0.22970000  0.84110000  0.23350000  1.0 0.0898125337
H  H300  1  0.27790000  0.78390000  0.38660000  1.0 0.0818345591
H  H301  1  0.27990000  0.78330000  0.44380000  1.0 0.0818345591
H  H302  1  0.16570000  0.77470000  0.39440000  1.0 0.0898125337
H  H303  1  0.16370000  0.77530000  0.33720000  1.0 0.0818345591
H  H304  1  0.28030000  0.76950000  0.49900000  1.0 0.1021307074
H  H305  1  0.28180000  0.76920000  0.55590000  1.0 0.1104632036
H  H306  1  0.17350000  0.77850000  0.49980000  1.0 0.1021307074
H  H307  1  0.17210000  0.77890000  0.44300000  1.0 0.0898125337
H  H308  1  0.04540000  0.59580000  0.87590000  1.0 0.1397867812
H  H309  1  0.93990000  0.48770000  0.90960000  1.0 0.1290074618
H  H310  1  0.98140000  0.52760000  0.94870000  1.0 0.1397867812
H  H311  1  0.04400000  0.59540000  0.80690000  1.0 0.1397867812
H  H312  1  0.97560000  0.52860000  0.73680000  1.0 0.1290074618
H  H313  1  0.93480000  0.48960000  0.77500000  1.0 0.1290074618
H  H314  1  0.19290000  0.73770000  0.66560000  1.0 0.1397867812
H  H315  1  0.16310000  0.70730000  0.55800000  1.0 0.1200884303
H  H316  1  0.12380000  0.66860000  0.59770000  1.0 0.1290074618
H  H317  1  0.18960000  0.59220000  0.80940000  1.0 0.1462125633
H  H318  1  0.15980000  0.48440000  0.77940000  1.0 0.1290074618
H  H319  1  0.12070000  0.52450000  0.74030000  1.0 0.1290074618
H  H320  1  0.25870000  0.59390000  0.87660000  1.0 0.1462125633
H  H321  1  0.33160000  0.53000000  0.94530000  1.0 0.1290074618
H  H322  1  0.29180000  0.48720000  0.90930000  1.0 0.1290074618
H  H323  1  0.26560000  0.49140000  0.81590000  1.0 0.1397867812
H  H324  1  0.26330000  0.43730000  0.81050000  1.0 0.1104632036
H  H325  1  0.18710000  0.36610000  0.87060000  1.0 0.1104632036
H  H326  1  0.18940000  0.42020000  0.87610000  1.0 0.1397867812
H  H327  1  0.87810000  0.49170000  0.78350000  1.0 0.1290074618
H  H328  1  0.82010000  0.43830000  0.78220000  1.0 0.1104632036
H  H329  1  0.87150000  0.37990000  0.89460000  1.0 0.1104632036
H  H330  1  0.92950000  0.43330000  0.89590000  1.0 0.1290074618
H  H331  1  0.78600000  0.37340000  0.78110000  1.0 0.1104632036
H  H332  1  0.73000000  0.31780000  0.78110000  1.0 0.1104632036
H  H333  1  0.75110000  0.29730000  0.89410000  1.0 0.1104632036
H  H334  1  0.80720000  0.35280000  0.89410000  1.0 0.1200884303
H  H335  1  0.18410000  0.06030000  0.85690000  1.0 0.1397867812
H  H336  1  0.18230000  0.11490000  0.85780000  1.0 0.1200884303
H  H337  1  0.26350000  0.18550000  0.80350000  1.0 0.1200884303
H  H338  1  0.26530000  0.13090000  0.80270000  1.0 0.1290074618
H  H339  1  0.87860000  0.72540000  0.54990000  1.0 0.1397867812
H  H340  1  0.82290000  0.72410000  0.49400000  1.0 0.1104632036
H  H341  1  0.88610000  0.82210000  0.42930000  1.0 0.1104632036
H  H342  1  0.94190000  0.82350000  0.48520000  1.0 0.1397867812
H  H343  1  0.83410000  0.82790000  0.38800000  1.0 0.1104632036
H  H344  1  0.78000000  0.82640000  0.33070000  1.0 0.1104632036
H  H345  1  0.72240000  0.71640000  0.38760000  1.0 0.1104632036
H  H346  1  0.77660000  0.71780000  0.44490000  1.0 0.1104632036
H  H347  1  0.66960000  0.72640000  0.34730000  1.0 0.1104632036
H  H348  1  0.61280000  0.72640000  0.29260000  1.0 0.1104632036
H  H349  1  0.67620000  0.81980000  0.22510000  1.0 0.1021307074
H  H350  1  0.73300000  0.81980000  0.27980000  1.0 0.1021307074
H  H351  1  0.62290000  0.82530000  0.18470000  1.0 0.1104632036
H  H352  1  0.56670000  0.82470000  0.12920000  1.0 0.1290074618
H  H353  1  0.50670000  0.72010000  0.19120000  1.0 0.1397867812
H  H354  1  0.56290000  0.72070000  0.24670000  1.0 0.1104632036
H  H355  1  0.40080000  0.80900000  0.02260000  1.0 0.1397867812
H  H356  1  0.46300000  0.87300000  0.09510000  1.0 0.1200884303
H  H357  1  0.50320000  0.83420000  0.13480000  1.0 0.1290074618
H  H358  1  0.50880000  0.71000000  0.12910000  1.0 0.1290074618
H  H359  1  0.47080000  0.67260000  0.08750000  1.0 0.1290074618
H  H360  1  0.40150000  0.74010000  0.02120000  1.0 0.1462125633
H  H361  1  0.24940000  0.38720000  0.79680000  1.0 0.1104632036
H  H362  1  0.24010000  0.32990000  0.79140000  1.0 0.1104632036
H  H363  1  0.20380000  0.26560000  0.88570000  1.0 0.1104632036
H  H364  1  0.21310000  0.32290000  0.89110000  1.0 0.1104632036
H  H365  1  0.21620000  0.27300000  0.78330000  1.0 0.1104632036
H  H366  1  0.20360000  0.21200000  0.78290000  1.0 0.1200884303
H  H367  1  0.22750000  0.16750000  0.90030000  1.0 0.1290074618
H  H368  1  0.24010000  0.22850000  0.90070000  1.0 0.1104632036
C  C1  1  0.95919000  0.32557000  0.34415000  1.0 0.5767991351
C  C2  1  0.98372000  0.29976000  0.37107000  1.0 -0.0417127173
C  C3  1  0.97578000  0.26666000  0.36400000  1.0 -0.1200048216
C  C4  1  0.99924000  0.24282000  0.38944000  1.0 -0.0287586228
C  C5  1  0.03065000  0.25209000  0.42196000  1.0 0.1397867812
C  C6  1  0.03859000  0.28519000  0.42904000  1.0 -0.1987754455
C  C7  1  0.01513000  0.30903000  0.40359000  1.0 -0.0797816298
C  C8  1  0.02966000  0.19750000  0.42438000  1.0 0.1200884303
C  C9  1  0.99856000  0.20718000  0.39082000  1.0 -0.0215556155
C  C10  1  0.97554000  0.18374000  0.36691000  1.0 -0.1200048216
C  C11  1  0.98360000  0.15062000  0.37656000  1.0 -0.0287586228
C  C12  1  0.01469000  0.14093000  0.41012000  1.0 -0.0797816298
C  C13  1  0.03772000  0.16438000  0.43404000  1.0 -0.1987754455
C  C14  1  0.96012000  0.12546000  0.35092000  1.0 0.5693510457
C  C15  1  0.87308000  0.04106000  0.26395000  1.0 0.5693510457
C  C16  1  0.84800000  0.01434000  0.23959000  1.0 -0.0287586228
C  C17  1  0.81589000  0.02235000  0.20652000  1.0 -0.1200048216
C  C18  1  0.79279000  0.99753000  0.18402000  1.0 -0.0215556155
C  C19  1  0.80181000  0.96469000  0.19459000  1.0 0.1200884303
C  C20  1  0.83392000  0.95668000  0.22766000  1.0 -0.1987754455
C  C21  1  0.85701000  0.98151000  0.25016000  1.0 -0.0797816298
C  C22  1  0.74916000  0.96458000  0.14096000  1.0 0.1104632036
C  C23  1  0.75844000  0.99744000  0.14924000  1.0 -0.0215556155
C  C24  1  0.73544000  0.02180000  0.12513000  1.0 -0.1200048216
C  C25  1  0.70316000  0.01330000  0.09274000  1.0 -0.0478669239
C  C26  1  0.69388000  0.98046000  0.08446000  1.0 -0.0744024172
C  C27  1  0.71688000  0.95610000  0.10856000  1.0 -0.1987754455
C  C28  1  0.67938000  0.03964000  0.06685000  1.0 0.5767991351
C  C29  1  0.87819000  0.31727000  0.97889000  1.0 0.5693510457
C  C30  1  0.85580000  0.29012000  0.95588000  1.0 -0.0478669239
C  C31  1  0.82294000  0.25808000  0.96357000  1.0 -0.1290186064
C  C32  1  0.80079000  0.23379000  0.94056000  1.0 -0.0215556155
C  C33  1  0.81149000  0.24151000  0.90987000  1.0 0.1290074618
C  C34  1  0.84434000  0.27354000  0.90219000  1.0 -0.1921439106
C  C35  1  0.86650000  0.29784000  0.92519000  1.0 -0.1005850617
C  C36  1  0.81572000  0.21598000  0.85310000  1.0 -0.1114262561
C  C37  1  0.81505000  0.21699000  0.81876000  1.0 -0.1005850617
C  C38  1  0.74921000  0.22009000  0.78605000  1.0 -0.1005850617
C  C39  1  0.74987000  0.21909000  0.82039000  1.0 -0.1005850617
C  C40  1  0.78729000  0.25281000  0.71970000  1.0 -0.1005850617
C  C41  1  0.78447000  0.25373000  0.68439000  1.0 -0.0478669239
C  C42  1  0.77800000  0.22060000  0.67990000  1.0 -0.0287586228
C  C43  1  0.77120000  0.18360000  0.71070000  1.0 -0.0744024172
C  C44  1  0.77403000  0.18267000  0.74600000  1.0 -0.1290186064
C  C45  1  0.74457000  0.21807000  0.61180000  1.0 -0.1290186064
C  C46  1  0.74343000  0.21857000  0.57748000  1.0 -0.1114262561
C  C47  1  0.81190000  0.22370000  0.60710000  1.0 -0.1114262561
C  C48  1  0.81302000  0.22318000  0.64140000  1.0 -0.1200048216
C  C49  1  0.74107000  0.22881000  0.50080000  1.0 -0.1005850617
C  C50  1  0.74025000  0.22915000  0.46666000  1.0 -0.1200048216
C  C51  1  0.80512000  0.22356000  0.50025000  1.0 -0.09110641
C  C52  1  0.80595000  0.22323000  0.53435000  1.0 -0.09110641
C  C53  1  0.95722000  0.40754000  0.05989000  1.0 0.5693510457
C  C54  1  0.98246000  0.43434000  0.08379000  1.0 -0.0287586228
C  C55  1  0.97576000  0.42582000  0.11733000  1.0 -0.1114262561
C  C56  1  0.00069000  0.44969000  0.14077000  1.0 -0.0215556155
C  C57  1  0.03230000  0.48208000  0.13069000  1.0 0.1200884303
C  C58  1  0.03900000  0.49060000  0.09715000  1.0 -0.1921439106
C  C59  1  0.01408000  0.46672000  0.07371000  1.0 -0.0797816298
C  C60  1  0.03503000  0.48091000  0.18619000  1.0 0.1290074618
C  C61  1  0.00234000  0.44922000  0.17663000  1.0 -0.0215556155
C  C62  1  0.97789000  0.42585000  0.19952000  1.0 -0.1114262561
C  C63  1  0.98613000  0.43417000  0.23197000  1.0 -0.0478669239
C  C64  1  0.01881000  0.46585000  0.24153000  1.0 -0.0797816298
C  C65  1  0.04326000  0.48922000  0.21864000  1.0 -0.1921439106
C  C66  1  0.96057000  0.40917000  0.25669000  1.0 0.5767991351
C  C67  1  0.87101000  0.32549000  0.33924000  1.0 0.5767991351
C  C68  1  0.84557000  0.30073000  0.36439000  1.0 -0.0478669239
C  C69  1  0.81308000  0.26844000  0.35596000  1.0 -0.1290186064
C  C70  1  0.78953000  0.24521000  0.37976000  1.0 -0.0287586228
C  C71  1  0.79846000  0.25426000  0.41200000  1.0 0.1200884303
C  C72  1  0.83094000  0.28656000  0.42042000  1.0 -0.2219052406
C  C73  1  0.85449000  0.30979000  0.39662000  1.0 -0.0797816298
C  C74  1  0.87370000  0.41118000  0.25436000  1.0 0.5767991351
C  C75  1  0.84876000  0.43770000  0.22906000  1.0 -0.0287586228
C  C76  1  0.81640000  0.42936000  0.19665000  1.0 -0.1290186064
C  C77  1  0.79297000  0.45331000  0.17321000  1.0 -0.0215556155
C  C78  1  0.80189000  0.48559000  0.18219000  1.0 0.1104632036
C  C79  1  0.83425000  0.49393000  0.21461000  1.0 -0.1921439106
C  C80  1  0.85767000  0.46999000  0.23804000  1.0 -0.0797816298
C  C81  1  0.67774000  0.40816000  0.06110000  1.0 0.5693510457
C  C82  1  0.74860000  0.48514000  0.12863000  1.0 0.1104632036
C  C83  1  0.75854000  0.45316000  0.13843000  1.0 -0.0215556155
C  C84  1  0.73471000  0.42747000  0.11686000  1.0 -0.1200048216
C  C85  1  0.70095000  0.43375000  0.08549000  1.0 -0.0478669239
C  C86  1  0.69102000  0.46574000  0.07570000  1.0 -0.0797816298
C  C87  1  0.71484000  0.49144000  0.09726000  1.0 -0.1921439106
C  C88  1  0.77226000  0.53876000  0.15344000  1.0 0.1588637253
C  C89  1  0.75010000  0.53366000  0.17310000  1.0 -0.1821057785
C  C90  1  0.75146000  0.56614000  0.17640000  1.0 -0.140457332
C  C91  1  0.77495000  0.60369000  0.16000000  1.0 0.0620629297
C  C92  1  0.79710000  0.60878000  0.14030000  1.0 -0.140457332
C  C93  1  0.79576000  0.57632000  0.13710000  1.0 -0.1821057785
C  C94  1  0.09048000  0.53224000  0.16016000  1.0 0.1657274386
C  C95  1  0.12326000  0.53076000  0.19423000  1.0 -0.1821057785
C  C96  1  0.15801000  0.56275000  0.19500000  1.0 -0.140457332
C  C97  1  0.15998000  0.59624000  0.16170000  1.0 0.0620629297
C  C98  1  0.12720000  0.59772000  0.12763000  1.0 -0.1200048216
C  C99  1  0.09246000  0.56572000  0.12686000  1.0 -0.1679467439
C  C100  1  0.19783000  0.63137000  0.16241000  1.0 0.0690660396
C  C101  1  0.22094000  0.64186000  0.19627000  1.0 -0.150481423
C  C102  1  0.25451000  0.67515000  0.19626000  1.0 -0.1679467439
C  C103  1  0.26499000  0.69797000  0.16239000  1.0 0.0690660396
C  C104  1  0.24190000  0.68748000  0.12853000  1.0 -0.140457332
C  C105  1  0.20831000  0.65419000  0.12854000  1.0 -0.140457332
C  C106  1  0.77517000  0.90983000  0.17029000  1.0 0.1588637253
C  C107  1  0.80004000  0.91462000  0.15380000  1.0 -0.1821057785
C  C108  1  0.80112000  0.88188000  0.15330000  1.0 -0.1290186064
C  C109  1  0.77733000  0.84435000  0.16930000  1.0 0.0620629297
C  C110  1  0.75246000  0.83956000  0.18580000  1.0 -0.1602444782
C  C111  1  0.75138000  0.87230000  0.18630000  1.0 -0.1821057785
C  C112  1  0.08424000  0.22542000  0.47692000  1.0 0.1397867812
C  C113  1  0.11986000  0.25522000  0.47427000  1.0 -0.1921439106
C  C114  1  0.15326000  0.25606000  0.50775000  1.0 -0.140457332
C  C115  1  0.15102000  0.22710000  0.54388000  1.0 0.0620629297
C  C116  1  0.11538000  0.19730000  0.54653000  1.0 -0.140457332
C  C117  1  0.08198000  0.19646000  0.51306000  1.0 -0.1821057785
C  C118  1  0.18932000  0.22700000  0.57786000  1.0 0.0690660396
C  C119  1  0.18828000  0.19446000  0.61206000  1.0 -0.150481423
C  C120  1  0.22070000  0.19534000  0.64638000  1.0 -0.1602444782
C  C121  1  0.25415000  0.22875000  0.64649000  1.0 0.0690660396
C  C122  1  0.25518000  0.26130000  0.61229000  1.0 -0.150481423
C  C123  1  0.22277000  0.26043000  0.57797000  1.0 -0.1602444782
C  C124  1  0.29304000  0.22686000  0.68103000  1.0 0.0690660396
C  C125  1  0.32908000  0.25482000  0.67720000  1.0 -0.150481423
C  C126  1  0.36316000  0.25486000  0.70998000  1.0 -0.140457332
C  C127  1  0.36118000  0.22692000  0.74659000  1.0 0.0690660396
C  C128  1  0.32515000  0.19895000  0.75042000  1.0 -0.1602444782
C  C129  1  0.29107000  0.19891000  0.71764000  1.0 -0.1602444782
C  C130  1  0.40151000  0.22695000  0.77883000  1.0 0.0690660396
C  C131  1  0.40034000  0.19580000  0.81401000  1.0 -0.140457332
C  C132  1  0.43399000  0.19615000  0.84725000  1.0 -0.1821057785
C  C133  1  0.46882000  0.22764000  0.84529000  1.0 0.1462125633
C  C134  1  0.46998000  0.25880000  0.81011000  1.0 -0.1821057785
C  C135  1  0.43633000  0.25845000  0.77687000  1.0 -0.140457332
C  C136  1  0.52387000  0.20173000  0.89748000  1.0 0.1397867812
C  C137  1  0.55453000  0.20927000  0.93111000  1.0 -0.0215556155
C  C138  1  0.57860000  0.18596000  0.95492000  1.0 -0.1290186064
C  C139  1  0.57201000  0.15513000  0.94512000  1.0 -0.0215556155
C  C140  1  0.54135000  0.14759000  0.91149000  1.0 -0.1005850617
C  C141  1  0.51728000  0.17090000  0.88767000  1.0 -0.1921439106
C  C142  1  0.55420000  0.24348000  0.93225000  1.0 -0.0215556155
C  C143  1  0.52205000  0.25253000  0.89994000  1.0 0.1200884303
C  C144  1  0.51266000  0.28398000  0.89254000  1.0 -0.1987754455
C  C145  1  0.53544000  0.30640000  0.91744000  1.0 -0.0797816298
C  C146  1  0.56759000  0.29735000  0.94974000  1.0 -0.0287586228
C  C147  1  0.57697000  0.26589000  0.95715000  1.0 -0.1200048216
C  C148  1  0.59158000  0.32264000  0.97526000  1.0 0.5693510457
C  C149  1  0.59661000  0.12873000  0.97154000  1.0 0.5693510457
C  C150  1  0.76780000  0.63920000  0.15550000  1.0 0.0620629297
C  C151  1  0.75978000  0.63722000  0.18540000  1.0 -0.150481423
C  C152  1  0.76528000  0.67152000  0.18860000  1.0 -0.150481423
C  C153  1  0.77900000  0.70800000  0.16200000  1.0 0.0690660396
C  C154  1  0.78702000  0.70998000  0.13210000  1.0 -0.1602444782
C  C155  1  0.78152000  0.67568000  0.12890000  1.0 -0.150481423
C  C156  1  0.77060000  0.74320000  0.15790000  1.0 0.0690660396
C  C157  1  0.78150000  0.74810000  0.19320000  1.0 -0.1602444782
C  C158  1  0.78910000  0.78470000  0.19350000  1.0 -0.140457332
C  C159  1  0.78570000  0.81630000  0.15840000  1.0 0.0620629297
C  C160  1  0.77470000  0.81130000  0.12320000  1.0 -0.1602444782
C  C161  1  0.76720000  0.77480000  0.12290000  1.0 -0.1602444782
C  C162  1  0.67443000  0.04081000  0.34415000  1.0 0.5767991351
C  C163  1  0.70024000  0.01628000  0.37107000  1.0 -0.0417127173
C  C164  1  0.73334000  0.02422000  0.36400000  1.0 -0.1200048216
C  C165  1  0.75718000  0.00076000  0.38944000  1.0 -0.0287586228
C  C166  1  0.74791000  0.96935000  0.42196000  1.0 0.1397867812
C  C167  1  0.71481000  0.96141000  0.42904000  1.0 -0.1987754455
C  C168  1  0.69097000  0.98487000  0.40359000  1.0 -0.0797816298
C  C169  1  0.80250000  0.97034000  0.42438000  1.0 0.1290074618
C  C170  1  0.79282000  0.00144000  0.39082000  1.0 -0.0287586228
C  C171  1  0.81626000  0.02446000  0.36691000  1.0 -0.1200048216
C  C172  1  0.84938000  0.01640000  0.37656000  1.0 -0.0287586228
C  C173  1  0.85907000  0.98531000  0.41012000  1.0 -0.0797816298
C  C174  1  0.83562000  0.96228000  0.43404000  1.0 -0.1987754455
C  C175  1  0.87454000  0.03988000  0.35092000  1.0 0.5693510457
C  C176  1  0.95894000  0.12692000  0.26395000  1.0 0.5693510457
C  C177  1  0.98566000  0.15200000  0.23959000  1.0 -0.0287586228
C  C178  1  0.97765000  0.18411000  0.20652000  1.0 -0.1200048216
C  C179  1  0.00247000  0.20721000  0.18402000  1.0 -0.0215556155
C  C180  1  0.03531000  0.19819000  0.19459000  1.0 0.1200884303
C  C181  1  0.04332000  0.16608000  0.22766000  1.0 -0.1987754455
C  C182  1  0.01849000  0.14299000  0.25016000  1.0 -0.0797816298
C  C183  1  0.03542000  0.25084000  0.14096000  1.0 0.1104632036
C  C184  1  0.00256000  0.24156000  0.14924000  1.0 -0.0215556155
C  C185  1  0.97820000  0.26456000  0.12513000  1.0 -0.1200048216
C  C186  1  0.98670000  0.29684000  0.09274000  1.0 -0.0478669239
C  C187  1  0.01954000  0.30612000  0.08446000  1.0 -0.0797816298
C  C188  1  0.04390000  0.28312000  0.10856000  1.0 -0.1987754455
C  C189  1  0.96036000  0.32062000  0.06685000  1.0 0.5767991351
C  C190  1  0.68273000  0.12181000  0.97889000  1.0 0.5693510457
C  C191  1  0.70988000  0.14420000  0.95588000  1.0 -0.0478669239
C  C192  1  0.74192000  0.17706000  0.96357000  1.0 -0.1290186064
C  C193  1  0.76621000  0.19921000  0.94056000  1.0 -0.0215556155
C  C194  1  0.75849000  0.18851000  0.90987000  1.0 0.1290074618
C  C195  1  0.72646000  0.15566000  0.90219000  1.0 -0.1921439106
C  C196  1  0.70216000  0.13350000  0.92519000  1.0 -0.1005850617
C  C197  1  0.78402000  0.18428000  0.85310000  1.0 -0.1114262561
C  C198  1  0.78301000  0.18495000  0.81876000  1.0 -0.1005850617
C  C199  1  0.77991000  0.25079000  0.78605000  1.0 -0.1005850617
C  C200  1  0.78091000  0.25013000  0.82039000  1.0 -0.1005850617
C  C201  1  0.74719000  0.21271000  0.71970000  1.0 -0.1005850617
C  C202  1  0.74627000  0.21553000  0.68439000  1.0 -0.0478669239
C  C203  1  0.77940000  0.22200000  0.67990000  1.0 -0.0287586228
C  C204  1  0.81640000  0.22880000  0.71070000  1.0 -0.0744024172
C  C205  1  0.81733000  0.22597000  0.74600000  1.0 -0.1290186064
C  C206  1  0.78193000  0.25543000  0.61180000  1.0 -0.1290186064
C  C207  1  0.78143000  0.25657000  0.57748000  1.0 -0.1114262561
C  C208  1  0.77630000  0.18810000  0.60710000  1.0 -0.1114262561
C  C209  1  0.77682000  0.18698000  0.64140000  1.0 -0.1114262561
C  C210  1  0.77119000  0.25893000  0.50080000  1.0 -0.1005850617
C  C211  1  0.77085000  0.25975000  0.46666000  1.0 -0.1114262561
C  C212  1  0.77644000  0.19488000  0.50025000  1.0 -0.09110641
C  C213  1  0.77677000  0.19405000  0.53435000  1.0 -0.09110641
C  C214  1  0.59246000  0.04278000  0.05989000  1.0 0.5693510457
C  C215  1  0.56566000  0.01754000  0.08379000  1.0 -0.0287586228
C  C216  1  0.57418000  0.02424000  0.11733000  1.0 -0.1114262561
C  C217  1  0.55031000  0.99931000  0.14077000  1.0 -0.0140806984
C  C218  1  0.51792000  0.96770000  0.13069000  1.0 0.1200884303
C  C219  1  0.50940000  0.96100000  0.09715000  1.0 -0.1921439106
C  C220  1  0.53328000  0.98592000  0.07371000  1.0 -0.0797816298
C  C221  1  0.51909000  0.96497000  0.18619000  1.0 0.1200884303
C  C222  1  0.55078000  0.99766000  0.17663000  1.0 -0.0215556155
C  C223  1  0.57415000  0.02211000  0.19952000  1.0 -0.1114262561
C  C224  1  0.56583000  0.01387000  0.23197000  1.0 -0.0478669239
C  C225  1  0.53415000  0.98119000  0.24153000  1.0 -0.0744024172
C  C226  1  0.51078000  0.95674000  0.21864000  1.0 -0.1921439106
C  C227  1  0.59083000  0.03943000  0.25669000  1.0 0.5767991351
C  C228  1  0.67451000  0.12899000  0.33924000  1.0 0.5767991351
C  C229  1  0.69927000  0.15443000  0.36439000  1.0 -0.0417127173
C  C230  1  0.73156000  0.18692000  0.35596000  1.0 -0.1290186064
C  C231  1  0.75479000  0.21047000  0.37976000  1.0 -0.0287586228
C  C232  1  0.74574000  0.20154000  0.41200000  1.0 0.1290074618
C  C233  1  0.71344000  0.16906000  0.42042000  1.0 -0.2219052406
C  C234  1  0.69021000  0.14551000  0.39662000  1.0 -0.0797816298
C  C235  1  0.58882000  0.12630000  0.25436000  1.0 0.5693510457
C  C236  1  0.56230000  0.15124000  0.22906000  1.0 -0.0287586228
C  C237  1  0.57064000  0.18360000  0.19665000  1.0 -0.1290186064
C  C238  1  0.54669000  0.20703000  0.17321000  1.0 -0.0287586228
C  C239  1  0.51441000  0.19811000  0.18219000  1.0 0.1200884303
C  C240  1  0.50607000  0.16575000  0.21461000  1.0 -0.1921439106
C  C241  1  0.53001000  0.14233000  0.23804000  1.0 -0.0797816298
C  C242  1  0.59184000  0.32226000  0.06110000  1.0 0.5693510457
C  C243  1  0.51486000  0.25140000  0.12863000  1.0 0.1104632036
C  C244  1  0.54684000  0.24146000  0.13843000  1.0 -0.0215556155
C  C245  1  0.57253000  0.26529000  0.11686000  1.0 -0.1200048216
C  C246  1  0.56625000  0.29905000  0.08549000  1.0 -0.0478669239
C  C247  1  0.53426000  0.30898000  0.07570000  1.0 -0.0797816298
C  C248  1  0.50856000  0.28516000  0.09726000  1.0 -0.1921439106
C  C249  1  0.46124000  0.22774000  0.15344000  1.0 0.1588637253
C  C250  1  0.46634000  0.24990000  0.17310000  1.0 -0.1821057785
C  C251  1  0.43386000  0.24854000  0.17640000  1.0 -0.140457332
C  C252  1  0.39631000  0.22505000  0.16000000  1.0 0.0620629297
C  C253  1  0.39122000  0.20290000  0.14030000  1.0 -0.140457332
C  C254  1  0.42368000  0.20424000  0.13710000  1.0 -0.1821057785
C  C255  1  0.46776000  0.90952000  0.16016000  1.0 0.1657274386
C  C256  1  0.46924000  0.87674000  0.19423000  1.0 -0.1821057785
C  C257  1  0.43725000  0.84199000  0.19500000  1.0 -0.140457332
C  C258  1  0.40376000  0.84002000  0.16170000  1.0 0.0620629297
C  C259  1  0.40228000  0.87280000  0.12763000  1.0 -0.1200048216
C  C260  1  0.43428000  0.90754000  0.12686000  1.0 -0.1679467439
C  C261  1  0.36863000  0.80217000  0.16241000  1.0 0.0690660396
C  C262  1  0.35814000  0.77906000  0.19627000  1.0 -0.150481423
C  C263  1  0.32485000  0.74549000  0.19626000  1.0 -0.1602444782
C  C264  1  0.30203000  0.73501000  0.16239000  1.0 0.0690660396
C  C265  1  0.31252000  0.75810000  0.12853000  1.0 -0.140457332
C  C266  1  0.34581000  0.79169000  0.12854000  1.0 -0.140457332
C  C267  1  0.09017000  0.22483000  0.17029000  1.0 0.1588637253
C  C268  1  0.08538000  0.19996000  0.15380000  1.0 -0.1821057785
C  C269  1  0.11812000  0.19888000  0.15330000  1.0 -0.1290186064
C  C270  1  0.15565000  0.22267000  0.16930000  1.0 0.0620629297
C  C271  1  0.16044000  0.24754000  0.18580000  1.0 -0.1602444782
C  C272  1  0.12770000  0.24862000  0.18630000  1.0 -0.1821057785
C  C273  1  0.77458000  0.91576000  0.47692000  1.0 0.1462125633
C  C274  1  0.74478000  0.88014000  0.47427000  1.0 -0.1921439106
C  C275  1  0.74394000  0.84674000  0.50775000  1.0 -0.140457332
C  C276  1  0.77290000  0.84898000  0.54388000  1.0 0.0620629297
C  C277  1  0.80270000  0.88462000  0.54653000  1.0 -0.140457332
C  C278  1  0.80354000  0.91802000  0.51306000  1.0 -0.1821057785
C  C279  1  0.77300000  0.81068000  0.57786000  1.0 0.0690660396
C  C280  1  0.80554000  0.81172000  0.61206000  1.0 -0.150481423
C  C281  1  0.80466000  0.77930000  0.64638000  1.0 -0.1602444782
C  C282  1  0.77125000  0.74585000  0.64649000  1.0 0.0690660396
C  C283  1  0.73870000  0.74482000  0.61229000  1.0 -0.150481423
C  C284  1  0.73957000  0.77723000  0.57797000  1.0 -0.1602444782
C  C285  1  0.77314000  0.70696000  0.68103000  1.0 0.0690660396
C  C286  1  0.74518000  0.67092000  0.67720000  1.0 -0.150481423
C  C287  1  0.74514000  0.63684000  0.70998000  1.0 -0.150481423
C  C288  1  0.77308000  0.63882000  0.74659000  1.0 0.0690660396
C  C289  1  0.80105000  0.67485000  0.75042000  1.0 -0.1602444782
C  C290  1  0.80109000  0.70893000  0.71764000  1.0 -0.1602444782
C  C291  1  0.77305000  0.59849000  0.77883000  1.0 0.0690660396
C  C292  1  0.80420000  0.59966000  0.81401000  1.0 -0.140457332
C  C293  1  0.80385000  0.56601000  0.84725000  1.0 -0.1821057785
C  C294  1  0.77236000  0.53118000  0.84529000  1.0 0.1462125633
C  C295  1  0.74120000  0.53002000  0.81011000  1.0 -0.1821057785
C  C296  1  0.74155000  0.56367000  0.77687000  1.0 -0.140457332
C  C297  1  0.79827000  0.47613000  0.89748000  1.0 0.1397867812
C  C298  1  0.79073000  0.44547000  0.93111000  1.0 -0.0215556155
C  C299  1  0.81404000  0.42140000  0.95492000  1.0 -0.1290186064
C  C300  1  0.84487000  0.42799000  0.94512000  1.0 -0.0215556155
C  C301  1  0.85241000  0.45865000  0.91149000  1.0 -0.1005850617
C  C302  1  0.82910000  0.48272000  0.88767000  1.0 -0.1921439106
C  C303  1  0.75652000  0.44580000  0.93225000  1.0 -0.0215556155
C  C304  1  0.74747000  0.47795000  0.89994000  1.0 0.1200884303
C  C305  1  0.71602000  0.48734000  0.89254000  1.0 -0.1987754455
C  C306  1  0.69360000  0.46456000  0.91744000  1.0 -0.0797816298
C  C307  1  0.70265000  0.43241000  0.94974000  1.0 -0.0287586228
C  C308  1  0.73411000  0.42303000  0.95715000  1.0 -0.1200048216
C  C309  1  0.67736000  0.40842000  0.97526000  1.0 0.5693510457
C  C310  1  0.87127000  0.40339000  0.97154000  1.0 0.5693510457
C  C311  1  0.36080000  0.23220000  0.15550000  1.0 0.0620629297
C  C312  1  0.36278000  0.24022000  0.18540000  1.0 -0.150481423
C  C313  1  0.32848000  0.23472000  0.18860000  1.0 -0.150481423
C  C314  1  0.29200000  0.22100000  0.16200000  1.0 0.0690660396
C  C315  1  0.29002000  0.21298000  0.13210000  1.0 -0.150481423
C  C316  1  0.32432000  0.21848000  0.12890000  1.0 -0.150481423
C  C317  1  0.25680000  0.22940000  0.15790000  1.0 0.0690660396
C  C318  1  0.25190000  0.21850000  0.19320000  1.0 -0.1602444782
C  C319  1  0.21530000  0.21090000  0.19350000  1.0 -0.140457332
C  C320  1  0.18370000  0.21430000  0.15840000  1.0 0.0690660396
C  C321  1  0.18870000  0.22530000  0.12320000  1.0 -0.1602444782
C  C322  1  0.22520000  0.23280000  0.12290000  1.0 -0.1602444782
C  C323  1  0.78305000  0.21695000  0.85392000  1.0 0.1021307074
C  C324  1  0.78138000  0.21862000  0.78523000  1.0 0.0389723389
C  C325  1  0.78239000  0.21761000  0.75045000  1.0 0.0278226226
C  C326  1  0.77950000  0.22050000  0.64380000  1.0 0.0499996079
C  C327  1  0.77786000  0.22214000  0.57511000  1.0 0.0278226226
C  C328  1  0.77404000  0.22596000  0.53461000  1.0 0.0278226226
C  C329  1  0.77287000  0.22713000  0.46640000  1.0 0.0818345591
C  C330  1  0.32557000  0.95919000  0.65585000  1.0 0.5767991351
C  C331  1  0.29976000  0.98372000  0.62893000  1.0 -0.0417127173
C  C332  1  0.26666000  0.97578000  0.63600000  1.0 -0.1200048216
C  C333  1  0.24282000  0.99924000  0.61056000  1.0 -0.0287586228
C  C334  1  0.25209000  0.03065000  0.57804000  1.0 0.1397867812
C  C335  1  0.28519000  0.03859000  0.57096000  1.0 -0.1987754455
C  C336  1  0.30903000  0.01513000  0.59641000  1.0 -0.0797816298
C  C337  1  0.19750000  0.02966000  0.57562000  1.0 0.1290074618
C  C338  1  0.20718000  0.99856000  0.60918000  1.0 -0.0287586228
C  C339  1  0.18374000  0.97554000  0.63309000  1.0 -0.1200048216
C  C340  1  0.15062000  0.98360000  0.62344000  1.0 -0.0287586228
C  C341  1  0.14093000  0.01469000  0.58988000  1.0 -0.0797816298
C  C342  1  0.16438000  0.03772000  0.56596000  1.0 -0.1987754455
C  C343  1  0.12546000  0.96012000  0.64908000  1.0 0.5693510457
C  C344  1  0.04106000  0.87308000  0.73605000  1.0 0.5693510457
C  C345  1  0.01434000  0.84800000  0.76041000  1.0 -0.0287586228
C  C346  1  0.02235000  0.81589000  0.79348000  1.0 -0.1114262561
C  C347  1  0.99753000  0.79279000  0.81598000  1.0 -0.0215556155
C  C348  1  0.96469000  0.80181000  0.80541000  1.0 0.1200884303
C  C349  1  0.95668000  0.83392000  0.77234000  1.0 -0.1987754455
C  C350  1  0.98151000  0.85701000  0.74984000  1.0 -0.0797816298
C  C351  1  0.96458000  0.74916000  0.85904000  1.0 0.1104632036
C  C352  1  0.99744000  0.75844000  0.85076000  1.0 -0.0215556155
C  C353  1  0.02180000  0.73544000  0.87487000  1.0 -0.1114262561
C  C354  1  0.01330000  0.70316000  0.90726000  1.0 -0.0478669239
C  C355  1  0.98046000  0.69388000  0.91554000  1.0 -0.0744024172
C  C356  1  0.95610000  0.71688000  0.89144000  1.0 -0.1987754455
C  C357  1  0.03964000  0.67938000  0.93315000  1.0 0.5767991351
C  C358  1  0.31727000  0.87819000  0.02111000  1.0 0.5693510457
C  C359  1  0.29012000  0.85580000  0.04412000  1.0 -0.0478669239
C  C360  1  0.25808000  0.82294000  0.03643000  1.0 -0.1290186064
C  C361  1  0.23379000  0.80079000  0.05944000  1.0 -0.0215556155
C  C362  1  0.24151000  0.81149000  0.09013000  1.0 0.1290074618
C  C363  1  0.27354000  0.84434000  0.09781000  1.0 -0.1921439106
C  C364  1  0.29784000  0.86650000  0.07481000  1.0 -0.09110641
C  C365  1  0.21598000  0.81572000  0.14690000  1.0 -0.1114262561
C  C366  1  0.21699000  0.81505000  0.18124000  1.0 -0.1005850617
C  C367  1  0.22009000  0.74921000  0.21395000  1.0 -0.1005850617
C  C368  1  0.21909000  0.74987000  0.17961000  1.0 -0.1005850617
C  C369  1  0.25281000  0.78729000  0.28030000  1.0 -0.1114262561
C  C370  1  0.25373000  0.78447000  0.31561000  1.0 -0.0478669239
C  C371  1  0.22060000  0.77800000  0.32010000  1.0 -0.0287586228
C  C372  1  0.18360000  0.77120000  0.28930000  1.0 -0.0744024172
C  C373  1  0.18267000  0.77403000  0.25400000  1.0 -0.1290186064
C  C374  1  0.21807000  0.74457000  0.38820000  1.0 -0.1290186064
C  C375  1  0.21857000  0.74343000  0.42252000  1.0 -0.1114262561
C  C376  1  0.22370000  0.81190000  0.39290000  1.0 -0.1114262561
C  C377  1  0.22318000  0.81302000  0.35860000  1.0 -0.1114262561
C  C378  1  0.22881000  0.74107000  0.49920000  1.0 -0.1005850617
C  C379  1  0.22915000  0.74025000  0.53334000  1.0 -0.1200048216
C  C380  1  0.22356000  0.80512000  0.49975000  1.0 -0.09110641
C  C381  1  0.22323000  0.80595000  0.46565000  1.0 -0.09110641
C  C382  1  0.40754000  0.95722000  0.94011000  1.0 0.5693510457
C  C383  1  0.43434000  0.98246000  0.91621000  1.0 -0.0287586228
C  C384  1  0.42582000  0.97576000  0.88267000  1.0 -0.1114262561
C  C385  1  0.44969000  0.00069000  0.85923000  1.0 -0.0140806984
C  C386  1  0.48208000  0.03230000  0.86931000  1.0 0.1200884303
C  C387  1  0.49060000  0.03900000  0.90285000  1.0 -0.1921439106
C  C388  1  0.46672000  0.01408000  0.92629000  1.0 -0.0797816298
C  C389  1  0.48091000  0.03503000  0.81381000  1.0 0.1200884303
C  C390  1  0.44922000  0.00234000  0.82337000  1.0 -0.0215556155
C  C391  1  0.42585000  0.97789000  0.80048000  1.0 -0.1114262561
C  C392  1  0.43417000  0.98613000  0.76803000  1.0 -0.0478669239
C  C393  1  0.46585000  0.01881000  0.75847000  1.0 -0.0744024172
C  C394  1  0.48922000  0.04326000  0.78136000  1.0 -0.1921439106
C  C395  1  0.40917000  0.96057000  0.74331000  1.0 0.5767991351
C  C396  1  0.32549000  0.87101000  0.66076000  1.0 0.5767991351
C  C397  1  0.30073000  0.84557000  0.63561000  1.0 -0.0478669239
C  C398  1  0.26844000  0.81308000  0.64404000  1.0 -0.1290186064
C  C399  1  0.24521000  0.78953000  0.62024000  1.0 -0.0287586228
C  C400  1  0.25426000  0.79846000  0.58800000  1.0 0.1200884303
C  C401  1  0.28656000  0.83094000  0.57958000  1.0 -0.2219052406
C  C402  1  0.30979000  0.85449000  0.60338000  1.0 -0.0797816298
C  C403  1  0.41118000  0.87370000  0.74564000  1.0 0.5693510457
C  C404  1  0.43770000  0.84876000  0.77094000  1.0 -0.0287586228
C  C405  1  0.42936000  0.81640000  0.80335000  1.0 -0.1290186064
C  C406  1  0.45331000  0.79297000  0.82679000  1.0 -0.0215556155
C  C407  1  0.48559000  0.80189000  0.81781000  1.0 0.1200884303
C  C408  1  0.49393000  0.83425000  0.78539000  1.0 -0.1987754455
C  C409  1  0.46999000  0.85767000  0.76196000  1.0 -0.0797816298
C  C410  1  0.40816000  0.67774000  0.93890000  1.0 0.5693510457
C  C411  1  0.48514000  0.74860000  0.87137000  1.0 0.1104632036
C  C412  1  0.45316000  0.75854000  0.86157000  1.0 -0.0215556155
C  C413  1  0.42747000  0.73471000  0.88314000  1.0 -0.1200048216
C  C414  1  0.43375000  0.70095000  0.91451000  1.0 -0.0478669239
C  C415  1  0.46574000  0.69102000  0.92430000  1.0 -0.0797816298
C  C416  1  0.49144000  0.71484000  0.90274000  1.0 -0.1921439106
C  C417  1  0.53876000  0.77226000  0.84656000  1.0 0.1588637253
C  C418  1  0.53366000  0.75010000  0.82690000  1.0 -0.1821057785
C  C419  1  0.56614000  0.75146000  0.82360000  1.0 -0.140457332
C  C420  1  0.60369000  0.77495000  0.84000000  1.0 0.0620629297
C  C421  1  0.60878000  0.79710000  0.85970000  1.0 -0.140457332
C  C422  1  0.57632000  0.79576000  0.86290000  1.0 -0.1821057785
C  C423  1  0.53224000  0.09048000  0.83984000  1.0 0.1657274386
C  C424  1  0.53076000  0.12326000  0.80577000  1.0 -0.1821057785
C  C425  1  0.56275000  0.15801000  0.80500000  1.0 -0.140457332
C  C426  1  0.59624000  0.15998000  0.83830000  1.0 0.0620629297
C  C427  1  0.59772000  0.12720000  0.87237000  1.0 -0.1200048216
C  C428  1  0.56572000  0.09246000  0.87314000  1.0 -0.1679467439
C  C429  1  0.63137000  0.19783000  0.83759000  1.0 0.0690660396
C  C430  1  0.64186000  0.22094000  0.80373000  1.0 -0.150481423
C  C431  1  0.67515000  0.25451000  0.80374000  1.0 -0.1602444782
C  C432  1  0.69797000  0.26499000  0.83761000  1.0 0.0690660396
C  C433  1  0.68748000  0.24190000  0.87147000  1.0 -0.140457332
C  C434  1  0.65419000  0.20831000  0.87146000  1.0 -0.140457332
C  C435  1  0.90983000  0.77517000  0.82971000  1.0 0.1588637253
C  C436  1  0.91462000  0.80004000  0.84620000  1.0 -0.1821057785
C  C437  1  0.88188000  0.80112000  0.84670000  1.0 -0.1290186064
C  C438  1  0.84435000  0.77733000  0.83070000  1.0 0.0620629297
C  C439  1  0.83956000  0.75246000  0.81420000  1.0 -0.1602444782
C  C440  1  0.87230000  0.75138000  0.81370000  1.0 -0.1821057785
C  C441  1  0.22542000  0.08424000  0.52308000  1.0 0.1397867812
C  C442  1  0.25522000  0.11986000  0.52573000  1.0 -0.1921439106
C  C443  1  0.25606000  0.15326000  0.49225000  1.0 -0.140457332
C  C444  1  0.22710000  0.15102000  0.45612000  1.0 0.0620629297
C  C445  1  0.19730000  0.11538000  0.45347000  1.0 -0.140457332
C  C446  1  0.19646000  0.08198000  0.48694000  1.0 -0.1821057785
C  C447  1  0.22700000  0.18932000  0.42214000  1.0 0.0690660396
C  C448  1  0.19446000  0.18828000  0.38794000  1.0 -0.150481423
C  C449  1  0.19534000  0.22070000  0.35362000  1.0 -0.1602444782
C  C450  1  0.22875000  0.25415000  0.35351000  1.0 0.0690660396
C  C451  1  0.26130000  0.25518000  0.38771000  1.0 -0.150481423
C  C452  1  0.26043000  0.22277000  0.42203000  1.0 -0.1602444782
C  C453  1  0.22686000  0.29304000  0.31897000  1.0 0.0690660396
C  C454  1  0.25482000  0.32908000  0.32280000  1.0 -0.150481423
C  C455  1  0.25486000  0.36316000  0.29002000  1.0 -0.150481423
C  C456  1  0.22692000  0.36118000  0.25341000  1.0 0.0690660396
C  C457  1  0.19895000  0.32515000  0.24958000  1.0 -0.1602444782
C  C458  1  0.19891000  0.29107000  0.28236000  1.0 -0.1602444782
C  C459  1  0.22695000  0.40151000  0.22117000  1.0 0.0690660396
C  C460  1  0.19580000  0.40034000  0.18599000  1.0 -0.140457332
C  C461  1  0.19615000  0.43399000  0.15275000  1.0 -0.1821057785
C  C462  1  0.22764000  0.46882000  0.15471000  1.0 0.1462125633
C  C463  1  0.25880000  0.46998000  0.18989000  1.0 -0.1821057785
C  C464  1  0.25845000  0.43633000  0.22313000  1.0 -0.140457332
C  C465  1  0.20173000  0.52387000  0.10252000  1.0 0.1397867812
C  C466  1  0.20927000  0.55453000  0.06889000  1.0 -0.0215556155
C  C467  1  0.18596000  0.57860000  0.04508000  1.0 -0.1290186064
C  C468  1  0.15513000  0.57201000  0.05488000  1.0 -0.0215556155
C  C469  1  0.14759000  0.54135000  0.08851000  1.0 -0.1005850617
C  C470  1  0.17090000  0.51728000  0.11233000  1.0 -0.1921439106
C  C471  1  0.24348000  0.55420000  0.06775000  1.0 -0.0215556155
C  C472  1  0.25253000  0.52205000  0.10006000  1.0 0.1200884303
C  C473  1  0.28398000  0.51266000  0.10746000  1.0 -0.1987754455
C  C474  1  0.30640000  0.53544000  0.08256000  1.0 -0.0797816298
C  C475  1  0.29735000  0.56759000  0.05026000  1.0 -0.0287586228
C  C476  1  0.26589000  0.57697000  0.04285000  1.0 -0.1200048216
C  C477  1  0.32264000  0.59158000  0.02474000  1.0 0.5693510457
C  C478  1  0.12873000  0.59661000  0.02846000  1.0 0.5693510457
C  C479  1  0.63920000  0.76780000  0.84450000  1.0 0.0620629297
C  C480  1  0.63722000  0.75978000  0.81460000  1.0 -0.150481423
C  C481  1  0.67152000  0.76528000  0.81140000  1.0 -0.150481423
C  C482  1  0.70800000  0.77900000  0.83800000  1.0 0.0690660396
C  C483  1  0.70998000  0.78702000  0.86790000  1.0 -0.150481423
C  C484  1  0.67568000  0.78152000  0.87110000  1.0 -0.150481423
C  C485  1  0.74320000  0.77060000  0.84210000  1.0 0.0690660396
C  C486  1  0.74810000  0.78150000  0.80680000  1.0 -0.150481423
C  C487  1  0.78470000  0.78910000  0.80650000  1.0 -0.140457332
C  C488  1  0.81630000  0.78570000  0.84160000  1.0 0.0690660396
C  C489  1  0.81130000  0.77470000  0.87680000  1.0 -0.1602444782
C  C490  1  0.77480000  0.76720000  0.87710000  1.0 -0.150481423
C  C491  1  0.04081000  0.67443000  0.65585000  1.0 0.5767991351
C  C492  1  0.01628000  0.70024000  0.62893000  1.0 -0.0417127173
C  C493  1  0.02422000  0.73334000  0.63600000  1.0 -0.1200048216
C  C494  1  0.00076000  0.75718000  0.61056000  1.0 -0.0287586228
C  C495  1  0.96935000  0.74791000  0.57804000  1.0 0.1397867812
C  C496  1  0.96141000  0.71481000  0.57096000  1.0 -0.1987754455
C  C497  1  0.98487000  0.69097000  0.59641000  1.0 -0.0797816298
C  C498  1  0.97034000  0.80250000  0.57562000  1.0 0.1290074618
C  C499  1  0.00144000  0.79282000  0.60918000  1.0 -0.0287586228
C  C500  1  0.02446000  0.81626000  0.63309000  1.0 -0.1200048216
C  C501  1  0.01640000  0.84938000  0.62344000  1.0 -0.0287586228
C  C502  1  0.98531000  0.85907000  0.58988000  1.0 -0.0797816298
C  C503  1  0.96228000  0.83562000  0.56596000  1.0 -0.1987754455
C  C504  1  0.03988000  0.87454000  0.64908000  1.0 0.5693510457
C  C505  1  0.12692000  0.95894000  0.73605000  1.0 0.5693510457
C  C506  1  0.15200000  0.98566000  0.76041000  1.0 -0.0287586228
C  C507  1  0.18411000  0.97765000  0.79348000  1.0 -0.1200048216
C  C508  1  0.20721000  0.00247000  0.81598000  1.0 -0.0215556155
C  C509  1  0.19819000  0.03531000  0.80541000  1.0 0.1200884303
C  C510  1  0.16608000  0.04332000  0.77234000  1.0 -0.1987754455
C  C511  1  0.14299000  0.01849000  0.74984000  1.0 -0.0797816298
C  C512  1  0.25084000  0.03542000  0.85904000  1.0 0.1104632036
C  C513  1  0.24156000  0.00256000  0.85076000  1.0 -0.0215556155
C  C514  1  0.26456000  0.97820000  0.87487000  1.0 -0.1114262561
C  C515  1  0.29684000  0.98670000  0.90726000  1.0 -0.0478669239
C  C516  1  0.30612000  0.01954000  0.91554000  1.0 -0.0744024172
C  C517  1  0.28312000  0.04390000  0.89144000  1.0 -0.1987754455
C  C518  1  0.32062000  0.96036000  0.93315000  1.0 0.5767991351
C  C519  1  0.12181000  0.68273000  0.02111000  1.0 0.5693510457
C  C520  1  0.14420000  0.70988000  0.04412000  1.0 -0.0478669239
C  C521  1  0.17706000  0.74192000  0.03643000  1.0 -0.1290186064
C  C522  1  0.19921000  0.76621000  0.05944000  1.0 -0.0215556155
C  C523  1  0.18851000  0.75849000  0.09013000  1.0 0.1290074618
C  C524  1  0.15566000  0.72646000  0.09781000  1.0 -0.1921439106
C  C525  1  0.13350000  0.70216000  0.07481000  1.0 -0.09110641
C  C526  1  0.18428000  0.78402000  0.14690000  1.0 -0.1114262561
C  C527  1  0.18495000  0.78301000  0.18124000  1.0 -0.1005850617
C  C528  1  0.25079000  0.77991000  0.21395000  1.0 -0.1005850617
C  C529  1  0.25013000  0.78091000  0.17961000  1.0 -0.1005850617
C  C530  1  0.21271000  0.74719000  0.28030000  1.0 -0.1005850617
C  C531  1  0.21553000  0.74627000  0.31561000  1.0 -0.0478669239
C  C532  1  0.22200000  0.77940000  0.32010000  1.0 -0.0287586228
C  C533  1  0.22880000  0.81640000  0.28930000  1.0 -0.0797816298
C  C534  1  0.22597000  0.81733000  0.25400000  1.0 -0.1290186064
C  C535  1  0.25543000  0.78193000  0.38820000  1.0 -0.1290186064
C  C536  1  0.25657000  0.78143000  0.42252000  1.0 -0.1114262561
C  C537  1  0.18810000  0.77630000  0.39290000  1.0 -0.1114262561
C  C538  1  0.18698000  0.77682000  0.35860000  1.0 -0.1114262561
C  C539  1  0.25893000  0.77119000  0.49920000  1.0 -0.1005850617
C  C540  1  0.25975000  0.77085000  0.53334000  1.0 -0.1114262561
C  C541  1  0.19488000  0.77644000  0.49975000  1.0 -0.09110641
C  C542  1  0.19405000  0.77677000  0.46565000  1.0 -0.09110641
C  C543  1  0.04278000  0.59246000  0.94011000  1.0 0.5767991351
C  C544  1  0.01754000  0.56566000  0.91621000  1.0 -0.0287586228
C  C545  1  0.02424000  0.57418000  0.88267000  1.0 -0.1114262561
C  C546  1  0.99931000  0.55031000  0.85923000  1.0 -0.0140806984
C  C547  1  0.96770000  0.51792000  0.86931000  1.0 0.1200884303
C  C548  1  0.96100000  0.50940000  0.90285000  1.0 -0.1921439106
C  C549  1  0.98592000  0.53328000  0.92629000  1.0 -0.0797816298
C  C550  1  0.96497000  0.51909000  0.81381000  1.0 0.1290074618
C  C551  1  0.99766000  0.55078000  0.82337000  1.0 -0.0215556155
C  C552  1  0.02211000  0.57415000  0.80048000  1.0 -0.1114262561
C  C553  1  0.01387000  0.56583000  0.76803000  1.0 -0.0478669239
C  C554  1  0.98119000  0.53415000  0.75847000  1.0 -0.0744024172
C  C555  1  0.95674000  0.51078000  0.78136000  1.0 -0.1921439106
C  C556  1  0.03943000  0.59083000  0.74331000  1.0 0.5767991351
C  C557  1  0.12899000  0.67451000  0.66076000  1.0 0.5767991351
C  C558  1  0.15443000  0.69927000  0.63561000  1.0 -0.0417127173
C  C559  1  0.18692000  0.73156000  0.64404000  1.0 -0.1290186064
C  C560  1  0.21047000  0.75479000  0.62024000  1.0 -0.0287586228
C  C561  1  0.20154000  0.74574000  0.58800000  1.0 0.1200884303
C  C562  1  0.16906000  0.71344000  0.57958000  1.0 -0.2219052406
C  C563  1  0.14551000  0.69021000  0.60338000  1.0 -0.0797816298
C  C564  1  0.12630000  0.58882000  0.74564000  1.0 0.5767991351
C  C565  1  0.15124000  0.56230000  0.77094000  1.0 -0.0287586228
C  C566  1  0.18360000  0.57064000  0.80335000  1.0 -0.1290186064
C  C567  1  0.20703000  0.54669000  0.82679000  1.0 -0.0215556155
C  C568  1  0.19811000  0.51441000  0.81781000  1.0 0.1104632036
C  C569  1  0.16575000  0.50607000  0.78539000  1.0 -0.1921439106
C  C570  1  0.14233000  0.53001000  0.76196000  1.0 -0.0797816298
C  C571  1  0.32226000  0.59184000  0.93890000  1.0 0.5693510457
C  C572  1  0.25140000  0.51486000  0.87137000  1.0 0.1104632036
C  C573  1  0.24146000  0.54684000  0.86157000  1.0 -0.0215556155
C  C574  1  0.26529000  0.57253000  0.88314000  1.0 -0.1200048216
C  C575  1  0.29905000  0.56625000  0.91451000  1.0 -0.0478669239
C  C576  1  0.30898000  0.53426000  0.92430000  1.0 -0.0797816298
C  C577  1  0.28516000  0.50856000  0.90274000  1.0 -0.1921439106
C  C578  1  0.22774000  0.46124000  0.84656000  1.0 0.1588637253
C  C579  1  0.24990000  0.46634000  0.82690000  1.0 -0.1821057785
C  C580  1  0.24854000  0.43386000  0.82360000  1.0 -0.140457332
C  C581  1  0.22505000  0.39631000  0.84000000  1.0 0.0620629297
C  C582  1  0.20290000  0.39122000  0.85970000  1.0 -0.140457332
C  C583  1  0.20424000  0.42368000  0.86290000  1.0 -0.1821057785
C  C584  1  0.90952000  0.46776000  0.83984000  1.0 0.1657274386
C  C585  1  0.87674000  0.46924000  0.80577000  1.0 -0.1821057785
C  C586  1  0.84199000  0.43725000  0.80500000  1.0 -0.140457332
C  C587  1  0.84002000  0.40376000  0.83830000  1.0 0.0620629297
C  C588  1  0.87280000  0.40228000  0.87237000  1.0 -0.1200048216
C  C589  1  0.90754000  0.43428000  0.87314000  1.0 -0.1679467439
C  C590  1  0.80217000  0.36863000  0.83759000  1.0 0.0690660396
C  C591  1  0.77906000  0.35814000  0.80373000  1.0 -0.150481423
C  C592  1  0.74549000  0.32485000  0.80374000  1.0 -0.1602444782
C  C593  1  0.73501000  0.30203000  0.83761000  1.0 0.0690660396
C  C594  1  0.75810000  0.31252000  0.87147000  1.0 -0.140457332
C  C595  1  0.79169000  0.34581000  0.87146000  1.0 -0.140457332
C  C596  1  0.22483000  0.09017000  0.82971000  1.0 0.1588637253
C  C597  1  0.19996000  0.08538000  0.84620000  1.0 -0.1821057785
C  C598  1  0.19888000  0.11812000  0.84670000  1.0 -0.1290186064
C  C599  1  0.22267000  0.15565000  0.83070000  1.0 0.0620629297
C  C600  1  0.24754000  0.16044000  0.81420000  1.0 -0.1602444782
C  C601  1  0.24862000  0.12770000  0.81370000  1.0 -0.1821057785
C  C602  1  0.91576000  0.77458000  0.52308000  1.0 0.1462125633
C  C603  1  0.88014000  0.74478000  0.52573000  1.0 -0.1921439106
C  C604  1  0.84674000  0.74394000  0.49225000  1.0 -0.140457332
C  C605  1  0.84898000  0.77290000  0.45612000  1.0 0.0620629297
C  C606  1  0.88462000  0.80270000  0.45347000  1.0 -0.140457332
C  C607  1  0.91802000  0.80354000  0.48694000  1.0 -0.1821057785
C  C608  1  0.81068000  0.77300000  0.42214000  1.0 0.0690660396
C  C609  1  0.81172000  0.80554000  0.38794000  1.0 -0.150481423
C  C610  1  0.77930000  0.80466000  0.35362000  1.0 -0.1602444782
C  C611  1  0.74585000  0.77125000  0.35351000  1.0 0.0690660396
C  C612  1  0.74482000  0.73870000  0.38771000  1.0 -0.150481423
C  C613  1  0.77723000  0.73957000  0.42203000  1.0 -0.150481423
C  C614  1  0.70696000  0.77314000  0.31897000  1.0 0.0690660396
C  C615  1  0.67092000  0.74518000  0.32280000  1.0 -0.150481423
C  C616  1  0.63684000  0.74514000  0.29002000  1.0 -0.150481423
C  C617  1  0.63882000  0.77308000  0.25341000  1.0 0.0690660396
C  C618  1  0.67485000  0.80105000  0.24958000  1.0 -0.1602444782
C  C619  1  0.70893000  0.80109000  0.28236000  1.0 -0.1602444782
C  C620  1  0.59849000  0.77305000  0.22117000  1.0 0.0690660396
C  C621  1  0.59966000  0.80420000  0.18599000  1.0 -0.150481423
C  C622  1  0.56601000  0.80385000  0.15275000  1.0 -0.1821057785
C  C623  1  0.53118000  0.77236000  0.15471000  1.0 0.1462125633
C  C624  1  0.53002000  0.74120000  0.18989000  1.0 -0.1821057785
C  C625  1  0.56367000  0.74155000  0.22313000  1.0 -0.140457332
C  C626  1  0.47613000  0.79827000  0.10252000  1.0 0.1397867812
C  C627  1  0.44547000  0.79073000  0.06889000  1.0 -0.0215556155
C  C628  1  0.42140000  0.81404000  0.04508000  1.0 -0.1290186064
C  C629  1  0.42799000  0.84487000  0.05488000  1.0 -0.0215556155
C  C630  1  0.45865000  0.85241000  0.08851000  1.0 -0.1005850617
C  C631  1  0.48272000  0.82910000  0.11233000  1.0 -0.1921439106
C  C632  1  0.44580000  0.75652000  0.06775000  1.0 -0.0215556155
C  C633  1  0.47795000  0.74747000  0.10006000  1.0 0.1200884303
C  C634  1  0.48734000  0.71602000  0.10746000  1.0 -0.1987754455
C  C635  1  0.46456000  0.69360000  0.08256000  1.0 -0.0797816298
C  C636  1  0.43241000  0.70265000  0.05026000  1.0 -0.0287586228
C  C637  1  0.42303000  0.73411000  0.04285000  1.0 -0.1200048216
C  C638  1  0.40842000  0.67736000  0.02474000  1.0 0.5693510457
C  C639  1  0.40339000  0.87127000  0.02846000  1.0 0.5693510457
C  C640  1  0.23220000  0.36080000  0.84450000  1.0 0.0620629297
C  C641  1  0.24022000  0.36278000  0.81460000  1.0 -0.150481423
C  C642  1  0.23472000  0.32848000  0.81140000  1.0 -0.150481423
C  C643  1  0.22100000  0.29200000  0.83800000  1.0 0.0690660396
C  C644  1  0.21298000  0.29002000  0.86790000  1.0 -0.1602444782
C  C645  1  0.21848000  0.32432000  0.87110000  1.0 -0.150481423
C  C646  1  0.22940000  0.25680000  0.84210000  1.0 0.0690660396
C  C647  1  0.21850000  0.25190000  0.80680000  1.0 -0.150481423
C  C648  1  0.21090000  0.21530000  0.80650000  1.0 -0.140457332
C  C649  1  0.21430000  0.18370000  0.84160000  1.0 0.0690660396
C  C650  1  0.22530000  0.18870000  0.87680000  1.0 -0.1602444782
C  C651  1  0.23280000  0.22520000  0.87710000  1.0 -0.150481423
C  C652  1  0.21695000  0.78305000  0.14608000  1.0 0.1021307074
C  C653  1  0.21862000  0.78138000  0.21477000  1.0 0.0389723389
C  C654  1  0.21761000  0.78239000  0.24955000  1.0 0.0278226226
C  C655  1  0.22050000  0.77950000  0.35620000  1.0 0.0499996079
C  C656  1  0.22214000  0.77786000  0.42489000  1.0 0.0278226226
C  C657  1  0.22596000  0.77404000  0.46539000  1.0 0.0278226226
C  C658  1  0.22713000  0.77287000  0.53360000  1.0 0.0818345591
N  N1  1  0.04797000  0.22427000  0.44291000  1.0 -0.09110641
N  N2  1  0.77616000  0.94502000  0.16806000  1.0 -0.0797816298
N  N3  1  0.05464000  0.50038000  0.15918000  1.0 -0.09110641
N  N4  1  0.77550000  0.50574000  0.15510000  1.0 -0.1005850617
N  N5  1  0.50507000  0.22781000  0.87881000  1.0 -0.09110641
N  N6  1  0.77573000  0.95203000  0.44291000  1.0 -0.09110641
N  N7  1  0.05498000  0.22384000  0.16806000  1.0 -0.0797816298
N  N8  1  0.49962000  0.94536000  0.15918000  1.0 -0.09110641
N  N9  1  0.49426000  0.22450000  0.15510000  1.0 -0.1005850617
N  N10  1  0.77219000  0.49493000  0.87881000  1.0 -0.09110641
N  N11  1  0.78501000  0.21499000  0.89065000  1.0 -0.1821057785
N  N12  1  0.77250000  0.22750000  0.43137000  1.0 -0.1602444782
N  N13  1  0.22427000  0.04797000  0.55709000  1.0 -0.09110641
N  N14  1  0.94502000  0.77616000  0.83194000  1.0 -0.0797816298
N  N15  1  0.50038000  0.05464000  0.84082000  1.0 -0.09110641
N  N16  1  0.50574000  0.77550000  0.84490000  1.0 -0.1005850617
N  N17  1  0.22781000  0.50507000  0.12119000  1.0 -0.09110641
N  N18  1  0.95203000  0.77573000  0.55709000  1.0 -0.09110641
N  N19  1  0.22384000  0.05498000  0.83194000  1.0 -0.0797816298
N  N20  1  0.94536000  0.49962000  0.84082000  1.0 -0.09110641
N  N21  1  0.22450000  0.49426000  0.84490000  1.0 -0.1005850617
N  N22  1  0.49493000  0.77219000  0.12119000  1.0 -0.09110641
N  N23  1  0.21499000  0.78501000  0.10935000  1.0 -0.1679467439
N  N24  1  0.22750000  0.77250000  0.56863000  1.0 -0.1602444782
O  O1  1  0.93065000  0.13617000  0.32098000  1.0 -0.5401591787
O  O2  1  0.86436000  0.06920000  0.25445000  1.0 -0.4804890433
O  O3  1  0.68828000  0.06896000  0.07484000  1.0 -0.5017285941
O  O4  1  0.86781000  0.30861000  0.00689000  1.0 -0.5117021033
O  O5  1  0.90593000  0.34667000  0.96906000  1.0 -0.5017285941
O  O6  1  0.96597000  0.41749000  0.03038000  1.0 -0.5187852485
O  O7  1  0.93132000  0.38098000  0.24715000  1.0 -0.5117021033
O  O8  1  0.93068000  0.31544000  0.31476000  1.0 -0.5289324054
O  O9  1  0.86201000  0.31597000  0.31061000  1.0 -0.5187852485
O  O10  1  0.89954000  0.35454000  0.34839000  1.0 -0.5289324054
O  O11  1  0.96785000  0.35513000  0.35211000  1.0 -0.5187852485
O  O12  1  0.96932000  0.41862000  0.28527000  1.0 -0.5187852485
O  O13  1  0.90255000  0.42183000  0.28272000  1.0 -0.5289324054
O  O14  1  0.68643000  0.38021000  0.06993000  1.0 -0.4698568984
O  O15  1  0.64813000  0.41839000  0.03168000  1.0 -0.5289324054
O  O16  1  0.86438000  0.38258000  0.24540000  1.0 -0.5017285941
O  O17  1  0.92857000  0.37971000  0.06888000  1.0 -0.5017285941
O  O18  1  0.65061000  0.02947000  0.03787000  1.0 -0.5187852485
O  O19  1  0.90236000  0.03092000  0.29351000  1.0 -0.5401591787
O  O20  1  0.96822000  0.09734000  0.35967000  1.0 -0.4698568984
O  O21  1  0.62139000  0.31179000  0.00455000  1.0 -0.5401591787
O  O22  1  0.58371000  0.35085000  0.96633000  1.0 -0.4698568984
O  O23  1  0.58638000  0.09914000  0.96333000  1.0 -0.5017285941
O  O24  1  0.62433000  0.13793000  0.00142000  1.0 -0.5187852485
O  O25  1  0.86383000  0.06935000  0.32098000  1.0 -0.5401591787
O  O26  1  0.93080000  0.13564000  0.25445000  1.0 -0.4804890433
O  O27  1  0.93104000  0.31172000  0.07484000  1.0 -0.5017285941
O  O28  1  0.69139000  0.13219000  0.00689000  1.0 -0.5117021033
O  O29  1  0.65333000  0.09407000  0.96906000  1.0 -0.5017285941
O  O30  1  0.58251000  0.03403000  0.03038000  1.0 -0.5187852485
O  O31  1  0.61902000  0.06868000  0.24715000  1.0 -0.5117021033
O  O32  1  0.68456000  0.06932000  0.31476000  1.0 -0.5289324054
O  O33  1  0.68403000  0.13799000  0.31061000  1.0 -0.5187852485
O  O34  1  0.64546000  0.10046000  0.34839000  1.0 -0.5289324054
O  O35  1  0.64487000  0.03215000  0.35211000  1.0 -0.5187852485
O  O36  1  0.58138000  0.03068000  0.28527000  1.0 -0.5187852485
O  O37  1  0.57817000  0.09745000  0.28272000  1.0 -0.5289324054
O  O38  1  0.61979000  0.31357000  0.06993000  1.0 -0.4698568984
O  O39  1  0.58161000  0.35187000  0.03168000  1.0 -0.5289324054
O  O40  1  0.61742000  0.13562000  0.24540000  1.0 -0.5117021033
O  O41  1  0.62029000  0.07143000  0.06888000  1.0 -0.5017285941
O  O42  1  0.97053000  0.34939000  0.03787000  1.0 -0.5289324054
O  O43  1  0.96908000  0.09764000  0.29351000  1.0 -0.5401591787
O  O44  1  0.90266000  0.03178000  0.35967000  1.0 -0.4698568984
O  O45  1  0.68821000  0.37861000  0.00455000  1.0 -0.5401591787
O  O46  1  0.64915000  0.41629000  0.96633000  1.0 -0.4698568984
O  O47  1  0.90086000  0.41362000  0.96333000  1.0 -0.5117021033
O  O48  1  0.86207000  0.37567000  0.00142000  1.0 -0.5187852485
O  O49  1  0.13617000  0.93065000  0.67902000  1.0 -0.5401591787
O  O50  1  0.06920000  0.86436000  0.74555000  1.0 -0.4804890433
O  O51  1  0.06896000  0.68828000  0.92516000  1.0 -0.5017285941
O  O52  1  0.30861000  0.86781000  0.99311000  1.0 -0.5117021033
O  O53  1  0.34667000  0.90593000  0.03094000  1.0 -0.5017285941
O  O54  1  0.41749000  0.96597000  0.96962000  1.0 -0.5187852485
O  O55  1  0.38098000  0.93132000  0.75285000  1.0 -0.5117021033
O  O56  1  0.31544000  0.93068000  0.68524000  1.0 -0.5289324054
O  O57  1  0.31597000  0.86201000  0.68939000  1.0 -0.5187852485
O  O58  1  0.35454000  0.89954000  0.65161000  1.0 -0.5289324054
O  O59  1  0.35513000  0.96785000  0.64789000  1.0 -0.5187852485
O  O60  1  0.41862000  0.96932000  0.71473000  1.0 -0.5187852485
O  O61  1  0.42183000  0.90255000  0.71728000  1.0 -0.5289324054
O  O62  1  0.38021000  0.68643000  0.93007000  1.0 -0.4698568984
O  O63  1  0.41839000  0.64813000  0.96832000  1.0 -0.5289324054
O  O64  1  0.38258000  0.86438000  0.75460000  1.0 -0.5017285941
O  O65  1  0.37971000  0.92857000  0.93112000  1.0 -0.5017285941
O  O66  1  0.02947000  0.65061000  0.96213000  1.0 -0.5187852485
O  O67  1  0.03092000  0.90236000  0.70649000  1.0 -0.5401591787
O  O68  1  0.09734000  0.96822000  0.64033000  1.0 -0.4698568984
O  O69  1  0.31179000  0.62139000  0.99545000  1.0 -0.5401591787
O  O70  1  0.35085000  0.58371000  0.03367000  1.0 -0.4698568984
O  O71  1  0.09914000  0.58638000  0.03667000  1.0 -0.5017285941
O  O72  1  0.13793000  0.62433000  0.99858000  1.0 -0.5187852485
O  O73  1  0.06935000  0.86383000  0.67902000  1.0 -0.5401591787
O  O74  1  0.13564000  0.93080000  0.74555000  1.0 -0.4804890433
O  O75  1  0.31172000  0.93104000  0.92516000  1.0 -0.5017285941
O  O76  1  0.13219000  0.69139000  0.99311000  1.0 -0.5117021033
O  O77  1  0.09407000  0.65333000  0.03094000  1.0 -0.5017285941
O  O78  1  0.03403000  0.58251000  0.96962000  1.0 -0.5187852485
O  O79  1  0.06868000  0.61902000  0.75285000  1.0 -0.5117021033
O  O80  1  0.06932000  0.68456000  0.68524000  1.0 -0.5289324054
O  O81  1  0.13799000  0.68403000  0.68939000  1.0 -0.5187852485
O  O82  1  0.10046000  0.64546000  0.65161000  1.0 -0.5289324054
O  O83  1  0.03215000  0.64487000  0.64789000  1.0 -0.5187852485
O  O84  1  0.03068000  0.58138000  0.71473000  1.0 -0.5187852485
O  O85  1  0.09745000  0.57817000  0.71728000  1.0 -0.5289324054
O  O86  1  0.31357000  0.61979000  0.93007000  1.0 -0.4698568984
O  O87  1  0.35187000  0.58161000  0.96832000  1.0 -0.5289324054
O  O88  1  0.13562000  0.61742000  0.75460000  1.0 -0.5117021033
O  O89  1  0.07143000  0.62029000  0.93112000  1.0 -0.5017285941
O  O90  1  0.34939000  0.97053000  0.96213000  1.0 -0.5187852485
O  O91  1  0.09764000  0.96908000  0.70649000  1.0 -0.5401591787
O  O92  1  0.03178000  0.90266000  0.64033000  1.0 -0.4698568984
O  O93  1  0.37861000  0.68821000  0.99545000  1.0 -0.5401591787
O  O94  1  0.41629000  0.64915000  0.03367000  1.0 -0.4698568984
O  O95  1  0.41362000  0.90086000  0.03667000  1.0 -0.5117021033
O  O96  1  0.37567000  0.86207000  0.99858000  1.0 -0.5187852485
