# DDEC6 charges by PACMAN v1.1 (https://github.com/mtap-research/PACMAN-charge/)
data_JOZWUS_ASR_pacman
_symmetry_space_group_name_H-M   'P 1'
_cell_length_a   25.36690000
_cell_length_b   25.36690000
_cell_length_c   25.36690000
_cell_angle_alpha   90.00000000
_cell_angle_beta   90.00000000
_cell_angle_gamma   90.00000000
_symmetry_Int_Tables_number   1
_chemical_formula_structural   Zr6Co3H168C264(N3O8)4
_chemical_formula_sum   'Zr6 Co3 H168 C264 N12 O32'
_cell_volume   16323.08306122
_cell_formula_units_Z   1
loop_
 _symmetry_equiv_pos_site_id
 _symmetry_equiv_pos_as_xyz
  1  'x, y, z'
loop_
 _atom_site_type_symbol
 _atom_site_label
 _atom_site_symmetry_multiplicity
 _atom_site_fract_x
 _atom_site_fract_y
 _atom_site_fract_z
 _atom_site_occupancy
 _atom_site_charge
Zr  Zr1  1  0.00000000  0.90218000  0.00000000  1.0 2.4175489125
Zr  Zr2  1  0.00000000  0.09782000  0.00000000  1.0 2.4175489125
Zr  Zr3  1  0.00000000  0.00000000  0.90218000  1.0 2.4175489125
Zr  Zr4  1  0.00000000  0.00000000  0.09782000  1.0 2.4175489125
Zr  Zr5  1  0.90218000  0.00000000  0.00000000  1.0 2.4175489125
Zr  Zr6  1  0.09782000  0.00000000  0.00000000  1.0 2.4175489125
Co  Co1  1  0.50000000  0.50000000  0.00000000  1.0 0.6125477133
Co  Co2  1  0.00000000  0.50000000  0.50000000  1.0 0.6151458798
Co  Co3  1  0.50000000  0.00000000  0.50000000  1.0 0.6125477133
H  H1  1  0.88200000  0.77130000  0.00000000  1.0 0.1361485002
H  H2  1  0.11800000  0.22870000  0.00000000  1.0 0.1361485002
H  H3  1  0.11800000  0.77130000  0.00000000  1.0 0.1361485002
H  H4  1  0.88200000  0.22870000  0.00000000  1.0 0.1361485002
H  H5  1  0.00000000  0.88200000  0.77130000  1.0 0.1361485002
H  H6  1  0.00000000  0.11800000  0.22870000  1.0 0.1361485002
H  H7  1  0.00000000  0.11800000  0.77130000  1.0 0.1361485002
H  H8  1  0.00000000  0.88200000  0.22870000  1.0 0.1361485002
H  H9  1  0.77130000  0.00000000  0.88200000  1.0 0.1361485002
H  H10  1  0.22870000  0.00000000  0.11800000  1.0 0.1361485002
H  H11  1  0.77130000  0.00000000  0.11800000  1.0 0.1361485002
H  H12  1  0.22870000  0.00000000  0.88200000  1.0 0.1361485002
H  H13  1  0.77130000  0.88200000  0.00000000  1.0 0.1361485002
H  H14  1  0.22870000  0.11800000  0.00000000  1.0 0.1361485002
H  H15  1  0.77130000  0.11800000  0.00000000  1.0 0.1361485002
H  H16  1  0.22870000  0.88200000  0.00000000  1.0 0.1361485002
H  H17  1  0.88200000  0.00000000  0.22870000  1.0 0.1361485002
H  H18  1  0.11800000  0.00000000  0.77130000  1.0 0.1361485002
H  H19  1  0.11800000  0.00000000  0.22870000  1.0 0.1361485002
H  H20  1  0.88200000  0.00000000  0.77130000  1.0 0.1361485002
H  H21  1  0.00000000  0.77130000  0.11800000  1.0 0.1361485002
H  H22  1  0.00000000  0.22870000  0.88200000  1.0 0.1361485002
H  H23  1  0.00000000  0.77130000  0.88200000  1.0 0.1361485002
H  H24  1  0.00000000  0.22870000  0.11800000  1.0 0.1361485002
H  H25  1  0.81640000  0.70720000  0.00000000  1.0 0.1194409681
H  H26  1  0.18360000  0.29280000  0.00000000  1.0 0.1194409681
H  H27  1  0.18360000  0.70720000  0.00000000  1.0 0.1194409681
H  H28  1  0.81640000  0.29280000  0.00000000  1.0 0.1194409681
H  H29  1  0.00000000  0.81640000  0.70720000  1.0 0.1194409681
H  H30  1  0.00000000  0.18360000  0.29280000  1.0 0.1194409681
H  H31  1  0.00000000  0.18360000  0.70720000  1.0 0.1194409681
H  H32  1  0.00000000  0.81640000  0.29280000  1.0 0.1194409681
H  H33  1  0.70720000  0.00000000  0.81640000  1.0 0.1194409681
H  H34  1  0.29280000  0.00000000  0.18360000  1.0 0.1194409681
H  H35  1  0.70720000  0.00000000  0.18360000  1.0 0.1194409681
H  H36  1  0.29280000  0.00000000  0.81640000  1.0 0.1194409681
H  H37  1  0.70720000  0.81640000  0.00000000  1.0 0.1194409681
H  H38  1  0.29280000  0.18360000  0.00000000  1.0 0.1194409681
H  H39  1  0.70720000  0.18360000  0.00000000  1.0 0.1194409681
H  H40  1  0.29280000  0.81640000  0.00000000  1.0 0.1194409681
H  H41  1  0.81640000  0.00000000  0.29280000  1.0 0.1194409681
H  H42  1  0.18360000  0.00000000  0.70720000  1.0 0.1194409681
H  H43  1  0.18360000  0.00000000  0.29280000  1.0 0.1194409681
H  H44  1  0.81640000  0.00000000  0.70720000  1.0 0.1194409681
H  H45  1  0.00000000  0.70720000  0.18360000  1.0 0.1194409681
H  H46  1  0.00000000  0.29280000  0.81640000  1.0 0.1194409681
H  H47  1  0.00000000  0.70720000  0.81640000  1.0 0.1194409681
H  H48  1  0.00000000  0.29280000  0.18360000  1.0 0.1194409681
H  H49  1  0.69350000  0.54880000  0.00000000  1.0 0.1310222028
H  H50  1  0.30650000  0.45120000  0.00000000  1.0 0.1310222028
H  H51  1  0.30650000  0.54880000  0.00000000  1.0 0.1310222028
H  H52  1  0.69350000  0.45120000  0.00000000  1.0 0.1310222028
H  H53  1  0.00000000  0.69350000  0.54880000  1.0 0.1310222028
H  H54  1  0.00000000  0.30650000  0.45120000  1.0 0.1310222028
H  H55  1  0.00000000  0.30650000  0.54880000  1.0 0.1310222028
H  H56  1  0.00000000  0.69350000  0.45120000  1.0 0.1310222028
H  H57  1  0.54880000  0.00000000  0.69350000  1.0 0.1310222028
H  H58  1  0.45120000  0.00000000  0.30650000  1.0 0.1310222028
H  H59  1  0.54880000  0.00000000  0.30650000  1.0 0.1310222028
H  H60  1  0.45120000  0.00000000  0.69350000  1.0 0.1310222028
H  H61  1  0.54880000  0.69350000  0.00000000  1.0 0.1310222028
H  H62  1  0.45120000  0.30650000  0.00000000  1.0 0.1310222028
H  H63  1  0.54880000  0.30650000  0.00000000  1.0 0.1310222028
H  H64  1  0.45120000  0.69350000  0.00000000  1.0 0.1310222028
H  H65  1  0.69350000  0.00000000  0.45120000  1.0 0.1310222028
H  H66  1  0.30650000  0.00000000  0.54880000  1.0 0.1310222028
H  H67  1  0.30650000  0.00000000  0.45120000  1.0 0.1310222028
H  H68  1  0.69350000  0.00000000  0.54880000  1.0 0.1310222028
H  H69  1  0.00000000  0.54880000  0.30650000  1.0 0.1310222028
H  H70  1  0.00000000  0.45120000  0.69350000  1.0 0.1310222028
H  H71  1  0.00000000  0.54880000  0.69350000  1.0 0.1310222028
H  H72  1  0.00000000  0.45120000  0.30650000  1.0 0.1310222028
H  H73  1  0.61320000  0.67500000  0.92950000  1.0 0.1101975958
H  H74  1  0.38680000  0.32500000  0.92950000  1.0 0.1101975958
H  H75  1  0.38680000  0.67500000  0.07050000  1.0 0.1101975958
H  H76  1  0.61320000  0.32500000  0.07050000  1.0 0.1101975958
H  H77  1  0.92950000  0.61320000  0.67500000  1.0 0.1101975958
H  H78  1  0.92950000  0.38680000  0.32500000  1.0 0.1101975958
H  H79  1  0.07050000  0.38680000  0.67500000  1.0 0.1101975958
H  H80  1  0.07050000  0.61320000  0.32500000  1.0 0.1101975958
H  H81  1  0.67500000  0.92950000  0.61320000  1.0 0.1101975958
H  H82  1  0.32500000  0.92950000  0.38680000  1.0 0.1101975958
H  H83  1  0.67500000  0.07050000  0.38680000  1.0 0.1101975958
H  H84  1  0.32500000  0.07050000  0.61320000  1.0 0.1101975958
H  H85  1  0.67500000  0.61320000  0.07050000  1.0 0.1101975958
H  H86  1  0.32500000  0.38680000  0.07050000  1.0 0.1101975958
H  H87  1  0.67500000  0.38680000  0.92950000  1.0 0.1101975958
H  H88  1  0.32500000  0.61320000  0.92950000  1.0 0.1101975958
H  H89  1  0.61320000  0.92950000  0.32500000  1.0 0.1101975958
H  H90  1  0.38680000  0.92950000  0.67500000  1.0 0.1101975958
H  H91  1  0.38680000  0.07050000  0.32500000  1.0 0.1101975958
H  H92  1  0.61320000  0.07050000  0.67500000  1.0 0.1101975958
H  H93  1  0.92950000  0.67500000  0.38680000  1.0 0.1101975958
H  H94  1  0.92950000  0.32500000  0.61320000  1.0 0.1101975958
H  H95  1  0.07050000  0.67500000  0.61320000  1.0 0.1101975958
H  H96  1  0.07050000  0.32500000  0.38680000  1.0 0.1101975958
H  H97  1  0.38680000  0.32500000  0.07050000  1.0 0.1101975958
H  H98  1  0.61320000  0.67500000  0.07050000  1.0 0.1101975958
H  H99  1  0.61320000  0.32500000  0.92950000  1.0 0.1101975958
H  H100  1  0.38680000  0.67500000  0.92950000  1.0 0.1101975958
H  H101  1  0.07050000  0.38680000  0.32500000  1.0 0.1101975958
H  H102  1  0.07050000  0.61320000  0.67500000  1.0 0.1101975958
H  H103  1  0.92950000  0.61320000  0.32500000  1.0 0.1101975958
H  H104  1  0.92950000  0.38680000  0.67500000  1.0 0.1101975958
H  H105  1  0.32500000  0.07050000  0.38680000  1.0 0.1101975958
H  H106  1  0.67500000  0.07050000  0.61320000  1.0 0.1101975958
H  H107  1  0.32500000  0.92950000  0.61320000  1.0 0.1101975958
H  H108  1  0.67500000  0.92950000  0.38680000  1.0 0.1101975958
H  H109  1  0.32500000  0.38680000  0.92950000  1.0 0.1101975958
H  H110  1  0.67500000  0.61320000  0.92950000  1.0 0.1101975958
H  H111  1  0.32500000  0.61320000  0.07050000  1.0 0.1101975958
H  H112  1  0.67500000  0.38680000  0.07050000  1.0 0.1101975958
H  H113  1  0.38680000  0.07050000  0.67500000  1.0 0.1101975958
H  H114  1  0.61320000  0.07050000  0.32500000  1.0 0.1101975958
H  H115  1  0.61320000  0.92950000  0.67500000  1.0 0.1101975958
H  H116  1  0.38680000  0.92950000  0.32500000  1.0 0.1101975958
H  H117  1  0.07050000  0.32500000  0.61320000  1.0 0.1101975958
H  H118  1  0.07050000  0.67500000  0.38680000  1.0 0.1101975958
H  H119  1  0.92950000  0.32500000  0.38680000  1.0 0.1101975958
H  H120  1  0.92950000  0.67500000  0.61320000  1.0 0.1101975958
H  H121  1  0.67990000  0.74170000  0.93530000  1.0 0.1101975958
H  H122  1  0.32010000  0.25830000  0.93530000  1.0 0.1101975958
H  H123  1  0.32010000  0.74170000  0.06470000  1.0 0.1101975958
H  H124  1  0.67990000  0.25830000  0.06470000  1.0 0.1101975958
H  H125  1  0.93530000  0.67990000  0.74170000  1.0 0.1101975958
H  H126  1  0.93530000  0.32010000  0.25830000  1.0 0.1101975958
H  H127  1  0.06470000  0.32010000  0.74170000  1.0 0.1101975958
H  H128  1  0.06470000  0.67990000  0.25830000  1.0 0.1101975958
H  H129  1  0.74170000  0.93530000  0.67990000  1.0 0.1101975958
H  H130  1  0.25830000  0.93530000  0.32010000  1.0 0.1101975958
H  H131  1  0.74170000  0.06470000  0.32010000  1.0 0.1101975958
H  H132  1  0.25830000  0.06470000  0.67990000  1.0 0.1101975958
H  H133  1  0.74170000  0.67990000  0.06470000  1.0 0.1101975958
H  H134  1  0.25830000  0.32010000  0.06470000  1.0 0.1101975958
H  H135  1  0.74170000  0.32010000  0.93530000  1.0 0.1101975958
H  H136  1  0.25830000  0.67990000  0.93530000  1.0 0.1101975958
H  H137  1  0.67990000  0.93530000  0.25830000  1.0 0.1101975958
H  H138  1  0.32010000  0.93530000  0.74170000  1.0 0.1101975958
H  H139  1  0.32010000  0.06470000  0.25830000  1.0 0.1101975958
H  H140  1  0.67990000  0.06470000  0.74170000  1.0 0.1101975958
H  H141  1  0.93530000  0.74170000  0.32010000  1.0 0.1101975958
H  H142  1  0.93530000  0.25830000  0.67990000  1.0 0.1101975958
H  H143  1  0.06470000  0.74170000  0.67990000  1.0 0.1101975958
H  H144  1  0.06470000  0.25830000  0.32010000  1.0 0.1101975958
H  H145  1  0.32010000  0.25830000  0.06470000  1.0 0.1101975958
H  H146  1  0.67990000  0.74170000  0.06470000  1.0 0.1101975958
H  H147  1  0.67990000  0.25830000  0.93530000  1.0 0.1101975958
H  H148  1  0.32010000  0.74170000  0.93530000  1.0 0.1101975958
H  H149  1  0.06470000  0.32010000  0.25830000  1.0 0.1101975958
H  H150  1  0.06470000  0.67990000  0.74170000  1.0 0.1101975958
H  H151  1  0.93530000  0.67990000  0.25830000  1.0 0.1101975958
H  H152  1  0.93530000  0.32010000  0.74170000  1.0 0.1101975958
H  H153  1  0.25830000  0.06470000  0.32010000  1.0 0.1101975958
H  H154  1  0.74170000  0.06470000  0.67990000  1.0 0.1101975958
H  H155  1  0.25830000  0.93530000  0.67990000  1.0 0.1101975958
H  H156  1  0.74170000  0.93530000  0.32010000  1.0 0.1101975958
H  H157  1  0.25830000  0.32010000  0.93530000  1.0 0.1101975958
H  H158  1  0.74170000  0.67990000  0.93530000  1.0 0.1101975958
H  H159  1  0.25830000  0.67990000  0.06470000  1.0 0.1101975958
H  H160  1  0.74170000  0.32010000  0.06470000  1.0 0.1101975958
H  H161  1  0.32010000  0.06470000  0.74170000  1.0 0.1101975958
H  H162  1  0.67990000  0.06470000  0.25830000  1.0 0.1101975958
H  H163  1  0.67990000  0.93530000  0.74170000  1.0 0.1101975958
H  H164  1  0.32010000  0.93530000  0.25830000  1.0 0.1101975958
H  H165  1  0.06470000  0.25830000  0.67990000  1.0 0.1101975958
H  H166  1  0.06470000  0.74170000  0.32010000  1.0 0.1101975958
H  H167  1  0.93530000  0.25830000  0.32010000  1.0 0.1101975958
H  H168  1  0.93530000  0.74170000  0.67990000  1.0 0.1101975958
C  C1  1  0.87570000  0.87570000  0.00000000  1.0 0.6463724551
C  C2  1  0.12430000  0.12430000  0.00000000  1.0 0.6463724551
C  C3  1  0.12430000  0.87570000  0.00000000  1.0 0.6463724551
C  C4  1  0.87570000  0.12430000  0.00000000  1.0 0.6463724551
C  C5  1  0.00000000  0.87570000  0.87570000  1.0 0.6463724551
C  C6  1  0.00000000  0.12430000  0.12430000  1.0 0.6463724551
C  C7  1  0.00000000  0.12430000  0.87570000  1.0 0.6463724551
C  C8  1  0.00000000  0.87570000  0.12430000  1.0 0.6463724551
C  C9  1  0.87570000  0.00000000  0.87570000  1.0 0.6463724551
C  C10  1  0.12430000  0.00000000  0.12430000  1.0 0.6463724551
C  C11  1  0.87570000  0.00000000  0.12430000  1.0 0.6463724551
C  C12  1  0.12430000  0.00000000  0.87570000  1.0 0.6463724551
C  C13  1  0.83400000  0.83400000  0.00000000  1.0 -0.0413898835
C  C14  1  0.16600000  0.16600000  0.00000000  1.0 -0.0413898835
C  C15  1  0.16600000  0.83400000  0.00000000  1.0 -0.0413898835
C  C16  1  0.83400000  0.16600000  0.00000000  1.0 -0.0413898835
C  C17  1  0.00000000  0.83400000  0.83400000  1.0 -0.0413898835
C  C18  1  0.00000000  0.16600000  0.16600000  1.0 -0.0413898835
C  C19  1  0.00000000  0.16600000  0.83400000  1.0 -0.0413898835
C  C20  1  0.00000000  0.83400000  0.16600000  1.0 -0.0413898835
C  C21  1  0.83400000  0.00000000  0.83400000  1.0 -0.0413898835
C  C22  1  0.16600000  0.00000000  0.16600000  1.0 -0.0413898835
C  C23  1  0.83400000  0.00000000  0.16600000  1.0 -0.0413898835
C  C24  1  0.16600000  0.00000000  0.83400000  1.0 -0.0413898835
C  C25  1  0.84670000  0.78140000  0.00000000  1.0 -0.0877055704
C  C26  1  0.15330000  0.21860000  0.00000000  1.0 -0.0877055704
C  C27  1  0.15330000  0.78140000  0.00000000  1.0 -0.0877055704
C  C28  1  0.84670000  0.21860000  0.00000000  1.0 -0.0877055704
C  C29  1  0.00000000  0.84670000  0.78140000  1.0 -0.0877055704
C  C30  1  0.00000000  0.15330000  0.21860000  1.0 -0.0877055704
C  C31  1  0.00000000  0.15330000  0.78140000  1.0 -0.0877055704
C  C32  1  0.00000000  0.84670000  0.21860000  1.0 -0.0877055704
C  C33  1  0.78140000  0.00000000  0.84670000  1.0 -0.0877055704
C  C34  1  0.21860000  0.00000000  0.15330000  1.0 -0.0877055704
C  C35  1  0.78140000  0.00000000  0.15330000  1.0 -0.0877055704
C  C36  1  0.21860000  0.00000000  0.84670000  1.0 -0.0877055704
C  C37  1  0.78140000  0.84670000  0.00000000  1.0 -0.0877055704
C  C38  1  0.21860000  0.15330000  0.00000000  1.0 -0.0877055704
C  C39  1  0.78140000  0.15330000  0.00000000  1.0 -0.0877055704
C  C40  1  0.21860000  0.84670000  0.00000000  1.0 -0.0877055704
C  C41  1  0.84670000  0.00000000  0.21860000  1.0 -0.0877055704
C  C42  1  0.15330000  0.00000000  0.78140000  1.0 -0.0877055704
C  C43  1  0.15330000  0.00000000  0.21860000  1.0 -0.0877055704
C  C44  1  0.84670000  0.00000000  0.78140000  1.0 -0.0877055704
C  C45  1  0.00000000  0.78140000  0.15330000  1.0 -0.0877055704
C  C46  1  0.00000000  0.21860000  0.84670000  1.0 -0.0877055704
C  C47  1  0.00000000  0.78140000  0.84670000  1.0 -0.0877055704
C  C48  1  0.00000000  0.21860000  0.15330000  1.0 -0.0877055704
C  C49  1  0.75570000  0.75570000  0.00000000  1.0 0.030318577
C  C50  1  0.24430000  0.24430000  0.00000000  1.0 0.030318577
C  C51  1  0.24430000  0.75570000  0.00000000  1.0 0.030318577
C  C52  1  0.75570000  0.24430000  0.00000000  1.0 0.030318577
C  C53  1  0.00000000  0.75570000  0.75570000  1.0 0.030318577
C  C54  1  0.00000000  0.24430000  0.24430000  1.0 0.030318577
C  C55  1  0.00000000  0.24430000  0.75570000  1.0 0.030318577
C  C56  1  0.00000000  0.75570000  0.24430000  1.0 0.030318577
C  C57  1  0.75570000  0.00000000  0.75570000  1.0 0.030318577
C  C58  1  0.24430000  0.00000000  0.24430000  1.0 0.030318577
C  C59  1  0.75570000  0.00000000  0.24430000  1.0 0.030318577
C  C60  1  0.24430000  0.00000000  0.75570000  1.0 0.030318577
C  C61  1  0.80700000  0.74260000  0.00000000  1.0 -0.1637591667
C  C62  1  0.19300000  0.25740000  0.00000000  1.0 -0.1637591667
C  C63  1  0.19300000  0.74260000  0.00000000  1.0 -0.1637591667
C  C64  1  0.80700000  0.25740000  0.00000000  1.0 -0.1637591667
C  C65  1  0.00000000  0.80700000  0.74260000  1.0 -0.1637591667
C  C66  1  0.00000000  0.19300000  0.25740000  1.0 -0.1637591667
C  C67  1  0.00000000  0.19300000  0.74260000  1.0 -0.1637591667
C  C68  1  0.00000000  0.80700000  0.25740000  1.0 -0.1637591667
C  C69  1  0.74260000  0.00000000  0.80700000  1.0 -0.1637591667
C  C70  1  0.25740000  0.00000000  0.19300000  1.0 -0.1637591667
C  C71  1  0.74260000  0.00000000  0.19300000  1.0 -0.1637591667
C  C72  1  0.25740000  0.00000000  0.80700000  1.0 -0.1637591667
C  C73  1  0.74260000  0.80700000  0.00000000  1.0 -0.1637591667
C  C74  1  0.25740000  0.19300000  0.00000000  1.0 -0.1637591667
C  C75  1  0.74260000  0.19300000  0.00000000  1.0 -0.1637591667
C  C76  1  0.25740000  0.80700000  0.00000000  1.0 -0.1637591667
C  C77  1  0.80700000  0.00000000  0.25740000  1.0 -0.1637591667
C  C78  1  0.19300000  0.00000000  0.74260000  1.0 -0.1637591667
C  C79  1  0.19300000  0.00000000  0.25740000  1.0 -0.1637591667
C  C80  1  0.80700000  0.00000000  0.74260000  1.0 -0.1637591667
C  C81  1  0.00000000  0.74260000  0.19300000  1.0 -0.1637591667
C  C82  1  0.00000000  0.25740000  0.80700000  1.0 -0.1637591667
C  C83  1  0.00000000  0.74260000  0.80700000  1.0 -0.1637591667
C  C84  1  0.00000000  0.25740000  0.19300000  1.0 -0.1637591667
C  C85  1  0.71730000  0.71730000  0.00000000  1.0 0.0451255953
C  C86  1  0.28270000  0.28270000  0.00000000  1.0 0.0451255953
C  C87  1  0.28270000  0.71730000  0.00000000  1.0 0.0451255953
C  C88  1  0.71730000  0.28270000  0.00000000  1.0 0.044798675
C  C89  1  0.00000000  0.71730000  0.71730000  1.0 0.0451255953
C  C90  1  0.00000000  0.28270000  0.28270000  1.0 0.0451255953
C  C91  1  0.00000000  0.28270000  0.71730000  1.0 0.0451255953
C  C92  1  0.00000000  0.71730000  0.28270000  1.0 0.0451255953
C  C93  1  0.71730000  0.00000000  0.71730000  1.0 0.044798675
C  C94  1  0.28270000  0.00000000  0.28270000  1.0 0.044798675
C  C95  1  0.71730000  0.00000000  0.28270000  1.0 0.044798675
C  C96  1  0.28270000  0.00000000  0.71730000  1.0 0.0451255953
C  C97  1  0.59510000  0.59510000  0.00000000  1.0 -0.0877055704
C  C98  1  0.40490000  0.40490000  0.00000000  1.0 -0.0877055704
C  C99  1  0.40490000  0.59510000  0.00000000  1.0 -0.0877055704
C  C100  1  0.59510000  0.40490000  0.00000000  1.0 -0.0877055704
C  C101  1  0.00000000  0.59510000  0.59510000  1.0 -0.0877055704
C  C102  1  0.00000000  0.40490000  0.40490000  1.0 -0.0877055704
C  C103  1  0.00000000  0.40490000  0.59510000  1.0 -0.0877055704
C  C104  1  0.00000000  0.59510000  0.40490000  1.0 -0.0877055704
C  C105  1  0.59510000  0.00000000  0.59510000  1.0 -0.0877055704
C  C106  1  0.40490000  0.00000000  0.40490000  1.0 -0.0877055704
C  C107  1  0.59510000  0.00000000  0.40490000  1.0 -0.0877055704
C  C108  1  0.40490000  0.00000000  0.59510000  1.0 -0.0877055704
C  C109  1  0.61000000  0.54330000  0.00000000  1.0 0.1807919159
C  C110  1  0.39000000  0.45670000  0.00000000  1.0 0.1807919159
C  C111  1  0.39000000  0.54330000  0.00000000  1.0 0.1807919159
C  C112  1  0.61000000  0.45670000  0.00000000  1.0 0.1807919159
C  C113  1  0.00000000  0.61000000  0.54330000  1.0 0.1807919159
C  C114  1  0.00000000  0.39000000  0.45670000  1.0 0.1807919159
C  C115  1  0.00000000  0.39000000  0.54330000  1.0 0.1807919159
C  C116  1  0.00000000  0.61000000  0.45670000  1.0 0.1807919159
C  C117  1  0.54330000  0.00000000  0.61000000  1.0 0.1807919159
C  C118  1  0.45670000  0.00000000  0.39000000  1.0 0.1807919159
C  C119  1  0.54330000  0.00000000  0.39000000  1.0 0.1807919159
C  C120  1  0.45670000  0.00000000  0.61000000  1.0 0.1807919159
C  C121  1  0.54330000  0.61000000  0.00000000  1.0 0.1807919159
C  C122  1  0.45670000  0.39000000  0.00000000  1.0 0.1807919159
C  C123  1  0.54330000  0.39000000  0.00000000  1.0 0.1807919159
C  C124  1  0.45670000  0.61000000  0.00000000  1.0 0.1807919159
C  C125  1  0.61000000  0.00000000  0.45670000  1.0 0.1807919159
C  C126  1  0.39000000  0.00000000  0.54330000  1.0 0.1807919159
C  C127  1  0.39000000  0.00000000  0.45670000  1.0 0.1807919159
C  C128  1  0.61000000  0.00000000  0.54330000  1.0 0.1807919159
C  C129  1  0.00000000  0.54330000  0.39000000  1.0 0.1807919159
C  C130  1  0.00000000  0.45670000  0.61000000  1.0 0.1807919159
C  C131  1  0.00000000  0.54330000  0.61000000  1.0 0.1807919159
C  C132  1  0.00000000  0.45670000  0.39000000  1.0 0.1807919159
C  C133  1  0.63600000  0.63600000  0.00000000  1.0 0.0923072351
C  C134  1  0.36400000  0.36400000  0.00000000  1.0 0.0923072351
C  C135  1  0.36400000  0.63600000  0.00000000  1.0 0.0923072351
C  C136  1  0.63600000  0.36400000  0.00000000  1.0 0.0923072351
C  C137  1  0.00000000  0.63600000  0.63600000  1.0 0.0923072351
C  C138  1  0.00000000  0.36400000  0.36400000  1.0 0.0923072351
C  C139  1  0.00000000  0.36400000  0.63600000  1.0 0.0923072351
C  C140  1  0.00000000  0.63600000  0.36400000  1.0 0.0923072351
C  C141  1  0.63600000  0.00000000  0.63600000  1.0 0.0923072351
C  C142  1  0.36400000  0.00000000  0.36400000  1.0 0.0923072351
C  C143  1  0.63600000  0.00000000  0.36400000  1.0 0.0923072351
C  C144  1  0.36400000  0.00000000  0.63600000  1.0 0.0923072351
C  C145  1  0.66400000  0.52690000  0.00000000  1.0 -0.2219429485
C  C146  1  0.33600000  0.47310000  0.00000000  1.0 -0.2219429485
C  C147  1  0.33600000  0.52690000  0.00000000  1.0 -0.2219429485
C  C148  1  0.66400000  0.47310000  0.00000000  1.0 -0.2219429485
C  C149  1  0.00000000  0.66400000  0.52690000  1.0 -0.2219429485
C  C150  1  0.00000000  0.33600000  0.47310000  1.0 -0.2219429485
C  C151  1  0.00000000  0.33600000  0.52690000  1.0 -0.2219429485
C  C152  1  0.00000000  0.66400000  0.47310000  1.0 -0.2219429485
C  C153  1  0.52690000  0.00000000  0.66400000  1.0 -0.2219429485
C  C154  1  0.47310000  0.00000000  0.33600000  1.0 -0.2219429485
C  C155  1  0.52690000  0.00000000  0.33600000  1.0 -0.2219429485
C  C156  1  0.47310000  0.00000000  0.66400000  1.0 -0.2219429485
C  C157  1  0.52690000  0.66400000  0.00000000  1.0 -0.2219429485
C  C158  1  0.47310000  0.33600000  0.00000000  1.0 -0.2219429485
C  C159  1  0.52690000  0.33600000  0.00000000  1.0 -0.2219429485
C  C160  1  0.47310000  0.66400000  0.00000000  1.0 -0.2219429485
C  C161  1  0.66400000  0.00000000  0.47310000  1.0 -0.2219429485
C  C162  1  0.33600000  0.00000000  0.52690000  1.0 -0.2219429485
C  C163  1  0.33600000  0.00000000  0.47310000  1.0 -0.2219429485
C  C164  1  0.66400000  0.00000000  0.52690000  1.0 -0.2219429485
C  C165  1  0.00000000  0.52690000  0.33600000  1.0 -0.2219429485
C  C166  1  0.00000000  0.47310000  0.66400000  1.0 -0.2219429485
C  C167  1  0.00000000  0.52690000  0.66400000  1.0 -0.2219429485
C  C168  1  0.00000000  0.47310000  0.33600000  1.0 -0.2219429485
C  C169  1  0.63810000  0.67520000  0.95800000  1.0 -0.1191426854
C  C170  1  0.36190000  0.32480000  0.95800000  1.0 -0.1191426854
C  C171  1  0.36190000  0.67520000  0.04200000  1.0 -0.1191426854
C  C172  1  0.63810000  0.32480000  0.04200000  1.0 -0.1191426854
C  C173  1  0.95800000  0.63810000  0.67520000  1.0 -0.1191426854
C  C174  1  0.95800000  0.36190000  0.32480000  1.0 -0.1191426854
C  C175  1  0.04200000  0.36190000  0.67520000  1.0 -0.1191426854
C  C176  1  0.04200000  0.63810000  0.32480000  1.0 -0.1191426854
C  C177  1  0.67520000  0.95800000  0.63810000  1.0 -0.1191426854
C  C178  1  0.32480000  0.95800000  0.36190000  1.0 -0.1191426854
C  C179  1  0.67520000  0.04200000  0.36190000  1.0 -0.1191426854
C  C180  1  0.32480000  0.04200000  0.63810000  1.0 -0.1191426854
C  C181  1  0.67520000  0.63810000  0.04200000  1.0 -0.1191426854
C  C182  1  0.32480000  0.36190000  0.04200000  1.0 -0.1191426854
C  C183  1  0.67520000  0.36190000  0.95800000  1.0 -0.1191426854
C  C184  1  0.32480000  0.63810000  0.95800000  1.0 -0.1191426854
C  C185  1  0.63810000  0.95800000  0.32480000  1.0 -0.1191426854
C  C186  1  0.36190000  0.95800000  0.67520000  1.0 -0.1191426854
C  C187  1  0.36190000  0.04200000  0.32480000  1.0 -0.1191426854
C  C188  1  0.63810000  0.04200000  0.67520000  1.0 -0.1191426854
C  C189  1  0.95800000  0.67520000  0.36190000  1.0 -0.1191426854
C  C190  1  0.95800000  0.32480000  0.63810000  1.0 -0.1191426854
C  C191  1  0.04200000  0.67520000  0.63810000  1.0 -0.1191426854
C  C192  1  0.04200000  0.32480000  0.36190000  1.0 -0.1191426854
C  C193  1  0.36190000  0.32480000  0.04200000  1.0 -0.1191426854
C  C194  1  0.63810000  0.67520000  0.04200000  1.0 -0.1191426854
C  C195  1  0.63810000  0.32480000  0.95800000  1.0 -0.1191426854
C  C196  1  0.36190000  0.67520000  0.95800000  1.0 -0.1191426854
C  C197  1  0.04200000  0.36190000  0.32480000  1.0 -0.1191426854
C  C198  1  0.04200000  0.63810000  0.67520000  1.0 -0.1191426854
C  C199  1  0.95800000  0.63810000  0.32480000  1.0 -0.1191426854
C  C200  1  0.95800000  0.36190000  0.67520000  1.0 -0.1191426854
C  C201  1  0.32480000  0.04200000  0.36190000  1.0 -0.1191426854
C  C202  1  0.67520000  0.04200000  0.63810000  1.0 -0.1191426854
C  C203  1  0.32480000  0.95800000  0.63810000  1.0 -0.1191426854
C  C204  1  0.67520000  0.95800000  0.36190000  1.0 -0.1191426854
C  C205  1  0.32480000  0.36190000  0.95800000  1.0 -0.1191426854
C  C206  1  0.67520000  0.63810000  0.95800000  1.0 -0.1191426854
C  C207  1  0.32480000  0.63810000  0.04200000  1.0 -0.1191426854
C  C208  1  0.67520000  0.36190000  0.04200000  1.0 -0.1191426854
C  C209  1  0.36190000  0.04200000  0.67520000  1.0 -0.1191426854
C  C210  1  0.63810000  0.04200000  0.32480000  1.0 -0.1191426854
C  C211  1  0.63810000  0.95800000  0.67520000  1.0 -0.1191426854
C  C212  1  0.36190000  0.95800000  0.32480000  1.0 -0.1191426854
C  C213  1  0.04200000  0.32480000  0.63810000  1.0 -0.1191426854
C  C214  1  0.04200000  0.67520000  0.36190000  1.0 -0.1191426854
C  C215  1  0.95800000  0.32480000  0.36190000  1.0 -0.1191426854
C  C216  1  0.95800000  0.67520000  0.63810000  1.0 -0.1191426854
C  C217  1  0.67920000  0.71470000  0.96180000  1.0 -0.0877055704
C  C218  1  0.32080000  0.28530000  0.96180000  1.0 -0.0877055704
C  C219  1  0.32080000  0.71470000  0.03820000  1.0 -0.0877055704
C  C220  1  0.67920000  0.28530000  0.03820000  1.0 -0.0877055704
C  C221  1  0.96180000  0.67920000  0.71470000  1.0 -0.0877055704
C  C222  1  0.96180000  0.32080000  0.28530000  1.0 -0.0877055704
C  C223  1  0.03820000  0.32080000  0.71470000  1.0 -0.0877055704
C  C224  1  0.03820000  0.67920000  0.28530000  1.0 -0.0877055704
C  C225  1  0.71470000  0.96180000  0.67920000  1.0 -0.0877055704
C  C226  1  0.28530000  0.96180000  0.32080000  1.0 -0.0877055704
C  C227  1  0.71470000  0.03820000  0.32080000  1.0 -0.0877055704
C  C228  1  0.28530000  0.03820000  0.67920000  1.0 -0.0877055704
C  C229  1  0.71470000  0.67920000  0.03820000  1.0 -0.0877055704
C  C230  1  0.28530000  0.32080000  0.03820000  1.0 -0.0877055704
C  C231  1  0.71470000  0.32080000  0.96180000  1.0 -0.0877055704
C  C232  1  0.28530000  0.67920000  0.96180000  1.0 -0.0877055704
C  C233  1  0.67920000  0.96180000  0.28530000  1.0 -0.0877055704
C  C234  1  0.32080000  0.96180000  0.71470000  1.0 -0.0877055704
C  C235  1  0.32080000  0.03820000  0.28530000  1.0 -0.0877055704
C  C236  1  0.67920000  0.03820000  0.71470000  1.0 -0.0877055704
C  C237  1  0.96180000  0.71470000  0.32080000  1.0 -0.0877055704
C  C238  1  0.96180000  0.28530000  0.67920000  1.0 -0.0877055704
C  C239  1  0.03820000  0.71470000  0.67920000  1.0 -0.0877055704
C  C240  1  0.03820000  0.28530000  0.32080000  1.0 -0.0877055704
C  C241  1  0.32080000  0.28530000  0.03820000  1.0 -0.0877055704
C  C242  1  0.67920000  0.71470000  0.03820000  1.0 -0.0877055704
C  C243  1  0.67920000  0.28530000  0.96180000  1.0 -0.0877055704
C  C244  1  0.32080000  0.71470000  0.96180000  1.0 -0.0877055704
C  C245  1  0.03820000  0.32080000  0.28530000  1.0 -0.0877055704
C  C246  1  0.03820000  0.67920000  0.71470000  1.0 -0.0877055704
C  C247  1  0.96180000  0.67920000  0.28530000  1.0 -0.0877055704
C  C248  1  0.96180000  0.32080000  0.71470000  1.0 -0.0877055704
C  C249  1  0.28530000  0.03820000  0.32080000  1.0 -0.0877055704
C  C250  1  0.71470000  0.03820000  0.67920000  1.0 -0.0877055704
C  C251  1  0.28530000  0.96180000  0.67920000  1.0 -0.0877055704
C  C252  1  0.71470000  0.96180000  0.32080000  1.0 -0.0877055704
C  C253  1  0.28530000  0.32080000  0.96180000  1.0 -0.0877055704
C  C254  1  0.71470000  0.67920000  0.96180000  1.0 -0.0877055704
C  C255  1  0.28530000  0.67920000  0.03820000  1.0 -0.0877055704
C  C256  1  0.71470000  0.32080000  0.03820000  1.0 -0.0877055704
C  C257  1  0.32080000  0.03820000  0.71470000  1.0 -0.0877055704
C  C258  1  0.67920000  0.03820000  0.28530000  1.0 -0.0877055704
C  C259  1  0.67920000  0.96180000  0.71470000  1.0 -0.0877055704
C  C260  1  0.32080000  0.96180000  0.28530000  1.0 -0.0877055704
C  C261  1  0.03820000  0.28530000  0.67920000  1.0 -0.0877055704
C  C262  1  0.03820000  0.71470000  0.32080000  1.0 -0.0877055704
C  C263  1  0.96180000  0.28530000  0.32080000  1.0 -0.0877055704
C  C264  1  0.96180000  0.71470000  0.67920000  1.0 -0.0877055704
N  N1  1  0.57780000  0.50000000  0.00000000  1.0 -0.3661603254
N  N2  1  0.42220000  0.50000000  0.00000000  1.0 -0.3661603254
N  N3  1  0.00000000  0.57780000  0.50000000  1.0 -0.3661603254
N  N4  1  0.00000000  0.42220000  0.50000000  1.0 -0.3661603254
N  N5  1  0.50000000  0.00000000  0.57780000  1.0 -0.3661603254
N  N6  1  0.50000000  0.00000000  0.42220000  1.0 -0.3661603254
N  N7  1  0.50000000  0.57780000  0.00000000  1.0 -0.3661603254
N  N8  1  0.50000000  0.42220000  0.00000000  1.0 -0.3661603254
N  N9  1  0.57780000  0.00000000  0.50000000  1.0 -0.3661603254
N  N10  1  0.42220000  0.00000000  0.50000000  1.0 -0.3661603254
N  N11  1  0.00000000  0.50000000  0.42220000  1.0 -0.3661603254
N  N12  1  0.00000000  0.50000000  0.57780000  1.0 -0.3661603254
O  O1  1  0.95157000  0.95157000  0.95157000  1.0 -1.0918407114
O  O2  1  0.04843000  0.04843000  0.95157000  1.0 -1.0918407114
O  O3  1  0.04843000  0.95157000  0.04843000  1.0 -1.0918407114
O  O4  1  0.95157000  0.04843000  0.04843000  1.0 -1.0918407114
O  O5  1  0.95157000  0.95157000  0.04843000  1.0 -1.0918407114
O  O6  1  0.04843000  0.04843000  0.04843000  1.0 -1.0918407114
O  O7  1  0.95157000  0.04843000  0.95157000  1.0 -1.0918407114
O  O8  1  0.04843000  0.95157000  0.95157000  1.0 -1.0918407114
O  O9  1  0.92379000  0.85908000  0.00000000  1.0 -0.5975863733
O  O10  1  0.07621000  0.14092000  0.00000000  1.0 -0.5975863733
O  O11  1  0.07621000  0.85908000  0.00000000  1.0 -0.5975863733
O  O12  1  0.92379000  0.14092000  0.00000000  1.0 -0.5975863733
O  O13  1  0.00000000  0.92379000  0.85908000  1.0 -0.5975863733
O  O14  1  0.00000000  0.07621000  0.14092000  1.0 -0.5975863733
O  O15  1  0.00000000  0.07621000  0.85908000  1.0 -0.5975863733
O  O16  1  0.00000000  0.92379000  0.14092000  1.0 -0.5975863733
O  O17  1  0.85908000  0.00000000  0.92379000  1.0 -0.5975863733
O  O18  1  0.14092000  0.00000000  0.07621000  1.0 -0.5975863733
O  O19  1  0.85908000  0.00000000  0.07621000  1.0 -0.5975863733
O  O20  1  0.14092000  0.00000000  0.92379000  1.0 -0.5975863733
O  O21  1  0.85908000  0.92379000  0.00000000  1.0 -0.5975863733
O  O22  1  0.14092000  0.07621000  0.00000000  1.0 -0.5975863733
O  O23  1  0.85908000  0.07621000  0.00000000  1.0 -0.5975863733
O  O24  1  0.14092000  0.92379000  0.00000000  1.0 -0.5975863733
O  O25  1  0.92379000  0.00000000  0.14092000  1.0 -0.5975863733
O  O26  1  0.07621000  0.00000000  0.85908000  1.0 -0.5975863733
O  O27  1  0.07621000  0.00000000  0.14092000  1.0 -0.5975863733
O  O28  1  0.92379000  0.00000000  0.85908000  1.0 -0.5975863733
O  O29  1  0.00000000  0.85908000  0.07621000  1.0 -0.5975863733
O  O30  1  0.00000000  0.14092000  0.92379000  1.0 -0.5975863733
O  O31  1  0.00000000  0.85908000  0.92379000  1.0 -0.5975863733
O  O32  1  0.00000000  0.14092000  0.07621000  1.0 -0.5975863733
