# DDEC6 charges by PACMAN v1.1 (https://github.com/mtap-research/PACMAN-charge/)
data_JOZWOM_ASR_pacman
_symmetry_space_group_name_H-M   'P 1'
_cell_length_a   25.40840000
_cell_length_b   25.40840000
_cell_length_c   25.40840000
_cell_angle_alpha   90.00000000
_cell_angle_beta   90.00000000
_cell_angle_gamma   90.00000000
_symmetry_Int_Tables_number   1
_chemical_formula_structural   Zr6Zn3H168C264(N3O8)4
_chemical_formula_sum   'Zr6 Zn3 H168 C264 N12 O32'
_cell_volume   16403.32740926
_cell_formula_units_Z   1
loop_
 _symmetry_equiv_pos_site_id
 _symmetry_equiv_pos_as_xyz
  1  'x, y, z'
loop_
 _atom_site_type_symbol
 _atom_site_label
 _atom_site_symmetry_multiplicity
 _atom_site_fract_x
 _atom_site_fract_y
 _atom_site_fract_z
 _atom_site_occupancy
 _atom_site_charge
Zr  Zr1  1  0.00000000  0.90239000  0.00000000  1.0 2.4112257921
Zr  Zr2  1  0.00000000  0.09761000  0.00000000  1.0 2.4112257921
Zr  Zr3  1  0.00000000  0.00000000  0.90239000  1.0 2.4112257921
Zr  Zr4  1  0.00000000  0.00000000  0.09761000  1.0 2.4112257921
Zr  Zr5  1  0.90239000  0.00000000  0.00000000  1.0 2.4112257921
Zr  Zr6  1  0.09761000  0.00000000  0.00000000  1.0 2.4112257921
Zn  Zn1  1  0.50000000  0.50000000  0.00000000  1.0 0.649556355
Zn  Zn2  1  0.00000000  0.50000000  0.50000000  1.0 0.649556355
Zn  Zn3  1  0.50000000  0.00000000  0.50000000  1.0 0.649556355
H  H1  1  0.88190000  0.77120000  0.00000000  1.0 0.1286747114
H  H2  1  0.11810000  0.22880000  0.00000000  1.0 0.1351340575
H  H3  1  0.11810000  0.77120000  0.00000000  1.0 0.1351340575
H  H4  1  0.88190000  0.22880000  0.00000000  1.0 0.1351340575
H  H5  1  0.00000000  0.88190000  0.77120000  1.0 0.1351340575
H  H6  1  0.00000000  0.11810000  0.22880000  1.0 0.1351340575
H  H7  1  0.00000000  0.11810000  0.77120000  1.0 0.1351340575
H  H8  1  0.00000000  0.88190000  0.22880000  1.0 0.1351340575
H  H9  1  0.77120000  0.00000000  0.88190000  1.0 0.1351340575
H  H10  1  0.22880000  0.00000000  0.11810000  1.0 0.1351340575
H  H11  1  0.77120000  0.00000000  0.11810000  1.0 0.1351340575
H  H12  1  0.22880000  0.00000000  0.88190000  1.0 0.1351340575
H  H13  1  0.77120000  0.88190000  0.00000000  1.0 0.1286747114
H  H14  1  0.22880000  0.11810000  0.00000000  1.0 0.1351340575
H  H15  1  0.77120000  0.11810000  0.00000000  1.0 0.1351340575
H  H16  1  0.22880000  0.88190000  0.00000000  1.0 0.1351340575
H  H17  1  0.88190000  0.00000000  0.22880000  1.0 0.1351340575
H  H18  1  0.11810000  0.00000000  0.77120000  1.0 0.1351340575
H  H19  1  0.11810000  0.00000000  0.22880000  1.0 0.1351340575
H  H20  1  0.88190000  0.00000000  0.77120000  1.0 0.1351340575
H  H21  1  0.00000000  0.77120000  0.11810000  1.0 0.1351340575
H  H22  1  0.00000000  0.22880000  0.88190000  1.0 0.1351340575
H  H23  1  0.00000000  0.77120000  0.88190000  1.0 0.1351340575
H  H24  1  0.00000000  0.22880000  0.11810000  1.0 0.1351340575
H  H25  1  0.81670000  0.70890000  0.00000000  1.0 0.1086730258
H  H26  1  0.18330000  0.29110000  0.00000000  1.0 0.1086730258
H  H27  1  0.18330000  0.70890000  0.00000000  1.0 0.1086730258
H  H28  1  0.81670000  0.29110000  0.00000000  1.0 0.1086730258
H  H29  1  0.00000000  0.81670000  0.70890000  1.0 0.1086730258
H  H30  1  0.00000000  0.18330000  0.29110000  1.0 0.1086730258
H  H31  1  0.00000000  0.18330000  0.70890000  1.0 0.1086730258
H  H32  1  0.00000000  0.81670000  0.29110000  1.0 0.1086730258
H  H33  1  0.70890000  0.00000000  0.81670000  1.0 0.1086730258
H  H34  1  0.29110000  0.00000000  0.18330000  1.0 0.1086730258
H  H35  1  0.70890000  0.00000000  0.18330000  1.0 0.1086730258
H  H36  1  0.29110000  0.00000000  0.81670000  1.0 0.1086730258
H  H37  1  0.70890000  0.81670000  0.00000000  1.0 0.1086730258
H  H38  1  0.29110000  0.18330000  0.00000000  1.0 0.1086730258
H  H39  1  0.70890000  0.18330000  0.00000000  1.0 0.1086730258
H  H40  1  0.29110000  0.81670000  0.00000000  1.0 0.1086730258
H  H41  1  0.81670000  0.00000000  0.29110000  1.0 0.1086730258
H  H42  1  0.18330000  0.00000000  0.70890000  1.0 0.1086730258
H  H43  1  0.18330000  0.00000000  0.29110000  1.0 0.1086730258
H  H44  1  0.81670000  0.00000000  0.70890000  1.0 0.1086730258
H  H45  1  0.00000000  0.70890000  0.18330000  1.0 0.1086730258
H  H46  1  0.00000000  0.29110000  0.81670000  1.0 0.1086730258
H  H47  1  0.00000000  0.70890000  0.81670000  1.0 0.1086730258
H  H48  1  0.00000000  0.29110000  0.18330000  1.0 0.1086730258
H  H49  1  0.69580000  0.54810000  0.00000000  1.0 0.1286747114
H  H50  1  0.30420000  0.45190000  0.00000000  1.0 0.1286747114
H  H51  1  0.30420000  0.54810000  0.00000000  1.0 0.1286747114
H  H52  1  0.69580000  0.45190000  0.00000000  1.0 0.1286747114
H  H53  1  0.00000000  0.69580000  0.54810000  1.0 0.1286747114
H  H54  1  0.00000000  0.30420000  0.45190000  1.0 0.1286747114
H  H55  1  0.00000000  0.30420000  0.54810000  1.0 0.1286747114
H  H56  1  0.00000000  0.69580000  0.45190000  1.0 0.1286747114
H  H57  1  0.54810000  0.00000000  0.69580000  1.0 0.1286747114
H  H58  1  0.45190000  0.00000000  0.30420000  1.0 0.1286747114
H  H59  1  0.54810000  0.00000000  0.30420000  1.0 0.1286747114
H  H60  1  0.45190000  0.00000000  0.69580000  1.0 0.1286747114
H  H61  1  0.54810000  0.69580000  0.00000000  1.0 0.1286747114
H  H62  1  0.45190000  0.30420000  0.00000000  1.0 0.1286747114
H  H63  1  0.54810000  0.30420000  0.00000000  1.0 0.1286747114
H  H64  1  0.45190000  0.69580000  0.00000000  1.0 0.1286747114
H  H65  1  0.69580000  0.00000000  0.45190000  1.0 0.1286747114
H  H66  1  0.30420000  0.00000000  0.54810000  1.0 0.1286747114
H  H67  1  0.30420000  0.00000000  0.45190000  1.0 0.1286747114
H  H68  1  0.69580000  0.00000000  0.54810000  1.0 0.1286747114
H  H69  1  0.00000000  0.54810000  0.30420000  1.0 0.1286747114
H  H70  1  0.00000000  0.45190000  0.69580000  1.0 0.1286747114
H  H71  1  0.00000000  0.54810000  0.69580000  1.0 0.1286747114
H  H72  1  0.00000000  0.45190000  0.30420000  1.0 0.1286747114
H  H73  1  0.61480000  0.67490000  0.93100000  1.0 0.1086730258
H  H74  1  0.38520000  0.32510000  0.93100000  1.0 0.1086730258
H  H75  1  0.38520000  0.67490000  0.06900000  1.0 0.1086730258
H  H76  1  0.61480000  0.32510000  0.06900000  1.0 0.1086730258
H  H77  1  0.93100000  0.61480000  0.67490000  1.0 0.1086730258
H  H78  1  0.93100000  0.38520000  0.32510000  1.0 0.1086730258
H  H79  1  0.06900000  0.38520000  0.67490000  1.0 0.1086730258
H  H80  1  0.06900000  0.61480000  0.32510000  1.0 0.1086730258
H  H81  1  0.67490000  0.93100000  0.61480000  1.0 0.1086730258
H  H82  1  0.32510000  0.93100000  0.38520000  1.0 0.1086730258
H  H83  1  0.67490000  0.06900000  0.38520000  1.0 0.1086730258
H  H84  1  0.32510000  0.06900000  0.61480000  1.0 0.1086730258
H  H85  1  0.67490000  0.61480000  0.06900000  1.0 0.1086730258
H  H86  1  0.32510000  0.38520000  0.06900000  1.0 0.1086730258
H  H87  1  0.67490000  0.38520000  0.93100000  1.0 0.1086730258
H  H88  1  0.32510000  0.61480000  0.93100000  1.0 0.1086730258
H  H89  1  0.61480000  0.93100000  0.32510000  1.0 0.1086730258
H  H90  1  0.38520000  0.93100000  0.67490000  1.0 0.1086730258
H  H91  1  0.38520000  0.06900000  0.32510000  1.0 0.1086730258
H  H92  1  0.61480000  0.06900000  0.67490000  1.0 0.1086730258
H  H93  1  0.93100000  0.67490000  0.38520000  1.0 0.1086730258
H  H94  1  0.93100000  0.32510000  0.61480000  1.0 0.1086730258
H  H95  1  0.06900000  0.67490000  0.61480000  1.0 0.1086730258
H  H96  1  0.06900000  0.32510000  0.38520000  1.0 0.1086730258
H  H97  1  0.38520000  0.32510000  0.06900000  1.0 0.1086730258
H  H98  1  0.61480000  0.67490000  0.06900000  1.0 0.1086730258
H  H99  1  0.61480000  0.32510000  0.93100000  1.0 0.1086730258
H  H100  1  0.38520000  0.67490000  0.93100000  1.0 0.1086730258
H  H101  1  0.06900000  0.38520000  0.32510000  1.0 0.1086730258
H  H102  1  0.06900000  0.61480000  0.67490000  1.0 0.1086730258
H  H103  1  0.93100000  0.61480000  0.32510000  1.0 0.1086730258
H  H104  1  0.93100000  0.38520000  0.67490000  1.0 0.1086730258
H  H105  1  0.32510000  0.06900000  0.38520000  1.0 0.1086730258
H  H106  1  0.67490000  0.06900000  0.61480000  1.0 0.1086730258
H  H107  1  0.32510000  0.93100000  0.61480000  1.0 0.1086730258
H  H108  1  0.67490000  0.93100000  0.38520000  1.0 0.1086730258
H  H109  1  0.32510000  0.38520000  0.93100000  1.0 0.1086730258
H  H110  1  0.67490000  0.61480000  0.93100000  1.0 0.1086730258
H  H111  1  0.32510000  0.61480000  0.06900000  1.0 0.1086730258
H  H112  1  0.67490000  0.38520000  0.06900000  1.0 0.1086730258
H  H113  1  0.38520000  0.06900000  0.67490000  1.0 0.1086730258
H  H114  1  0.61480000  0.06900000  0.32510000  1.0 0.1086730258
H  H115  1  0.61480000  0.93100000  0.67490000  1.0 0.1086730258
H  H116  1  0.38520000  0.93100000  0.32510000  1.0 0.1086730258
H  H117  1  0.06900000  0.32510000  0.61480000  1.0 0.1086730258
H  H118  1  0.06900000  0.67490000  0.38520000  1.0 0.1086730258
H  H119  1  0.93100000  0.32510000  0.38520000  1.0 0.1086730258
H  H120  1  0.93100000  0.67490000  0.61480000  1.0 0.1086730258
H  H121  1  0.67940000  0.74100000  0.93490000  1.0 0.1086730258
H  H122  1  0.32060000  0.25900000  0.93490000  1.0 0.1086730258
H  H123  1  0.32060000  0.74100000  0.06510000  1.0 0.1086730258
H  H124  1  0.67940000  0.25900000  0.06510000  1.0 0.1086730258
H  H125  1  0.93490000  0.67940000  0.74100000  1.0 0.1086730258
H  H126  1  0.93490000  0.32060000  0.25900000  1.0 0.1086730258
H  H127  1  0.06510000  0.32060000  0.74100000  1.0 0.1086730258
H  H128  1  0.06510000  0.67940000  0.25900000  1.0 0.1086730258
H  H129  1  0.74100000  0.93490000  0.67940000  1.0 0.1086730258
H  H130  1  0.25900000  0.93490000  0.32060000  1.0 0.1086730258
H  H131  1  0.74100000  0.06510000  0.32060000  1.0 0.1086730258
H  H132  1  0.25900000  0.06510000  0.67940000  1.0 0.1086730258
H  H133  1  0.74100000  0.67940000  0.06510000  1.0 0.1086730258
H  H134  1  0.25900000  0.32060000  0.06510000  1.0 0.1086730258
H  H135  1  0.74100000  0.32060000  0.93490000  1.0 0.1086730258
H  H136  1  0.25900000  0.67940000  0.93490000  1.0 0.1086730258
H  H137  1  0.67940000  0.93490000  0.25900000  1.0 0.1086730258
H  H138  1  0.32060000  0.93490000  0.74100000  1.0 0.1086730258
H  H139  1  0.32060000  0.06510000  0.25900000  1.0 0.1086730258
H  H140  1  0.67940000  0.06510000  0.74100000  1.0 0.1086730258
H  H141  1  0.93490000  0.74100000  0.32060000  1.0 0.1086730258
H  H142  1  0.93490000  0.25900000  0.67940000  1.0 0.1086730258
H  H143  1  0.06510000  0.74100000  0.67940000  1.0 0.1086730258
H  H144  1  0.06510000  0.25900000  0.32060000  1.0 0.1086730258
H  H145  1  0.32060000  0.25900000  0.06510000  1.0 0.1086730258
H  H146  1  0.67940000  0.74100000  0.06510000  1.0 0.1086730258
H  H147  1  0.67940000  0.25900000  0.93490000  1.0 0.1086730258
H  H148  1  0.32060000  0.74100000  0.93490000  1.0 0.1086730258
H  H149  1  0.06510000  0.32060000  0.25900000  1.0 0.1086730258
H  H150  1  0.06510000  0.67940000  0.74100000  1.0 0.1086730258
H  H151  1  0.93490000  0.67940000  0.25900000  1.0 0.1086730258
H  H152  1  0.93490000  0.32060000  0.74100000  1.0 0.1086730258
H  H153  1  0.25900000  0.06510000  0.32060000  1.0 0.1086730258
H  H154  1  0.74100000  0.06510000  0.67940000  1.0 0.1086730258
H  H155  1  0.25900000  0.93490000  0.67940000  1.0 0.1086730258
H  H156  1  0.74100000  0.93490000  0.32060000  1.0 0.1086730258
H  H157  1  0.25900000  0.32060000  0.93490000  1.0 0.1086730258
H  H158  1  0.74100000  0.67940000  0.93490000  1.0 0.1086730258
H  H159  1  0.25900000  0.67940000  0.06510000  1.0 0.1086730258
H  H160  1  0.74100000  0.32060000  0.06510000  1.0 0.1086730258
H  H161  1  0.32060000  0.06510000  0.74100000  1.0 0.1086730258
H  H162  1  0.67940000  0.06510000  0.25900000  1.0 0.1086730258
H  H163  1  0.67940000  0.93490000  0.74100000  1.0 0.1086730258
H  H164  1  0.32060000  0.93490000  0.25900000  1.0 0.1086730258
H  H165  1  0.06510000  0.25900000  0.67940000  1.0 0.1086730258
H  H166  1  0.06510000  0.74100000  0.32060000  1.0 0.1086730258
H  H167  1  0.93490000  0.25900000  0.32060000  1.0 0.1086730258
H  H168  1  0.93490000  0.74100000  0.67940000  1.0 0.1086730258
C  C1  1  0.87590000  0.87590000  0.00000000  1.0 0.641201264
C  C2  1  0.12410000  0.12410000  0.00000000  1.0 0.641201264
C  C3  1  0.12410000  0.87590000  0.00000000  1.0 0.641201264
C  C4  1  0.87590000  0.12410000  0.00000000  1.0 0.641201264
C  C5  1  0.00000000  0.87590000  0.87590000  1.0 0.641201264
C  C6  1  0.00000000  0.12410000  0.12410000  1.0 0.641201264
C  C7  1  0.00000000  0.12410000  0.87590000  1.0 0.641201264
C  C8  1  0.00000000  0.87590000  0.12410000  1.0 0.641201264
C  C9  1  0.87590000  0.00000000  0.87590000  1.0 0.641201264
C  C10  1  0.12410000  0.00000000  0.12410000  1.0 0.641201264
C  C11  1  0.87590000  0.00000000  0.12410000  1.0 0.641201264
C  C12  1  0.12410000  0.00000000  0.87590000  1.0 0.641201264
C  C13  1  0.83410000  0.83410000  0.00000000  1.0 -0.0343620466
C  C14  1  0.16590000  0.16590000  0.00000000  1.0 -0.0343620466
C  C15  1  0.16590000  0.83410000  0.00000000  1.0 -0.0343620466
C  C16  1  0.83410000  0.16590000  0.00000000  1.0 -0.0343620466
C  C17  1  0.00000000  0.83410000  0.83410000  1.0 -0.0343620466
C  C18  1  0.00000000  0.16590000  0.16590000  1.0 -0.0343620466
C  C19  1  0.00000000  0.16590000  0.83410000  1.0 -0.0343620466
C  C20  1  0.00000000  0.83410000  0.16590000  1.0 -0.0343620466
C  C21  1  0.83410000  0.00000000  0.83410000  1.0 -0.0343620466
C  C22  1  0.16590000  0.00000000  0.16590000  1.0 -0.0343620466
C  C23  1  0.83410000  0.00000000  0.16590000  1.0 -0.0343620466
C  C24  1  0.16590000  0.00000000  0.83410000  1.0 -0.0343620466
C  C25  1  0.84680000  0.78160000  0.00000000  1.0 -0.0880612317
C  C26  1  0.15320000  0.21840000  0.00000000  1.0 -0.0880612317
C  C27  1  0.15320000  0.78160000  0.00000000  1.0 -0.0880612317
C  C28  1  0.84680000  0.21840000  0.00000000  1.0 -0.0880612317
C  C29  1  0.00000000  0.84680000  0.78160000  1.0 -0.0880612317
C  C30  1  0.00000000  0.15320000  0.21840000  1.0 -0.0880612317
C  C31  1  0.00000000  0.15320000  0.78160000  1.0 -0.0880612317
C  C32  1  0.00000000  0.84680000  0.21840000  1.0 -0.0880612317
C  C33  1  0.78160000  0.00000000  0.84680000  1.0 -0.0880612317
C  C34  1  0.21840000  0.00000000  0.15320000  1.0 -0.0880612317
C  C35  1  0.78160000  0.00000000  0.15320000  1.0 -0.0880612317
C  C36  1  0.21840000  0.00000000  0.84680000  1.0 -0.0880612317
C  C37  1  0.78160000  0.84680000  0.00000000  1.0 -0.0880612317
C  C38  1  0.21840000  0.15320000  0.00000000  1.0 -0.0880612317
C  C39  1  0.78160000  0.15320000  0.00000000  1.0 -0.0880612317
C  C40  1  0.21840000  0.84680000  0.00000000  1.0 -0.0880612317
C  C41  1  0.84680000  0.00000000  0.21840000  1.0 -0.0880612317
C  C42  1  0.15320000  0.00000000  0.78160000  1.0 -0.0880612317
C  C43  1  0.15320000  0.00000000  0.21840000  1.0 -0.0880612317
C  C44  1  0.84680000  0.00000000  0.78160000  1.0 -0.0880612317
C  C45  1  0.00000000  0.78160000  0.15320000  1.0 -0.0880612317
C  C46  1  0.00000000  0.21840000  0.84680000  1.0 -0.0880612317
C  C47  1  0.00000000  0.78160000  0.84680000  1.0 -0.0880612317
C  C48  1  0.00000000  0.21840000  0.15320000  1.0 -0.0880612317
C  C49  1  0.75640000  0.75640000  0.00000000  1.0 0.0312447802
C  C50  1  0.24360000  0.24360000  0.00000000  1.0 0.0312447802
C  C51  1  0.24360000  0.75640000  0.00000000  1.0 0.0312447802
C  C52  1  0.75640000  0.24360000  0.00000000  1.0 0.0312447802
C  C53  1  0.00000000  0.75640000  0.75640000  1.0 0.0312447802
C  C54  1  0.00000000  0.24360000  0.24360000  1.0 0.0312447802
C  C55  1  0.00000000  0.24360000  0.75640000  1.0 0.0312447802
C  C56  1  0.00000000  0.75640000  0.24360000  1.0 0.0312447802
C  C57  1  0.75640000  0.00000000  0.75640000  1.0 0.0312447802
C  C58  1  0.24360000  0.00000000  0.24360000  1.0 0.0312447802
C  C59  1  0.75640000  0.00000000  0.24360000  1.0 0.0312447802
C  C60  1  0.24360000  0.00000000  0.75640000  1.0 0.0312447802
C  C61  1  0.80730000  0.74420000  0.00000000  1.0 -0.1664012614
C  C62  1  0.19270000  0.25580000  0.00000000  1.0 -0.1664012614
C  C63  1  0.19270000  0.74420000  0.00000000  1.0 -0.1664012614
C  C64  1  0.80730000  0.25580000  0.00000000  1.0 -0.1664012614
C  C65  1  0.00000000  0.80730000  0.74420000  1.0 -0.1664012614
C  C66  1  0.00000000  0.19270000  0.25580000  1.0 -0.1664012614
C  C67  1  0.00000000  0.19270000  0.74420000  1.0 -0.1664012614
C  C68  1  0.00000000  0.80730000  0.25580000  1.0 -0.1664012614
C  C69  1  0.74420000  0.00000000  0.80730000  1.0 -0.1664012614
C  C70  1  0.25580000  0.00000000  0.19270000  1.0 -0.1664012614
C  C71  1  0.74420000  0.00000000  0.19270000  1.0 -0.1664012614
C  C72  1  0.25580000  0.00000000  0.80730000  1.0 -0.1664012614
C  C73  1  0.74420000  0.80730000  0.00000000  1.0 -0.1664012614
C  C74  1  0.25580000  0.19270000  0.00000000  1.0 -0.1664012614
C  C75  1  0.74420000  0.19270000  0.00000000  1.0 -0.1664012614
C  C76  1  0.25580000  0.80730000  0.00000000  1.0 -0.1664012614
C  C77  1  0.80730000  0.00000000  0.25580000  1.0 -0.1664012614
C  C78  1  0.19270000  0.00000000  0.74420000  1.0 -0.1664012614
C  C79  1  0.19270000  0.00000000  0.25580000  1.0 -0.1664012614
C  C80  1  0.80730000  0.00000000  0.74420000  1.0 -0.1664012614
C  C81  1  0.00000000  0.74420000  0.19270000  1.0 -0.1664012614
C  C82  1  0.00000000  0.25580000  0.80730000  1.0 -0.1664012614
C  C83  1  0.00000000  0.74420000  0.80730000  1.0 -0.1664012614
C  C84  1  0.00000000  0.25580000  0.19270000  1.0 -0.1664012614
C  C85  1  0.71700000  0.71700000  0.00000000  1.0 0.0431743985
C  C86  1  0.28300000  0.28300000  0.00000000  1.0 0.0431743985
C  C87  1  0.28300000  0.71700000  0.00000000  1.0 0.0431743985
C  C88  1  0.71700000  0.28300000  0.00000000  1.0 0.0431743985
C  C89  1  0.00000000  0.71700000  0.71700000  1.0 0.0431743985
C  C90  1  0.00000000  0.28300000  0.28300000  1.0 0.0431743985
C  C91  1  0.00000000  0.28300000  0.71700000  1.0 0.0431743985
C  C92  1  0.00000000  0.71700000  0.28300000  1.0 0.0431743985
C  C93  1  0.71700000  0.00000000  0.71700000  1.0 0.0431743985
C  C94  1  0.28300000  0.00000000  0.28300000  1.0 0.0431743985
C  C95  1  0.71700000  0.00000000  0.28300000  1.0 0.0431743985
C  C96  1  0.28300000  0.00000000  0.71700000  1.0 0.0431743985
C  C97  1  0.59590000  0.59590000  0.00000000  1.0 -0.0833928919
C  C98  1  0.40410000  0.40410000  0.00000000  1.0 -0.0833928919
C  C99  1  0.40410000  0.59590000  0.00000000  1.0 -0.0833928919
C  C100  1  0.59590000  0.40410000  0.00000000  1.0 -0.0833928919
C  C101  1  0.00000000  0.59590000  0.59590000  1.0 -0.0833928919
C  C102  1  0.00000000  0.40410000  0.40410000  1.0 -0.0833928919
C  C103  1  0.00000000  0.40410000  0.59590000  1.0 -0.0833928919
C  C104  1  0.00000000  0.59590000  0.40410000  1.0 -0.0833928919
C  C105  1  0.59590000  0.00000000  0.59590000  1.0 -0.0833928919
C  C106  1  0.40410000  0.00000000  0.40410000  1.0 -0.0833928919
C  C107  1  0.59590000  0.00000000  0.40410000  1.0 -0.0833928919
C  C108  1  0.40410000  0.00000000  0.59590000  1.0 -0.0833928919
C  C109  1  0.61210000  0.54320000  0.00000000  1.0 0.1683564646
C  C110  1  0.38790000  0.45680000  0.00000000  1.0 0.1683564646
C  C111  1  0.38790000  0.54320000  0.00000000  1.0 0.1683564646
C  C112  1  0.61210000  0.45680000  0.00000000  1.0 0.1683564646
C  C113  1  0.00000000  0.61210000  0.54320000  1.0 0.1683564646
C  C114  1  0.00000000  0.38790000  0.45680000  1.0 0.1683564646
C  C115  1  0.00000000  0.38790000  0.54320000  1.0 0.1683564646
C  C116  1  0.00000000  0.61210000  0.45680000  1.0 0.1683564646
C  C117  1  0.54320000  0.00000000  0.61210000  1.0 0.1683564646
C  C118  1  0.45680000  0.00000000  0.38790000  1.0 0.1683564646
C  C119  1  0.54320000  0.00000000  0.38790000  1.0 0.1683564646
C  C120  1  0.45680000  0.00000000  0.61210000  1.0 0.1683564646
C  C121  1  0.54320000  0.61210000  0.00000000  1.0 0.1683564646
C  C122  1  0.45680000  0.38790000  0.00000000  1.0 0.1683564646
C  C123  1  0.54320000  0.38790000  0.00000000  1.0 0.1683564646
C  C124  1  0.45680000  0.61210000  0.00000000  1.0 0.1683564646
C  C125  1  0.61210000  0.00000000  0.45680000  1.0 0.1683564646
C  C126  1  0.38790000  0.00000000  0.54320000  1.0 0.1683564646
C  C127  1  0.38790000  0.00000000  0.45680000  1.0 0.1683564646
C  C128  1  0.61210000  0.00000000  0.54320000  1.0 0.1683564646
C  C129  1  0.00000000  0.54320000  0.38790000  1.0 0.1683564646
C  C130  1  0.00000000  0.45680000  0.61210000  1.0 0.1683564646
C  C131  1  0.00000000  0.54320000  0.61210000  1.0 0.1683564646
C  C132  1  0.00000000  0.45680000  0.38790000  1.0 0.1683564646
C  C133  1  0.63700000  0.63700000  0.00000000  1.0 0.0757891865
C  C134  1  0.36300000  0.36300000  0.00000000  1.0 0.0757891865
C  C135  1  0.36300000  0.63700000  0.00000000  1.0 0.0757891865
C  C136  1  0.63700000  0.36300000  0.00000000  1.0 0.0757891865
C  C137  1  0.00000000  0.63700000  0.63700000  1.0 0.0757891865
C  C138  1  0.00000000  0.36300000  0.36300000  1.0 0.0757891865
C  C139  1  0.00000000  0.36300000  0.63700000  1.0 0.0757891865
C  C140  1  0.00000000  0.63700000  0.36300000  1.0 0.0757891865
C  C141  1  0.63700000  0.00000000  0.63700000  1.0 0.0757891865
C  C142  1  0.36300000  0.00000000  0.36300000  1.0 0.0757891865
C  C143  1  0.63700000  0.00000000  0.36300000  1.0 0.0757891865
C  C144  1  0.36300000  0.00000000  0.63700000  1.0 0.0757891865
C  C145  1  0.66640000  0.52640000  0.00000000  1.0 -0.2278750278
C  C146  1  0.33360000  0.47360000  0.00000000  1.0 -0.2278750278
C  C147  1  0.33360000  0.52640000  0.00000000  1.0 -0.2278750278
C  C148  1  0.66640000  0.47360000  0.00000000  1.0 -0.2278750278
C  C149  1  0.00000000  0.66640000  0.52640000  1.0 -0.2278750278
C  C150  1  0.00000000  0.33360000  0.47360000  1.0 -0.2278750278
C  C151  1  0.00000000  0.33360000  0.52640000  1.0 -0.2278750278
C  C152  1  0.00000000  0.66640000  0.47360000  1.0 -0.2278750278
C  C153  1  0.52640000  0.00000000  0.66640000  1.0 -0.2278750278
C  C154  1  0.47360000  0.00000000  0.33360000  1.0 -0.2278750278
C  C155  1  0.52640000  0.00000000  0.33360000  1.0 -0.2278750278
C  C156  1  0.47360000  0.00000000  0.66640000  1.0 -0.2278750278
C  C157  1  0.52640000  0.66640000  0.00000000  1.0 -0.2278750278
C  C158  1  0.47360000  0.33360000  0.00000000  1.0 -0.2278750278
C  C159  1  0.52640000  0.33360000  0.00000000  1.0 -0.2278750278
C  C160  1  0.47360000  0.66640000  0.00000000  1.0 -0.2278750278
C  C161  1  0.66640000  0.00000000  0.47360000  1.0 -0.2278750278
C  C162  1  0.33360000  0.00000000  0.52640000  1.0 -0.2278750278
C  C163  1  0.33360000  0.00000000  0.47360000  1.0 -0.2278750278
C  C164  1  0.66640000  0.00000000  0.52640000  1.0 -0.2278750278
C  C165  1  0.00000000  0.52640000  0.33360000  1.0 -0.2278750278
C  C166  1  0.00000000  0.47360000  0.66640000  1.0 -0.2278750278
C  C167  1  0.00000000  0.52640000  0.66640000  1.0 -0.2278750278
C  C168  1  0.00000000  0.47360000  0.33360000  1.0 -0.2278750278
C  C169  1  0.63970000  0.67510000  0.95950000  1.0 -0.102335272
C  C170  1  0.36030000  0.32490000  0.95950000  1.0 -0.102335272
C  C171  1  0.36030000  0.67510000  0.04050000  1.0 -0.102335272
C  C172  1  0.63970000  0.32490000  0.04050000  1.0 -0.102335272
C  C173  1  0.95950000  0.63970000  0.67510000  1.0 -0.102335272
C  C174  1  0.95950000  0.36030000  0.32490000  1.0 -0.102335272
C  C175  1  0.04050000  0.36030000  0.67510000  1.0 -0.102335272
C  C176  1  0.04050000  0.63970000  0.32490000  1.0 -0.102335272
C  C177  1  0.67510000  0.95950000  0.63970000  1.0 -0.102335272
C  C178  1  0.32490000  0.95950000  0.36030000  1.0 -0.102335272
C  C179  1  0.67510000  0.04050000  0.36030000  1.0 -0.102335272
C  C180  1  0.32490000  0.04050000  0.63970000  1.0 -0.102335272
C  C181  1  0.67510000  0.63970000  0.04050000  1.0 -0.102335272
C  C182  1  0.32490000  0.36030000  0.04050000  1.0 -0.102335272
C  C183  1  0.67510000  0.36030000  0.95950000  1.0 -0.102335272
C  C184  1  0.32490000  0.63970000  0.95950000  1.0 -0.102335272
C  C185  1  0.63970000  0.95950000  0.32490000  1.0 -0.102335272
C  C186  1  0.36030000  0.95950000  0.67510000  1.0 -0.102335272
C  C187  1  0.36030000  0.04050000  0.32490000  1.0 -0.102335272
C  C188  1  0.63970000  0.04050000  0.67510000  1.0 -0.102335272
C  C189  1  0.95950000  0.67510000  0.36030000  1.0 -0.102335272
C  C190  1  0.95950000  0.32490000  0.63970000  1.0 -0.102335272
C  C191  1  0.04050000  0.67510000  0.63970000  1.0 -0.102335272
C  C192  1  0.04050000  0.32490000  0.36030000  1.0 -0.102335272
C  C193  1  0.36030000  0.32490000  0.04050000  1.0 -0.102335272
C  C194  1  0.63970000  0.67510000  0.04050000  1.0 -0.102335272
C  C195  1  0.63970000  0.32490000  0.95950000  1.0 -0.102335272
C  C196  1  0.36030000  0.67510000  0.95950000  1.0 -0.102335272
C  C197  1  0.04050000  0.36030000  0.32490000  1.0 -0.102335272
C  C198  1  0.04050000  0.63970000  0.67510000  1.0 -0.102335272
C  C199  1  0.95950000  0.63970000  0.32490000  1.0 -0.102335272
C  C200  1  0.95950000  0.36030000  0.67510000  1.0 -0.102335272
C  C201  1  0.32490000  0.04050000  0.36030000  1.0 -0.102335272
C  C202  1  0.67510000  0.04050000  0.63970000  1.0 -0.102335272
C  C203  1  0.32490000  0.95950000  0.63970000  1.0 -0.102335272
C  C204  1  0.67510000  0.95950000  0.36030000  1.0 -0.102335272
C  C205  1  0.32490000  0.36030000  0.95950000  1.0 -0.102335272
C  C206  1  0.67510000  0.63970000  0.95950000  1.0 -0.102335272
C  C207  1  0.32490000  0.63970000  0.04050000  1.0 -0.102335272
C  C208  1  0.67510000  0.36030000  0.04050000  1.0 -0.102335272
C  C209  1  0.36030000  0.04050000  0.67510000  1.0 -0.102335272
C  C210  1  0.63970000  0.04050000  0.32490000  1.0 -0.102335272
C  C211  1  0.63970000  0.95950000  0.67510000  1.0 -0.102335272
C  C212  1  0.36030000  0.95950000  0.32490000  1.0 -0.102335272
C  C213  1  0.04050000  0.32490000  0.63970000  1.0 -0.102335272
C  C214  1  0.04050000  0.67510000  0.36030000  1.0 -0.102335272
C  C215  1  0.95950000  0.32490000  0.36030000  1.0 -0.102335272
C  C216  1  0.95950000  0.67510000  0.63970000  1.0 -0.102335272
C  C217  1  0.67870000  0.71400000  0.96140000  1.0 -0.0880612317
C  C218  1  0.32130000  0.28600000  0.96140000  1.0 -0.0880612317
C  C219  1  0.32130000  0.71400000  0.03860000  1.0 -0.0880612317
C  C220  1  0.67870000  0.28600000  0.03860000  1.0 -0.0880612317
C  C221  1  0.96140000  0.67870000  0.71400000  1.0 -0.0880612317
C  C222  1  0.96140000  0.32130000  0.28600000  1.0 -0.0880612317
C  C223  1  0.03860000  0.32130000  0.71400000  1.0 -0.0880612317
C  C224  1  0.03860000  0.67870000  0.28600000  1.0 -0.0880612317
C  C225  1  0.71400000  0.96140000  0.67870000  1.0 -0.0880612317
C  C226  1  0.28600000  0.96140000  0.32130000  1.0 -0.0880612317
C  C227  1  0.71400000  0.03860000  0.32130000  1.0 -0.0880612317
C  C228  1  0.28600000  0.03860000  0.67870000  1.0 -0.0880612317
C  C229  1  0.71400000  0.67870000  0.03860000  1.0 -0.0880612317
C  C230  1  0.28600000  0.32130000  0.03860000  1.0 -0.0880612317
C  C231  1  0.71400000  0.32130000  0.96140000  1.0 -0.0880612317
C  C232  1  0.28600000  0.67870000  0.96140000  1.0 -0.0880612317
C  C233  1  0.67870000  0.96140000  0.28600000  1.0 -0.0880612317
C  C234  1  0.32130000  0.96140000  0.71400000  1.0 -0.0880612317
C  C235  1  0.32130000  0.03860000  0.28600000  1.0 -0.0880612317
C  C236  1  0.67870000  0.03860000  0.71400000  1.0 -0.0880612317
C  C237  1  0.96140000  0.71400000  0.32130000  1.0 -0.0880612317
C  C238  1  0.96140000  0.28600000  0.67870000  1.0 -0.0880612317
C  C239  1  0.03860000  0.71400000  0.67870000  1.0 -0.0880612317
C  C240  1  0.03860000  0.28600000  0.32130000  1.0 -0.0880612317
C  C241  1  0.32130000  0.28600000  0.03860000  1.0 -0.0880612317
C  C242  1  0.67870000  0.71400000  0.03860000  1.0 -0.0880612317
C  C243  1  0.67870000  0.28600000  0.96140000  1.0 -0.0880612317
C  C244  1  0.32130000  0.71400000  0.96140000  1.0 -0.0880612317
C  C245  1  0.03860000  0.32130000  0.28600000  1.0 -0.0880612317
C  C246  1  0.03860000  0.67870000  0.71400000  1.0 -0.0880612317
C  C247  1  0.96140000  0.67870000  0.28600000  1.0 -0.0880612317
C  C248  1  0.96140000  0.32130000  0.71400000  1.0 -0.0880612317
C  C249  1  0.28600000  0.03860000  0.32130000  1.0 -0.0880612317
C  C250  1  0.71400000  0.03860000  0.67870000  1.0 -0.0880612317
C  C251  1  0.28600000  0.96140000  0.67870000  1.0 -0.0880612317
C  C252  1  0.71400000  0.96140000  0.32130000  1.0 -0.0880612317
C  C253  1  0.28600000  0.32130000  0.96140000  1.0 -0.0880612317
C  C254  1  0.71400000  0.67870000  0.96140000  1.0 -0.0880612317
C  C255  1  0.28600000  0.67870000  0.03860000  1.0 -0.0880612317
C  C256  1  0.71400000  0.32130000  0.03860000  1.0 -0.0880612317
C  C257  1  0.32130000  0.03860000  0.71400000  1.0 -0.0880612317
C  C258  1  0.67870000  0.03860000  0.28600000  1.0 -0.0880612317
C  C259  1  0.67870000  0.96140000  0.71400000  1.0 -0.0880612317
C  C260  1  0.32130000  0.96140000  0.28600000  1.0 -0.0880612317
C  C261  1  0.03860000  0.28600000  0.67870000  1.0 -0.0880612317
C  C262  1  0.03860000  0.71400000  0.32130000  1.0 -0.0880612317
C  C263  1  0.96140000  0.28600000  0.32130000  1.0 -0.0880612317
C  C264  1  0.96140000  0.71400000  0.67870000  1.0 -0.0880612317
N  N1  1  0.58010000  0.50000000  0.00000000  1.0 -0.3591875073
N  N2  1  0.41990000  0.50000000  0.00000000  1.0 -0.3591875073
N  N3  1  0.00000000  0.58010000  0.50000000  1.0 -0.3591875073
N  N4  1  0.00000000  0.41990000  0.50000000  1.0 -0.3591875073
N  N5  1  0.50000000  0.00000000  0.58010000  1.0 -0.3591875073
N  N6  1  0.50000000  0.00000000  0.41990000  1.0 -0.3591875073
N  N7  1  0.50000000  0.58010000  0.00000000  1.0 -0.3591875073
N  N8  1  0.50000000  0.41990000  0.00000000  1.0 -0.3591875073
N  N9  1  0.58010000  0.00000000  0.50000000  1.0 -0.3591875073
N  N10  1  0.41990000  0.00000000  0.50000000  1.0 -0.3591875073
N  N11  1  0.00000000  0.50000000  0.41990000  1.0 -0.3591875073
N  N12  1  0.00000000  0.50000000  0.58010000  1.0 -0.3591875073
O  O1  1  0.95200000  0.95200000  0.95200000  1.0 -1.0802147971
O  O2  1  0.04800000  0.04800000  0.95200000  1.0 -1.0802147971
O  O3  1  0.04800000  0.95200000  0.04800000  1.0 -1.0802147971
O  O4  1  0.95200000  0.04800000  0.04800000  1.0 -1.0802147971
O  O5  1  0.95200000  0.95200000  0.04800000  1.0 -1.0802147971
O  O6  1  0.04800000  0.04800000  0.04800000  1.0 -1.0802147971
O  O7  1  0.95200000  0.04800000  0.95200000  1.0 -1.0802147971
O  O8  1  0.04800000  0.95200000  0.95200000  1.0 -1.0802147971
O  O9  1  0.92360000  0.85990000  0.00000000  1.0 -0.5930245407
O  O10  1  0.07640000  0.14010000  0.00000000  1.0 -0.5930245407
O  O11  1  0.07640000  0.85990000  0.00000000  1.0 -0.5930245407
O  O12  1  0.92360000  0.14010000  0.00000000  1.0 -0.5930245407
O  O13  1  0.00000000  0.92360000  0.85990000  1.0 -0.5930245407
O  O14  1  0.00000000  0.07640000  0.14010000  1.0 -0.5930245407
O  O15  1  0.00000000  0.07640000  0.85990000  1.0 -0.5930245407
O  O16  1  0.00000000  0.92360000  0.14010000  1.0 -0.5930245407
O  O17  1  0.85990000  0.00000000  0.92360000  1.0 -0.5930245407
O  O18  1  0.14010000  0.00000000  0.07640000  1.0 -0.5930245407
O  O19  1  0.85990000  0.00000000  0.07640000  1.0 -0.5930245407
O  O20  1  0.14010000  0.00000000  0.92360000  1.0 -0.5930245407
O  O21  1  0.85990000  0.92360000  0.00000000  1.0 -0.5930245407
O  O22  1  0.14010000  0.07640000  0.00000000  1.0 -0.5930245407
O  O23  1  0.85990000  0.07640000  0.00000000  1.0 -0.5930245407
O  O24  1  0.14010000  0.92360000  0.00000000  1.0 -0.5930245407
O  O25  1  0.92360000  0.00000000  0.14010000  1.0 -0.5930245407
O  O26  1  0.07640000  0.00000000  0.85990000  1.0 -0.5930245407
O  O27  1  0.07640000  0.00000000  0.14010000  1.0 -0.5930245407
O  O28  1  0.92360000  0.00000000  0.85990000  1.0 -0.5930245407
O  O29  1  0.00000000  0.85990000  0.07640000  1.0 -0.5930245407
O  O30  1  0.00000000  0.14010000  0.92360000  1.0 -0.5930245407
O  O31  1  0.00000000  0.85990000  0.92360000  1.0 -0.5930245407
O  O32  1  0.00000000  0.14010000  0.07640000  1.0 -0.5930245407
