# DDEC6 charges by PACMAN v1.1 (https://github.com/mtap-research/PACMAN-charge/)
data_JUBXIP_FSR_pacman
_symmetry_space_group_name_H-M   'P 1'
_cell_length_a   16.62000000
_cell_length_b   30.52600000
_cell_length_c   28.36200000
_cell_angle_alpha   90.00000000
_cell_angle_beta   98.31700000
_cell_angle_gamma   90.00000000
_symmetry_Int_Tables_number   1
_chemical_formula_structural   Ba26Fe28H56C88O197
_chemical_formula_sum   'Ba52 Fe56 H112 C176 O394'
_cell_volume   14237.90436465
_cell_formula_units_Z   2
loop_
 _symmetry_equiv_pos_site_id
 _symmetry_equiv_pos_as_xyz
  1  'x, y, z'
loop_
 _atom_site_type_symbol
 _atom_site_label
 _atom_site_symmetry_multiplicity
 _atom_site_fract_x
 _atom_site_fract_y
 _atom_site_fract_z
 _atom_site_occupancy
 _atom_site_charge
Ba  Ba1  1  0.40552000  0.98361000  0.59079000  1.0 1.4584674696
Ba  Ba2  1  0.59448000  0.48361000  0.40921000  1.0 1.4584674696
Ba  Ba3  1  0.26032000  0.77296000  0.63477000  1.0 1.3689836124
Ba  Ba4  1  0.73968000  0.27296000  0.36523000  1.0 1.3689836124
Ba  Ba5  1  0.74640000  0.82925000  0.25284000  1.0 1.3616284589
Ba  Ba6  1  0.25360000  0.32925000  0.74716000  1.0 1.3616284589
Ba  Ba7  1  0.07770000  0.88084000  0.90633000  1.0 1.0990502695
Ba  Ba8  1  0.92230000  0.38084000  0.09367000  1.0 1.0990502695
Ba  Ba9  1  0.41110000  0.97389000  0.83770000  1.0 0.7104036967
Ba  Ba10  1  0.58890000  0.47389000  0.16230000  1.0 0.7104036967
Ba  Ba11  1  0.39250000  0.13710000  0.71190000  1.0 0.4288009564
Ba  Ba12  1  0.60750000  0.63710000  0.28810000  1.0 0.4619302823
Ba  Ba13  1  0.60230000  0.47087000  0.79190000  1.0 1.391876624
Ba  Ba14  1  0.39770000  0.97087000  0.20810000  1.0 1.391876624
Ba  Ba15  1  0.79730000  0.97468000  0.21024000  1.0 1.4657957414
Ba  Ba16  1  0.20270000  0.47468000  0.78976000  1.0 1.4657957414
Ba  Ba17  1  0.85820000  0.33734000  0.50712000  1.0 1.3415344218
Ba  Ba18  1  0.14180000  0.83734000  0.49288000  1.0 1.3472058037
Ba  Ba19  1  0.88900000  0.12580000  0.19770000  1.0 -0.14960953
Ba  Ba20  1  0.11100000  0.62580000  0.80230000  1.0 -0.14960953
Ba  Ba21  1  0.22820000  0.08550000  0.73263000  1.0 0.5619544777
Ba  Ba22  1  0.77180000  0.58550000  0.26737000  1.0 0.5497391464
Ba  Ba23  1  0.39110000  0.20143000  0.75430000  1.0 0.6901802877
Ba  Ba24  1  0.60890000  0.70143000  0.24570000  1.0 0.6741050342
Ba  Ba25  1  0.06990000  0.96700000  0.68560000  1.0 0.0722354928
Ba  Ba26  1  0.93010000  0.46700000  0.31440000  1.0 0.0722354928
Ba  Ba27  1  0.20930000  0.62790000  0.80600000  1.0 -0.1199799245
Ba  Ba28  1  0.79070000  0.12790000  0.19400000  1.0 -0.1317872247
Ba  Ba29  1  0.20970000  0.76930000  0.82230000  1.0 -0.2158882609
Ba  Ba30  1  0.79030000  0.26930000  0.17770000  1.0 -0.1988945892
Ba  Ba31  1  0.22070000  0.75500000  0.86820000  1.0 0.3236923972
Ba  Ba32  1  0.77930000  0.25500000  0.13180000  1.0 0.3130061189
Ba  Ba33  1  0.16890000  0.60980000  0.75810000  1.0 -0.0782672194
Ba  Ba34  1  0.83110000  0.10980000  0.24190000  1.0 -0.0782672194
Ba  Ba35  1  0.31290000  0.99110000  0.88870000  1.0 -0.1988945892
Ba  Ba36  1  0.68710000  0.49110000  0.11130000  1.0 -0.1988945892
Ba  Ba37  1  0.05630000  0.77110000  0.82140000  1.0 0.3966189483
Ba  Ba38  1  0.94370000  0.27110000  0.17860000  1.0 0.3708554367
Ba  Ba39  1  0.12670000  0.79610000  0.91560000  1.0 -0.2275215726
Ba  Ba40  1  0.87330000  0.29610000  0.08440000  1.0 -0.2275215726
Ba  Ba41  1  0.66750000  0.52250000  0.02170000  1.0 0.0284986021
Ba  Ba42  1  0.33250000  0.02250000  0.97830000  1.0 0.0423074287
Ba  Ba43  1  0.10150000  0.04840000  0.75910000  1.0 -0.14960953
Ba  Ba44  1  0.89850000  0.54840000  0.24090000  1.0 -0.14960953
Ba  Ba45  1  0.98690000  0.90460000  0.70150000  1.0 -0.2077018162
Ba  Ba46  1  0.01310000  0.40460000  0.29850000  1.0 -0.2077018162
Ba  Ba47  1  0.68910000  0.46400000  0.95370000  1.0 0.278129817
Ba  Ba48  1  0.31090000  0.96400000  0.04630000  1.0 0.2640555063
Ba  Ba49  1  0.78200000  0.33960000  0.66000000  1.0 1.3285922865
Ba  Ba50  1  0.21800000  0.83960000  0.34000000  1.0 1.3285922865
Ba  Ba51  1  0.36550000  0.94680000  0.43390000  1.0 1.4318261603
Ba  Ba52  1  0.63450000  0.44680000  0.56610000  1.0 1.4350735406
Fe  Fe1  1  0.65500000  0.63074000  0.95018000  1.0 1.2287406782
Fe  Fe2  1  0.34500000  0.13074000  0.04982000  1.0 1.2287406782
Fe  Fe3  1  0.76990000  0.78814000  0.08733000  1.0 1.160793064
Fe  Fe4  1  0.23010000  0.28814000  0.91267000  1.0 1.160793064
Fe  Fe5  1  0.69480000  0.11244000  0.59175000  1.0 1.1400025824
Fe  Fe6  1  0.30520000  0.61244000  0.40825000  1.0 1.1400025824
Fe  Fe7  1  0.87450000  0.12354000  0.59075000  1.0 1.160793064
Fe  Fe8  1  0.12550000  0.62354000  0.40925000  1.0 1.160793064
Fe  Fe9  1  0.75290000  0.17661000  0.50345000  1.0 1.2287406782
Fe  Fe10  1  0.24710000  0.67661000  0.49655000  1.0 1.2287406782
Fe  Fe11  1  0.76940000  0.05860000  0.49333000  1.0 1.0990502695
Fe  Fe12  1  0.23060000  0.55860000  0.50667000  1.0 1.0990502695
Fe  Fe13  1  0.83350000  0.94621000  0.47645000  1.0 1.1658574799
Fe  Fe14  1  0.16650000  0.44621000  0.52355000  1.0 1.160793064
Fe  Fe15  1  0.65970000  0.96447000  0.43742000  1.0 1.1497527669
Fe  Fe16  1  0.34030000  0.46447000  0.56258000  1.0 1.1497527669
Fe  Fe17  1  0.79980000  0.01235000  0.37788000  1.0 1.2066488722
Fe  Fe18  1  0.20020000  0.51235000  0.62212000  1.0 1.1988200406
Fe  Fe19  1  0.62420000  0.78590000  0.49055000  1.0 1.1988200406
Fe  Fe20  1  0.37580000  0.28590000  0.50945000  1.0 1.1988200406
Fe  Fe21  1  0.79530000  0.75905000  0.48782000  1.0 1.1212196211
Fe  Fe22  1  0.20470000  0.25905000  0.51218000  1.0 1.1212196211
Fe  Fe23  1  0.65250000  0.69610000  0.42298000  1.0 1.1988200406
Fe  Fe24  1  0.34750000  0.19610000  0.57702000  1.0 1.1988200406
Fe  Fe25  1  0.67870000  0.68447000  0.55318000  1.0 1.0911438922
Fe  Fe26  1  0.32130000  0.18447000  0.44682000  1.0 1.0911438922
Fe  Fe27  1  0.75880000  0.65730000  0.67639000  1.0 1.1497527669
Fe  Fe28  1  0.24120000  0.15730000  0.32361000  1.0 1.1497527669
Fe  Fe29  1  0.57690000  0.65540000  0.65614000  1.0 1.1813450078
Fe  Fe30  1  0.42310000  0.15540000  0.34386000  1.0 1.1813450078
Fe  Fe31  1  0.67070000  0.57525000  0.60355000  1.0 1.1988200406
Fe  Fe32  1  0.32930000  0.07525000  0.39645000  1.0 1.1988200406
Fe  Fe33  1  0.61480000  0.70021000  0.85504000  1.0 1.1497527669
Fe  Fe34  1  0.38520000  0.20021000  0.14496000  1.0 1.1497527669
Fe  Fe35  1  0.78680000  0.66967000  0.88051000  1.0 1.1813450078
Fe  Fe36  1  0.21320000  0.16967000  0.11949000  1.0 1.1813450078
Fe  Fe37  1  0.71770000  0.74564000  0.96594000  1.0 1.1400025824
Fe  Fe38  1  0.28230000  0.24564000  0.03406000  1.0 1.1332502822
Fe  Fe39  1  0.82790000  0.84803000  0.99488000  1.0 1.1813450078
Fe  Fe40  1  0.17210000  0.34803000  0.00512000  1.0 1.1813450078
Fe  Fe41  1  0.65270000  0.85152000  0.00650000  1.0 1.1400025824
Fe  Fe42  1  0.34730000  0.35152000  0.99350000  1.0 1.1400025824
Fe  Fe43  1  0.86940000  0.03534000  0.98414000  1.0 1.1497527669
Fe  Fe44  1  0.13060000  0.53534000  0.01586000  1.0 1.1497527669
Fe  Fe45  1  0.69070000  0.03037000  0.95196000  1.0 1.1813450078
Fe  Fe46  1  0.30930000  0.53037000  0.04804000  1.0 1.1813450078
Fe  Fe47  1  0.75740000  0.11373000  0.02712000  1.0 1.1886793037
Fe  Fe48  1  0.24260000  0.61373000  0.97288000  1.0 1.1813450078
Fe  Fe49  1  0.78510000  0.12241000  0.90227000  1.0 1.1212196211
Fe  Fe50  1  0.21490000  0.62241000  0.09773000  1.0 1.1212196211
Fe  Fe51  1  0.69770000  0.16523000  0.78652000  1.0 1.1212196211
Fe  Fe52  1  0.30230000  0.66523000  0.21348000  1.0 1.1212196211
Fe  Fe53  1  0.87180000  0.14029000  0.79265000  1.0 1.1886793037
Fe  Fe54  1  0.12820000  0.64029000  0.20735000  1.0 1.1813450078
Fe  Fe55  1  0.82650000  0.23051000  0.85585000  1.0 1.1988200406
Fe  Fe56  1  0.17350000  0.73051000  0.14415000  1.0 1.1886793037
H  H1  1  0.85980000  0.04510000  0.86210000  1.0 0.1294827167
H  H2  1  0.14020000  0.54510000  0.13790000  1.0 0.1294827167
H  H3  1  0.95610000  0.03950000  0.52320000  1.0 0.1213740818
H  H4  1  0.04390000  0.53950000  0.47680000  1.0 0.1213740818
H  H5  1  0.73990000  0.60930000  0.48890000  1.0 0.1213740818
H  H6  1  0.26010000  0.10930000  0.51110000  1.0 0.1213740818
H  H7  1  0.84450000  0.01160000  0.58210000  1.0 0.1213740818
H  H8  1  0.15550000  0.51160000  0.41790000  1.0 0.1213740818
H  H9  1  0.62150000  0.57420000  0.86290000  1.0 0.1294827167
H  H10  1  0.37850000  0.07420000  0.13710000  1.0 0.1294827167
H  H11  1  0.70650000  0.10700000  0.39990000  1.0 0.1213740818
H  H12  1  0.29350000  0.60700000  0.60010000  1.0 0.1213740818
H  H13  1  0.87090000  0.11680000  0.43670000  1.0 0.1294827167
H  H14  1  0.12910000  0.61680000  0.56330000  1.0 0.1294827167
H  H15  1  0.56840000  0.61120000  0.49860000  1.0 0.1104193088
H  H16  1  0.43160000  0.11120000  0.50140000  1.0 0.1104193088
H  H17  1  0.02190000  0.97440000  0.42010000  1.0 0.1104193088
H  H18  1  0.97810000  0.47440000  0.57990000  1.0 0.1104193088
H  H19  1  0.57720000  0.02810000  0.32840000  1.0 0.1104193088
H  H20  1  0.42280000  0.52810000  0.67160000  1.0 0.1104193088
H  H21  1  0.79140000  0.91680000  0.34710000  1.0 0.1294827167
H  H22  1  0.20860000  0.41680000  0.65290000  1.0 0.1294827167
H  H23  1  0.66260000  0.88380000  0.51990000  1.0 0.1390325354
H  H24  1  0.33740000  0.38380000  0.48010000  1.0 0.1390325354
H  H25  1  0.79650000  0.86190000  0.53500000  1.0 0.1294827167
H  H26  1  0.20350000  0.36190000  0.46500000  1.0 0.1294827167
H  H27  1  0.90130000  0.56520000  0.65100000  1.0 0.1213740818
H  H28  1  0.09870000  0.06520000  0.34900000  1.0 0.1213740818
H  H29  1  0.43140000  0.58440000  0.57770000  1.0 0.1104193088
H  H30  1  0.56860000  0.08440000  0.42230000  1.0 0.1104193088
H  H31  1  0.62990000  0.72480000  0.74780000  1.0 0.1390325354
H  H32  1  0.37010000  0.22480000  0.25220000  1.0 0.1390325354
H  H33  1  0.78620000  0.68050000  0.04330000  1.0 0.1213740818
H  H34  1  0.21380000  0.18050000  0.95670000  1.0 0.1213740818
H  H35  1  0.62700000  0.71150000  0.04360000  1.0 0.1213740818
H  H36  1  0.37300000  0.21150000  0.95640000  1.0 0.1213740818
H  H37  1  0.99740000  0.79520000  0.08860000  1.0 0.1390325354
H  H38  1  0.00260000  0.29520000  0.91140000  1.0 0.1390325354
H  H39  1  0.53020000  0.79870000  0.09800000  1.0 0.0812162469
H  H40  1  0.46980000  0.29870000  0.90200000  1.0 0.0812162469
H  H41  1  0.68540000  0.92950000  0.92470000  1.0 0.1390325354
H  H42  1  0.31460000  0.42950000  0.07530000  1.0 0.1390325354
H  H43  1  0.83000000  0.93420000  0.93270000  1.0 0.1294827167
H  H44  1  0.17000000  0.43420000  0.06730000  1.0 0.1294827167
H  H45  1  0.69140000  0.06040000  0.82790000  1.0 0.1294827167
H  H46  1  0.30860000  0.56040000  0.17210000  1.0 0.1294827167
H  H47  1  0.59180000  0.11600000  0.87390000  1.0 0.1294827167
H  H48  1  0.40820000  0.61600000  0.12610000  1.0 0.1294827167
H  H49  1  0.87360000  0.18660000  0.97770000  1.0 0.1213740818
H  H50  1  0.12640000  0.68660000  0.02230000  1.0 0.1213740818
H  H51  1  0.70580000  0.20440000  0.94380000  1.0 0.1213740818
H  H52  1  0.29420000  0.70440000  0.05620000  1.0 0.1213740818
H  H53  1  0.05370000  0.21280000  0.84900000  1.0 0.1390325354
H  H54  1  0.94630000  0.71280000  0.15100000  1.0 0.1390325354
H  H55  1  0.60900000  0.26670000  0.83080000  1.0 0.1390325354
H  H56  1  0.39100000  0.76670000  0.16920000  1.0 0.1390325354
H  H57  1  0.70870000  0.08820000  0.69780000  1.0 0.1390325354
H  H58  1  0.29130000  0.58820000  0.30220000  1.0 0.1390325354
H  H59  1  0.85130000  0.08060000  0.69810000  1.0 0.1390325354
H  H60  1  0.14870000  0.58060000  0.30190000  1.0 0.1390325354
H  H61  1  0.78830000  0.27380000  0.74520000  1.0 0.1213740818
H  H62  1  0.21170000  0.77380000  0.25480000  1.0 0.1213740818
H  H63  1  0.79790000  0.87930000  0.11590000  1.0 0.1462195078
H  H64  1  0.20210000  0.37930000  0.88410000  1.0 0.1462195078
H  H65  1  0.60890000  0.55200000  0.69190000  1.0 0.1390325354
H  H66  1  0.39110000  0.05200000  0.30810000  1.0 0.1294827167
H  H67  1  0.97150000  0.10520000  0.90790000  1.0 0.1294827167
H  H68  1  0.02850000  0.60520000  0.09210000  1.0 0.1294827167
H  H69  1  0.52470000  0.10060000  0.99860000  1.0 0.1390325354
H  H70  1  0.47530000  0.60060000  0.00140000  1.0 0.1390325354
H  H71  1  0.99030000  0.11670000  0.06700000  1.0 0.1213740818
H  H72  1  0.00970000  0.61670000  0.93300000  1.0 0.1213740818
H  H73  1  0.77140000  0.03440000  0.09010000  1.0 0.1294827167
H  H74  1  0.22860000  0.53440000  0.90990000  1.0 0.1294827167
H  H75  1  0.52860000  0.77000000  0.93830000  1.0 0.1213740818
H  H76  1  0.47140000  0.27000000  0.06170000  1.0 0.1213740818
H  H77  1  0.64170000  0.81780000  0.89210000  1.0 0.1213740818
H  H78  1  0.35830000  0.31780000  0.10790000  1.0 0.1213740818
H  H79  1  0.80070000  0.78230000  0.88600000  1.0 0.1213740818
H  H80  1  0.19930000  0.28230000  0.11400000  1.0 0.1213740818
H  H81  1  0.90350000  0.74390000  0.96240000  1.0 0.1213740818
H  H82  1  0.09650000  0.24390000  0.03760000  1.0 0.1213740818
H  H83  1  0.89090000  0.58870000  0.97440000  1.0 0.0872791717
H  H84  1  0.10910000  0.08870000  0.02560000  1.0 0.0872791717
H  H85  1  0.43790000  0.66110000  0.91450000  1.0 0.1586687909
H  H86  1  0.56210000  0.16110000  0.08550000  1.0 0.1586687909
H  H87  1  0.77150000  0.71520000  0.76850000  1.0 0.1390325354
H  H88  1  0.22850000  0.21520000  0.23150000  1.0 0.1390325354
H  H89  1  0.49490000  0.72270000  0.55200000  1.0 0.1213740818
H  H90  1  0.50510000  0.22270000  0.44800000  1.0 0.1213740818
H  H91  1  0.63180000  0.75420000  0.61450000  1.0 0.1104193088
H  H92  1  0.36820000  0.25420000  0.38550000  1.0 0.1104193088
H  H93  1  0.78450000  0.75290000  0.60780000  1.0 0.1294827167
H  H94  1  0.21550000  0.25290000  0.39220000  1.0 0.1294827167
H  H95  1  0.87250000  0.68180000  0.57790000  1.0 0.1213740818
H  H96  1  0.12750000  0.18180000  0.42210000  1.0 0.1213740818
H  H97  1  0.87370000  0.67000000  0.41510000  1.0 0.1390325354
H  H98  1  0.12630000  0.17000000  0.58490000  1.0 0.1390325354
H  H99  1  0.42900000  0.73860000  0.40950000  1.0 0.0872791717
H  H100  1  0.57100000  0.23860000  0.59050000  1.0 0.0872791717
H  H101  1  0.68370000  0.77960000  0.37050000  1.0 0.1104193088
H  H102  1  0.31630000  0.27960000  0.62950000  1.0 0.1104193088
H  H103  1  0.57610000  0.05640000  0.49970000  1.0 0.1213740818
H  H104  1  0.42390000  0.55640000  0.50030000  1.0 0.1213740818
H  H105  1  0.68710000  0.99930000  0.55540000  1.0 0.1213740818
H  H106  1  0.31290000  0.49930000  0.44460000  1.0 0.1213740818
H  H107  1  0.98820000  0.19550000  0.51400000  1.0 0.1104193088
H  H108  1  0.01180000  0.69550000  0.48600000  1.0 0.1104193088
H  H109  1  0.52390000  0.16550000  0.50890000  1.0 0.1213740818
H  H110  1  0.47610000  0.66550000  0.49110000  1.0 0.1213740818
H  H111  1  0.75670000  0.23400000  0.59600000  1.0 0.1294827167
H  H112  1  0.24330000  0.73400000  0.40400000  1.0 0.1294827167
C  C1  1  0.89630000  0.06980000  0.85900000  1.0 -0.0024234392
C  C2  1  0.10370000  0.56980000  0.14100000  1.0 -0.0024234392
C  C3  1  0.92830000  0.04520000  0.55070000  1.0 0.0033932311
C  C4  1  0.07170000  0.54520000  0.44930000  1.0 0.0033932311
C  C5  1  0.69950000  0.15420000  0.68600000  1.0 0.5619544777
C  C6  1  0.30050000  0.65420000  0.31400000  1.0 0.5619544777
C  C7  1  0.99350000  0.05650000  0.59170000  1.0 0.5497391464
C  C8  1  0.00650000  0.55650000  0.40830000  1.0 0.5497391464
C  C9  1  0.69410000  0.59990000  0.50470000  1.0 -0.0209286741
C  C10  1  0.30590000  0.09990000  0.49530000  1.0 -0.0209286741
C  C11  1  0.87730000  0.00500000  0.55690000  1.0 -0.0116080464
C  C12  1  0.12270000  0.50500000  0.44310000  1.0 -0.0116080464
C  C13  1  0.87140000  0.14610000  0.68940000  1.0 0.5673202931
C  C14  1  0.12860000  0.64610000  0.31060000  1.0 0.5673202931
C  C15  1  0.91830000  0.96100000  0.56900000  1.0 0.5792340993
C  C16  1  0.08170000  0.46100000  0.43100000  1.0 0.5792340993
C  C17  1  0.62900000  0.55450000  0.88820000  1.0 0.532238734
C  C18  1  0.37100000  0.05450000  0.11180000  1.0 0.532238734
C  C19  1  0.74810000  0.12470000  0.41920000  1.0 -0.0116080464
C  C20  1  0.25190000  0.62470000  0.58080000  1.0 -0.0116080464
C  C21  1  0.69090000  0.55060000  0.51040000  1.0 0.608089135
C  C22  1  0.30910000  0.05060000  0.48960000  1.0 0.608089135
C  C23  1  0.82800000  0.10210000  0.41500000  1.0 -0.0303225271
C  C24  1  0.17200000  0.60210000  0.58500000  1.0 -0.0303225271
C  C25  1  0.61400000  0.62010000  0.48240000  1.0 -0.0209286741
C  C26  1  0.38600000  0.12010000  0.51760000  1.0 -0.0209286741
C  C27  1  0.73160000  0.17130000  0.40230000  1.0 0.5497391464
C  C28  1  0.26840000  0.67130000  0.59770000  1.0 0.5497391464
C  C29  1  0.85130000  0.10330000  0.36530000  1.0 0.5215306313
C  C30  1  0.14870000  0.60330000  0.63470000  1.0 0.5215306313
C  C31  1  0.96630000  0.97640000  0.42080000  1.0 0.4805908578
C  C32  1  0.03370000  0.47640000  0.57920000  1.0 0.4805908578
C  C33  1  0.61930000  0.01540000  0.34910000  1.0 0.4524224932
C  C34  1  0.38070000  0.51540000  0.65090000  1.0 0.4524224932
C  C35  1  0.79000000  0.93250000  0.31890000  1.0 0.5215306313
C  C36  1  0.21000000  0.43250000  0.68110000  1.0 0.5215306313
C  C37  1  0.69560000  0.88520000  0.49400000  1.0 -0.0209286741
C  C38  1  0.30440000  0.38520000  0.50600000  1.0 -0.0209286741
C  C39  1  0.63880000  0.87400000  0.44900000  1.0 0.5619544777
C  C40  1  0.36120000  0.37400000  0.55100000  1.0 0.5619544777
C  C41  1  0.76270000  0.85140000  0.50600000  1.0 0.010802398
C  C42  1  0.23730000  0.35140000  0.49400000  1.0 0.0188305114
C  C43  1  0.81760000  0.85030000  0.46750000  1.0 0.5497391464
C  C44  1  0.18240000  0.35030000  0.53250000  1.0 0.5497391464
C  C45  1  0.60050000  0.60840000  0.42960000  1.0 0.5792340993
C  C46  1  0.39950000  0.10840000  0.57040000  1.0 0.5792340993
C  C47  1  0.85110000  0.57910000  0.64780000  1.0 0.4805908578
C  C48  1  0.14890000  0.07910000  0.35220000  1.0 0.4805908578
C  C49  1  0.48290000  0.59020000  0.59410000  1.0 0.4707645472
C  C50  1  0.51710000  0.09020000  0.40590000  1.0 0.4707645472
C  C51  1  0.65460000  0.69600000  0.74460000  1.0 0.0284986021
C  C52  1  0.34540000  0.19600000  0.25540000  1.0 0.0284986021
C  C53  1  0.59540000  0.66240000  0.75920000  1.0 0.5673202931
C  C54  1  0.40460000  0.16240000  0.24080000  1.0 0.5673202931
C  C55  1  0.74970000  0.70200000  0.05480000  1.0 0.010802398
C  C56  1  0.25030000  0.20200000  0.94520000  1.0 0.0033932311
C  C57  1  0.76500000  0.70030000  0.10870000  1.0 0.532238734
C  C58  1  0.23500000  0.20030000  0.89130000  1.0 0.532238734
C  C59  1  0.66380000  0.68840000  0.03560000  1.0 -0.0558344973
C  C60  1  0.33620000  0.18840000  0.96440000  1.0 -0.0558344973
C  C61  1  0.62900000  0.64480000  0.04790000  1.0 0.532238734
C  C62  1  0.37100000  0.14480000  0.95210000  1.0 0.532238734
C  C63  1  0.94400000  0.80140000  0.07590000  1.0 0.4910093556
C  C64  1  0.05600000  0.30140000  0.92410000  1.0 0.4910093556
C  C65  1  0.57700000  0.80600000  0.08560000  1.0 0.4707645472
C  C66  1  0.42300000  0.30600000  0.91440000  1.0 0.4707645472
C  C67  1  0.71980000  0.92400000  0.95530000  1.0 -0.0303225271
C  C68  1  0.28020000  0.42400000  0.04470000  1.0 -0.0303225271
C  C69  1  0.79890000  0.94820000  0.95540000  1.0 -0.0116080464
C  C70  1  0.20110000  0.44820000  0.04460000  1.0 -0.0116080464
C  C71  1  0.66000000  0.06480000  0.85420000  1.0 -0.0303225271
C  C72  1  0.34000000  0.56480000  0.14580000  1.0 -0.0303225271
C  C73  1  0.60940000  0.02370000  0.85690000  1.0 0.532238734
C  C74  1  0.39060000  0.52370000  0.14310000  1.0 0.532238734
C  C75  1  0.62190000  0.11030000  0.84720000  1.0 -0.0209286741
C  C76  1  0.37810000  0.61030000  0.15280000  1.0 -0.0209286741
C  C77  1  0.83180000  0.20080000  0.95480000  1.0 -0.0116080464
C  C78  1  0.16820000  0.70080000  0.04520000  1.0 -0.0116080464
C  C79  1  0.74790000  0.19060000  0.96680000  1.0 -0.0116080464
C  C80  1  0.25210000  0.69060000  0.03320000  1.0 -0.0116080464
C  C81  1  0.74300000  0.20710000  0.01710000  1.0 0.5403739969
C  C82  1  0.25700000  0.70710000  0.98290000  1.0 0.532238734
C  C83  1  0.84400000  0.25000000  0.95570000  1.0 0.5497391464
C  C84  1  0.15600000  0.75000000  0.04430000  1.0 0.5497391464
C  C85  1  0.99900000  0.20580000  0.84300000  1.0 0.5104638539
C  C86  1  0.00100000  0.70580000  0.15700000  1.0 0.5104638539
C  C87  1  0.64900000  0.24560000  0.82940000  1.0 0.4707645472
C  C88  1  0.35100000  0.74560000  0.17060000  1.0 0.4707645472
C  C89  1  0.74530000  0.11320000  0.70490000  1.0 -0.0664727827
C  C90  1  0.25470000  0.61320000  0.29510000  1.0 -0.0664727827
C  C91  1  0.82070000  0.10480000  0.68140000  1.0 0.0722354928
C  C92  1  0.17930000  0.60480000  0.31860000  1.0 0.0722354928
C  C93  1  0.79400000  0.29500000  0.76910000  1.0 0.4805908578
C  C94  1  0.20600000  0.79500000  0.23090000  1.0 0.4805908578
C  C95  1  0.78600000  0.86680000  0.14390000  1.0 0.532238734
C  C96  1  0.21400000  0.36680000  0.85610000  1.0 0.532238734
C  C97  1  0.62300000  0.52520000  0.68000000  1.0 0.5029389421
C  C98  1  0.37700000  0.02520000  0.32000000  1.0 0.5029389421
C  C99  1  0.94130000  0.07770000  0.90890000  1.0 -0.0116080464
C  C100  1  0.05870000  0.57770000  0.09110000  1.0 -0.0116080464
C  C101  1  0.00220000  0.04290000  0.92910000  1.0 0.5029389421
C  C102  1  0.99780000  0.54290000  0.07090000  1.0 0.5029389421
C  C103  1  0.94380000  0.05710000  0.81930000  1.0 0.532238734
C  C104  1  0.05620000  0.55710000  0.18070000  1.0 0.532238734
C  C105  1  0.56290000  0.11430000  0.80140000  1.0 0.5104638539
C  C106  1  0.43710000  0.61430000  0.19860000  1.0 0.5104638539
C  C107  1  0.57800000  0.09290000  0.99700000  1.0 0.4707645472
C  C108  1  0.42200000  0.59290000  0.00300000  1.0 0.4805908578
C  C109  1  0.94260000  0.10520000  0.05040000  1.0 0.4524224932
C  C110  1  0.05740000  0.60520000  0.94960000  1.0 0.4524224932
C  C111  1  0.78200000  0.05760000  0.11120000  1.0 0.4619302823
C  C112  1  0.21800000  0.55760000  0.88880000  1.0 0.4619302823
C  C113  1  0.67630000  0.94140000  0.99490000  1.0 0.5792340993
C  C114  1  0.32370000  0.44140000  0.00510000  1.0 0.5792340993
C  C115  1  0.84850000  0.94670000  0.00500000  1.0 0.5497391464
C  C116  1  0.15150000  0.44670000  0.99500000  1.0 0.5497391464
C  C117  1  0.56390000  0.79560000  0.93700000  1.0 -0.0116080464
C  C118  1  0.43610000  0.29560000  0.06300000  1.0 -0.0116080464
C  C119  1  0.60450000  0.79290000  0.89280000  1.0 -0.0491397401
C  C120  1  0.39550000  0.29290000  0.10720000  1.0 -0.0491397401
C  C121  1  0.55270000  0.78800000  0.84430000  1.0 0.5619544777
C  C122  1  0.44730000  0.28800000  0.15570000  1.0 0.5619544777
C  C123  1  0.89500000  0.82300000  0.91350000  1.0 0.5619544777
C  C124  1  0.10500000  0.32300000  0.08650000  1.0 0.5619544777
C  C125  1  0.83760000  0.78480000  0.91610000  1.0 -0.0491397401
C  C126  1  0.16240000  0.28480000  0.08390000  1.0 -0.0390790506
C  C127  1  0.87420000  0.74040000  0.93010000  1.0 0.010802398
C  C128  1  0.12580000  0.24040000  0.06990000  1.0 0.010802398
C  C129  1  0.93640000  0.72390000  0.89990000  1.0 0.532238734
C  C130  1  0.06360000  0.22390000  0.10010000  1.0 0.532238734
C  C131  1  0.84700000  0.60410000  0.95820000  1.0 0.4619302823
C  C132  1  0.15300000  0.10410000  0.04180000  1.0 0.4619302823
C  C133  1  0.49200000  0.66210000  0.91030000  1.0 0.4288009564
C  C134  1  0.50800000  0.16210000  0.08970000  1.0 0.4288009564
C  C135  1  0.73280000  0.69500000  0.78000000  1.0 -0.0390790506
C  C136  1  0.26720000  0.19500000  0.22000000  1.0 -0.0390790506
C  C137  1  0.76860000  0.64930000  0.78050000  1.0 0.5792340993
C  C138  1  0.23140000  0.14930000  0.21950000  1.0 0.5792340993
C  C139  1  0.52730000  0.72320000  0.58370000  1.0 -0.0116080464
C  C140  1  0.47270000  0.22320000  0.41630000  1.0 -0.0116080464
C  C141  1  0.47120000  0.72690000  0.62120000  1.0 0.5792340993
C  C142  1  0.52880000  0.22690000  0.37880000  1.0 0.5792340993
C  C143  1  0.59450000  0.75720000  0.58460000  1.0 -0.0024234392
C  C144  1  0.40550000  0.25720000  0.41540000  1.0 -0.0024234392
C  C145  1  0.56280000  0.80380000  0.58040000  1.0 0.532238734
C  C146  1  0.43720000  0.30380000  0.41960000  1.0 0.5403739969
C  C147  1  0.86380000  0.72920000  0.66250000  1.0 0.5403739969
C  C148  1  0.13620000  0.22920000  0.33750000  1.0 0.5403739969
C  C149  1  0.80940000  0.72410000  0.61530000  1.0 -0.0116080464
C  C150  1  0.19060000  0.22410000  0.38470000  1.0 -0.0116080464
C  C151  1  0.85080000  0.71150000  0.57270000  1.0 0.0188305114
C  C152  1  0.14920000  0.21150000  0.42730000  1.0 0.0188305114
C  C153  1  0.91940000  0.74120000  0.56230000  1.0 0.5104638539
C  C154  1  0.08060000  0.24120000  0.43770000  1.0 0.5104638539
C  C155  1  0.83420000  0.68580000  0.42790000  1.0 0.4707645472
C  C156  1  0.16580000  0.18580000  0.57210000  1.0 0.4707645472
C  C157  1  0.48400000  0.73990000  0.42160000  1.0 0.4619302823
C  C158  1  0.51600000  0.23990000  0.57840000  1.0 0.4619302823
C  C159  1  0.68100000  0.75790000  0.34740000  1.0 0.4805908578
C  C160  1  0.31900000  0.25790000  0.65260000  1.0 0.4805908578
C  C161  1  0.60350000  0.02790000  0.50390000  1.0 -0.0209286741
C  C162  1  0.39650000  0.52790000  0.49610000  1.0 -0.0209286741
C  C163  1  0.65600000  0.02670000  0.55240000  1.0 0.0033932311
C  C164  1  0.34400000  0.52670000  0.44760000  1.0 0.0033932311
C  C165  1  0.61460000  0.03240000  0.59630000  1.0 0.5673202931
C  C166  1  0.38540000  0.53240000  0.40370000  1.0 0.5673202931
C  C167  1  0.54040000  0.99160000  0.49470000  1.0 0.5792340993
C  C168  1  0.45960000  0.49160000  0.50530000  1.0 0.5792340993
C  C169  1  0.94310000  0.18220000  0.52390000  1.0 0.4805908578
C  C170  1  0.05690000  0.68220000  0.47610000  1.0 0.4805908578
C  C171  1  0.57870000  0.16140000  0.52020000  1.0 0.4707645472
C  C172  1  0.42130000  0.66140000  0.47980000  1.0 0.4707645472
C  C173  1  0.77000000  0.25230000  0.57220000  1.0 0.5104638539
C  C174  1  0.23000000  0.75230000  0.42780000  1.0 0.5215306313
C  C175  1  0.51430000  0.83700000  0.93980000  1.0 0.5215306313
C  C176  1  0.48570000  0.33700000  0.06020000  1.0 0.5215306313
O  O1  1  0.41300000  0.06100000  0.86290000  1.0 0.2510539601
O  O2  1  0.58700000  0.56100000  0.13710000  1.0 0.2510539601
O  O3  1  0.64390000  0.56830000  0.93030000  1.0 -0.429218485
O  O4  1  0.35610000  0.06830000  0.06970000  1.0 -0.429218485
O  O5  1  0.62400000  0.51310000  0.88020000  1.0 -0.5393203348
O  O6  1  0.37600000  0.01310000  0.11980000  1.0 -0.5393203348
O  O7  1  0.78820000  0.91230000  0.27910000  1.0 -0.6695002457
O  O8  1  0.21180000  0.41230000  0.72090000  1.0 -0.6635788819
O  O9  1  0.79130000  0.97420000  0.31950000  1.0 -0.5189074097
O  O10  1  0.20870000  0.47420000  0.68050000  1.0 -0.5189074097
O  O11  1  0.82300000  0.28550000  0.81340000  1.0 -0.4889482417
O  O12  1  0.17700000  0.78550000  0.18660000  1.0 -0.4889482417
O  O13  1  0.77300000  0.33500000  0.76060000  1.0 -0.5296019047
O  O14  1  0.22700000  0.83500000  0.23940000  1.0 -0.5189074097
O  O15  1  0.77280000  0.82480000  0.14710000  1.0 -0.5114433927
O  O16  1  0.22720000  0.32480000  0.85290000  1.0 -0.5114433927
O  O17  1  0.78100000  0.89000000  0.18100000  1.0 -0.6384745976
O  O18  1  0.21900000  0.39000000  0.81900000  1.0 -0.6384745976
O  O19  1  0.78020000  0.09650000  0.09540000  1.0 -0.4513102148
O  O20  1  0.21980000  0.59650000  0.90460000  1.0 -0.4513102148
O  O21  1  0.79990000  0.05010000  0.15600000  1.0 -0.5189074097
O  O22  1  0.20010000  0.55010000  0.84400000  1.0 -0.5114433927
O  O23  1  0.77240000  0.23770000  0.53000000  1.0 -0.4513102148
O  O24  1  0.22760000  0.73770000  0.47000000  1.0 -0.4513102148
O  O25  1  0.78800000  0.29280000  0.58090000  1.0 -0.6162482341
O  O26  1  0.21200000  0.79280000  0.41910000  1.0 -0.6162482341
O  O27  1  0.44110000  0.83890000  0.91400000  1.0 -0.411179692
O  O28  1  0.55890000  0.33890000  0.08600000  1.0 -0.411179692
O  O29  1  0.77510000  0.14730000  0.56050000  1.0 -0.8410425624
O  O30  1  0.22490000  0.64730000  0.43950000  1.0 -0.8410425624
O  O31  1  0.73310000  0.11900000  0.46780000  1.0 -0.5494103592
O  O32  1  0.26690000  0.61900000  0.53220000  1.0 -0.5494103592
O  O33  1  0.87470000  0.07990000  0.53790000  1.0 -0.5114433927
O  O34  1  0.12530000  0.57990000  0.46210000  1.0 -0.5189074097
O  O35  1  0.96840000  0.08530000  0.61800000  1.0 -0.5114433927
O  O36  1  0.03160000  0.58530000  0.38200000  1.0 -0.5114433927
O  O37  1  0.05720000  0.03700000  0.59940000  1.0 -0.399656578
O  O38  1  0.94280000  0.53700000  0.40060000  1.0 -0.399656578
O  O39  1  0.82320000  0.00020000  0.51420000  1.0 -0.5393203348
O  O40  1  0.17680000  0.50020000  0.48580000  1.0 -0.5393203348
O  O41  1  0.76590000  0.97070000  0.42150000  1.0 -0.8488439312
O  O42  1  0.23410000  0.47070000  0.57850000  1.0 -0.8488439312
O  O43  1  0.81980000  0.05700000  0.43240000  1.0 -0.5494103592
O  O44  1  0.18020000  0.55700000  0.56760000  1.0 -0.5494103592
O  O45  1  0.73780000  0.20100000  0.43570000  1.0 -0.5189074097
O  O46  1  0.26220000  0.70100000  0.56430000  1.0 -0.5189074097
O  O47  1  0.72270000  0.18060000  0.36050000  1.0 -0.5189074097
O  O48  1  0.27730000  0.68060000  0.63950000  1.0 -0.5189074097
O  O49  1  0.83260000  0.06460000  0.34260000  1.0 -0.5575064494
O  O50  1  0.16740000  0.56460000  0.65740000  1.0 -0.5575064494
O  O51  1  0.88040000  0.13220000  0.34760000  1.0 -0.378042615
O  O52  1  0.11960000  0.63220000  0.65240000  1.0 -0.378042615
O  O53  1  0.92540000  0.99620000  0.38750000  1.0 -0.460494625
O  O54  1  0.07460000  0.49620000  0.61250000  1.0 -0.460494625
O  O55  1  0.94050000  0.95930000  0.45420000  1.0 -0.4513102148
O  O56  1  0.05950000  0.45930000  0.54580000  1.0 -0.4513102148
O  O57  1  0.68340000  0.03240000  0.35000000  1.0 -0.411179692
O  O58  1  0.31660000  0.53240000  0.65000000  1.0 -0.411179692
O  O59  1  0.59850000  0.98200000  0.37250000  1.0 -0.4674348201
O  O60  1  0.40150000  0.48200000  0.62750000  1.0 -0.4674348201
O  O61  1  0.72290000  0.92910000  0.49290000  1.0 -0.5393203348
O  O62  1  0.27710000  0.42910000  0.50710000  1.0 -0.5393203348
O  O63  1  0.63220000  0.90170000  0.41370000  1.0 -0.460494625
O  O64  1  0.36780000  0.40170000  0.58630000  1.0 -0.460494625
O  O65  1  0.61130000  0.83570000  0.44180000  1.0 -0.5189074097
O  O66  1  0.38870000  0.33570000  0.55820000  1.0 -0.5114433927
O  O67  1  0.68740000  0.74870000  0.45600000  1.0 -0.8410425624
O  O68  1  0.31260000  0.24870000  0.54400000  1.0 -0.8410425624
O  O69  1  0.62820000  0.66666667  0.48490000  1.0 -0.5768691441
O  O70  1  0.37180000  0.16660000  0.51510000  1.0 -0.5768691441
O  O71  1  0.74350000  0.69410000  0.61780000  1.0 -0.5393203348
O  O72  1  0.25650000  0.19410000  0.38220000  1.0 -0.5393203348
O  O73  1  0.66690000  0.62170000  0.64740000  1.0 -0.8303666105
O  O74  1  0.33310000  0.12170000  0.35260000  1.0 -0.8303666105
O  O75  1  0.69830000  0.61870000  0.55460000  1.0 -0.5296019047
O  O76  1  0.30170000  0.11870000  0.44540000  1.0 -0.5393203348
O  O77  1  0.67840000  0.53440000  0.54970000  1.0 -0.5768691441
O  O78  1  0.32160000  0.03440000  0.45030000  1.0 -0.5707624396
O  O79  1  0.70580000  0.52990000  0.47620000  1.0 -0.5189074097
O  O80  1  0.29420000  0.02990000  0.52380000  1.0 -0.5189074097
O  O81  1  0.61350000  0.63690000  0.39840000  1.0 -0.5114433927
O  O82  1  0.38650000  0.13690000  0.60160000  1.0 -0.5021653166
O  O83  1  0.57280000  0.57200000  0.41660000  1.0 -0.5114433927
O  O84  1  0.42720000  0.07200000  0.58340000  1.0 -0.5189074097
O  O85  1  0.64270000  0.52360000  0.64110000  1.0 -0.460494625
O  O86  1  0.35730000  0.02360000  0.35890000  1.0 -0.460494625
O  O87  1  0.62200000  0.49060000  0.70550000  1.0 -0.5114433927
O  O88  1  0.37800000  0.99060000  0.29450000  1.0 -0.5114433927
O  O89  1  0.79030000  0.55700000  0.62750000  1.0 -0.5021653166
O  O90  1  0.20970000  0.05700000  0.37250000  1.0 -0.4889482417
O  O91  1  0.85040000  0.61650000  0.66340000  1.0 -0.4513102148
O  O92  1  0.14960000  0.11650000  0.33660000  1.0 -0.4513102148
O  O93  1  0.54640000  0.57770000  0.57460000  1.0 -0.5114433927
O  O94  1  0.45360000  0.07770000  0.42540000  1.0 -0.5114433927
O  O95  1  0.48770000  0.60970000  0.63400000  1.0 -0.4889482417
O  O96  1  0.51230000  0.10970000  0.36600000  1.0 -0.4889482417
O  O97  1  0.66360000  0.69160000  0.69770000  1.0 -0.5114433927
O  O98  1  0.33640000  0.19160000  0.30230000  1.0 -0.5114433927
O  O99  1  0.55860000  0.63820000  0.72470000  1.0 -0.4889482417
O  O100  1  0.44140000  0.13820000  0.27530000  1.0 -0.4889482417
O  O101  1  0.57650000  0.66050000  0.79770000  1.0 -0.4513102148
O  O102  1  0.42350000  0.16050000  0.20230000  1.0 -0.4513102148
O  O103  1  0.68160000  0.65730000  0.89270000  1.0 -0.8488439312
O  O104  1  0.31840000  0.15730000  0.10730000  1.0 -0.8488439312
O  O105  1  0.66480000  0.68960000  0.98320000  1.0 -0.5393203348
O  O106  1  0.33520000  0.18960000  0.01680000  1.0 -0.5393203348
O  O107  1  0.79000000  0.79640000  0.95550000  1.0 -0.5494103592
O  O108  1  0.21000000  0.29640000  0.04450000  1.0 -0.5494103592
O  O109  1  0.75330000  0.83330000  0.03930000  1.0 -0.8410425624
O  O110  1  0.24670000  0.33333333  0.96070000  1.0 -0.8410425624
O  O111  1  0.76540000  0.74230000  0.03510000  1.0 -0.5296019047
O  O112  1  0.23460000  0.24230000  0.96490000  1.0 -0.5296019047
O  O113  1  0.77670000  0.73540000  0.12820000  1.0 -0.4391404355
O  O114  1  0.22330000  0.23540000  0.87180000  1.0 -0.4391404355
O  O115  1  0.78370000  0.66050000  0.12830000  1.0 -0.4674348201
O  O116  1  0.21630000  0.16050000  0.87170000  1.0 -0.4674348201
O  O117  1  0.63070000  0.61330000  0.01410000  1.0 -0.5494103592
O  O118  1  0.36930000  0.11330000  0.98590000  1.0 -0.5494103592
O  O119  1  0.60370000  0.63690000  0.08800000  1.0 -0.3686429327
O  O120  1  0.39630000  0.13690000  0.91200000  1.0 -0.3686429327
O  O121  1  0.89250000  0.79010000  0.09790000  1.0 -0.460494625
O  O122  1  0.10750000  0.29010000  0.90210000  1.0 -0.460494625
O  O123  1  0.93130000  0.82210000  0.03490000  1.0 -0.479985441
O  O124  1  0.06870000  0.32210000  0.96510000  1.0 -0.479985441
O  O125  1  0.63820000  0.78330000  0.09140000  1.0 -0.4513102148
O  O126  1  0.36180000  0.28330000  0.90860000  1.0 -0.4391404355
O  O127  1  0.58400000  0.84230000  0.06010000  1.0 -0.4674348201
O  O128  1  0.41600000  0.34230000  0.93990000  1.0 -0.460494625
O  O129  1  0.72670000  0.87730000  0.96210000  1.0 -0.5393203348
O  O130  1  0.27330000  0.37730000  0.03790000  1.0 -0.5393203348
O  O131  1  0.78850000  0.99220000  0.94390000  1.0 -0.5296019047
O  O132  1  0.21150000  0.49220000  0.05610000  1.0 -0.5296019047
O  O133  1  0.77190000  0.05960000  0.99900000  1.0 -0.8410425624
O  O134  1  0.22810000  0.55960000  0.00100000  1.0 -0.8410425624
O  O135  1  0.74400000  0.14370000  0.96240000  1.0 -0.5393203348
O  O136  1  0.25600000  0.64370000  0.03760000  1.0 -0.5494103592
O  O137  1  0.72060000  0.06650000  0.89900000  1.0 -0.5494103592
O  O138  1  0.27940000  0.56650000  0.10100000  1.0 -0.5494103592
O  O139  1  0.60730000  0.00620000  0.89850000  1.0 -0.5114433927
O  O140  1  0.39270000  0.50620000  0.10150000  1.0 -0.5189074097
O  O141  1  0.56010000  0.01530000  0.82170000  1.0 -0.479985441
O  O142  1  0.43990000  0.51530000  0.17830000  1.0 -0.479985441
O  O143  1  0.68860000  0.14070000  0.85060000  1.0 -0.5296019047
O  O144  1  0.31140000  0.64070000  0.14940000  1.0 -0.5296019047
O  O145  1  0.80120000  0.18750000  0.80840000  1.0 -0.8303666105
O  O146  1  0.19880000  0.68750000  0.19160000  1.0 -0.8303666105
O  O147  1  0.83390000  0.18390000  0.90750000  1.0 -0.5494103592
O  O148  1  0.16610000  0.68390000  0.09250000  1.0 -0.5494103592
O  O149  1  0.74770000  0.17740000  0.04860000  1.0 -0.4210761091
O  O150  1  0.25230000  0.67740000  0.95140000  1.0 -0.4210761091
O  O151  1  0.72500000  0.24200000  0.01880000  1.0 -0.3004896284
O  O152  1  0.27500000  0.74200000  0.98120000  1.0 -0.3004896284
O  O153  1  0.85180000  0.26790000  0.91500000  1.0 -0.5494103592
O  O154  1  0.14820000  0.76790000  0.08500000  1.0 -0.5494103592
O  O155  1  0.85900000  0.26880000  0.99400000  1.0 -0.3455803435
O  O156  1  0.14100000  0.76880000  0.00600000  1.0 -0.3447569748
O  O157  1  0.95200000  0.23140000  0.85450000  1.0 -0.4513102148
O  O158  1  0.04800000  0.73140000  0.14550000  1.0 -0.4513102148
O  O159  1  0.97920000  0.16950000  0.82330000  1.0 -0.4513102148
O  O160  1  0.02080000  0.66950000  0.17670000  1.0 -0.4513102148
O  O161  1  0.70510000  0.24750000  0.86050000  1.0 -0.4391404355
O  O162  1  0.29490000  0.74750000  0.13950000  1.0 -0.4391404355
O  O163  1  0.63570000  0.22040000  0.79630000  1.0 -0.411179692
O  O164  1  0.36430000  0.72040000  0.20370000  1.0 -0.411179692
O  O165  1  0.76410000  0.11720000  0.75830000  1.0 -0.5393203348
O  O166  1  0.23590000  0.61720000  0.24170000  1.0 -0.5494103592
O  O167  1  0.80200000  0.09410000  0.63620000  1.0 -0.4889482417
O  O168  1  0.19800000  0.59410000  0.36380000  1.0 -0.4889482417
O  O169  1  0.89860000  0.16170000  0.65100000  1.0 -0.4889482417
O  O170  1  0.10140000  0.66170000  0.34900000  1.0 -0.4889482417
O  O171  1  0.89630000  0.16270000  0.72920000  1.0 -0.4674348201
O  O172  1  0.10370000  0.66270000  0.27080000  1.0 -0.4674348201
O  O173  1  0.67770000  0.15620000  0.64170000  1.0 -0.5114433927
O  O174  1  0.32230000  0.65620000  0.35830000  1.0 -0.5114433927
O  O175  1  0.68000000  0.18470000  0.71700000  1.0 -0.429218485
O  O176  1  0.32000000  0.68470000  0.28300000  1.0 -0.429218485
O  O177  1  0.84560000  0.10580000  0.84850000  1.0 -0.5189074097
O  O178  1  0.15440000  0.60580000  0.15150000  1.0 -0.5189074097
O  O179  1  0.87970000  0.08510000  0.93840000  1.0 -0.5393203348
O  O180  1  0.12030000  0.58510000  0.06160000  1.0 -0.5393203348
O  O181  1  0.96890000  0.01480000  0.95650000  1.0 -0.5114433927
O  O182  1  0.03110000  0.51480000  0.04350000  1.0 -0.5114433927
O  O183  1  0.06690000  0.03670000  0.92050000  1.0 -0.3115371084
O  O184  1  0.93310000  0.53670000  0.07950000  1.0 -0.3115371084
O  O185  1  0.93910000  0.08580000  0.78450000  1.0 -0.5296019047
O  O186  1  0.06090000  0.58580000  0.21550000  1.0 -0.5296019047
O  O187  1  0.98790000  0.02550000  0.82140000  1.0 -0.3455803435
O  O188  1  0.01210000  0.52550000  0.17860000  1.0 -0.3455803435
O  O189  1  0.59280000  0.13180000  0.76880000  1.0 -0.479985441
O  O190  1  0.40720000  0.63180000  0.23120000  1.0 -0.479985441
O  O191  1  0.49240000  0.10290000  0.80180000  1.0 -0.4210761091
O  O192  1  0.50760000  0.60290000  0.19820000  1.0 -0.4210761091
O  O193  1  0.63360000  0.10730000  0.02490000  1.0 -0.4391404355
O  O194  1  0.36640000  0.60730000  0.97510000  1.0 -0.4391404355
O  O195  1  0.59680000  0.06670000  0.96520000  1.0 -0.4391404355
O  O196  1  0.40320000  0.56670000  0.03480000  1.0 -0.4391404355
O  O197  1  0.88270000  0.12970000  0.04290000  1.0 -0.429218485
O  O198  1  0.11730000  0.62970000  0.95710000  1.0 -0.429218485
O  O199  1  0.94360000  0.06420000  0.03670000  1.0 -0.5021653166
O  O200  1  0.05640000  0.56420000  0.96330000  1.0 -0.5021653166
O  O201  1  0.65990000  0.98440000  0.99830000  1.0 -0.5393203348
O  O202  1  0.34010000  0.48440000  0.00170000  1.0 -0.5393203348
O  O203  1  0.65200000  0.91550000  0.02530000  1.0 -0.460494625
O  O204  1  0.34800000  0.41550000  0.97470000  1.0 -0.460494625
O  O205  1  0.88070000  0.97860000  0.02660000  1.0 -0.4391404355
O  O206  1  0.11930000  0.47860000  0.97340000  1.0 -0.4391404355
O  O207  1  0.86990000  0.90720000  0.02560000  1.0 -0.5494103592
O  O208  1  0.13010000  0.40720000  0.97440000  1.0 -0.5575064494
O  O209  1  0.63110000  0.79370000  0.97700000  1.0 -0.5296019047
O  O210  1  0.36890000  0.29370000  0.02300000  1.0 -0.5296019047
O  O211  1  0.65540000  0.74890000  0.90110000  1.0 -0.5494103592
O  O212  1  0.34460000  0.24890000  0.09890000  1.0 -0.5494103592
O  O213  1  0.55320000  0.75180000  0.82180000  1.0 -0.5393203348
O  O214  1  0.44680000  0.25180000  0.17820000  1.0 -0.5393203348
O  O215  1  0.52750000  0.82140000  0.82920000  1.0 -0.3902104637
O  O216  1  0.47250000  0.32140000  0.17080000  1.0 -0.3902104637
O  O217  1  0.55080000  0.86690000  0.96330000  1.0 -0.460494625
O  O218  1  0.44920000  0.36690000  0.03670000  1.0 -0.460494625
O  O219  1  0.89670000  0.85350000  0.94220000  1.0 -0.5393203348
O  O220  1  0.10330000  0.35350000  0.05780000  1.0 -0.5393203348
O  O221  1  0.94900000  0.82010000  0.88450000  1.0 -0.5494103592
O  O222  1  0.05100000  0.32010000  0.11550000  1.0 -0.5494103592
O  O223  1  0.81000000  0.71330000  0.93400000  1.0 -0.4674348201
O  O224  1  0.19000000  0.21330000  0.06600000  1.0 -0.4674348201
O  O225  1  0.89050000  0.69430000  0.86710000  1.0 -0.5494103592
O  O226  1  0.10950000  0.19430000  0.13290000  1.0 -0.5494103592
O  O227  1  0.00690000  0.73420000  0.89930000  1.0 -0.3902104637
O  O228  1  0.99310000  0.23420000  0.10070000  1.0 -0.3902104637
O  O229  1  0.77640000  0.61320000  0.97910000  1.0 -0.5189074097
O  O230  1  0.22360000  0.11320000  0.02090000  1.0 -0.5189074097
O  O231  1  0.84720000  0.61860000  0.91510000  1.0 -0.460494625
O  O232  1  0.15280000  0.11860000  0.08490000  1.0 -0.460494625
O  O233  1  0.53570000  0.63380000  0.93600000  1.0 -0.5114433927
O  O234  1  0.46430000  0.13380000  0.06400000  1.0 -0.5114433927
O  O235  1  0.50580000  0.69050000  0.88120000  1.0 -0.4513102148
O  O236  1  0.49420000  0.19050000  0.11880000  1.0 -0.4513102148
O  O237  1  0.72440000  0.70770000  0.82860000  1.0 -0.5393203348
O  O238  1  0.27560000  0.20770000  0.17140000  1.0 -0.5393203348
O  O239  1  0.77690000  0.63020000  0.74110000  1.0 -0.5296019047
O  O240  1  0.22310000  0.13020000  0.25890000  1.0 -0.5296019047
O  O241  1  0.78600000  0.62990000  0.82170000  1.0 -0.4889482417
O  O242  1  0.21400000  0.12990000  0.17830000  1.0 -0.4889482417
O  O243  1  0.57590000  0.68300000  0.59070000  1.0 -0.5494103592
O  O244  1  0.42410000  0.18300000  0.40930000  1.0 -0.5494103592
O  O245  1  0.49290000  0.70290000  0.65860000  1.0 -0.5114433927
O  O246  1  0.50710000  0.20290000  0.34140000  1.0 -0.5114433927
O  O247  1  0.41460000  0.75250000  0.61570000  1.0 -0.479985441
O  O248  1  0.58540000  0.25250000  0.38430000  1.0 -0.479985441
O  O249  1  0.63630000  0.74560000  0.54620000  1.0 -0.5393203348
O  O250  1  0.36370000  0.24560000  0.45380000  1.0 -0.5393203348
O  O251  1  0.56690000  0.82250000  0.53740000  1.0 -0.5575064494
O  O252  1  0.43310000  0.32250000  0.46260000  1.0 -0.5575064494
O  O253  1  0.52810000  0.82520000  0.60960000  1.0 -0.2828158578
O  O254  1  0.47190000  0.32520000  0.39040000  1.0 -0.2828158578
O  O255  1  0.84760000  0.70140000  0.69450000  1.0 -0.5189074097
O  O256  1  0.15240000  0.20140000  0.30550000  1.0 -0.5189074097
O  O257  1  0.91070000  0.75770000  0.67000000  1.0 -0.378042615
O  O258  1  0.08930000  0.25770000  0.33000000  1.0 -0.378042615
O  O259  1  0.78770000  0.71030000  0.53530000  1.0 -0.5189074097
O  O260  1  0.21230000  0.21030000  0.46470000  1.0 -0.5114433927
O  O261  1  0.90080000  0.77020000  0.53040000  1.0 -0.460494625
O  O262  1  0.09920000  0.27020000  0.46960000  1.0 -0.460494625
O  O263  1  0.98970000  0.73570000  0.58190000  1.0 -0.3686429327
O  O264  1  0.01030000  0.23570000  0.41810000  1.0 -0.3686429327
O  O265  1  0.76980000  0.66790000  0.42710000  1.0 -0.4391404355
O  O266  1  0.23020000  0.16790000  0.57290000  1.0 -0.429218485
O  O267  1  0.85620000  0.72520000  0.44450000  1.0 -0.460494625
O  O268  1  0.14380000  0.22520000  0.55550000  1.0 -0.460494625
O  O269  1  0.53350000  0.71770000  0.40340000  1.0 -0.411179692
O  O270  1  0.46650000  0.21770000  0.59660000  1.0 -0.411179692
O  O271  1  0.51090000  0.76690000  0.46070000  1.0 -0.5393203348
O  O272  1  0.48910000  0.26690000  0.53930000  1.0 -0.5393203348
O  O273  1  0.66470000  0.71300000  0.35580000  1.0 -0.5575064494
O  O274  1  0.33530000  0.21300000  0.64420000  1.0 -0.5575064494
O  O275  1  0.69000000  0.76460000  0.30400000  1.0 -0.5189074097
O  O276  1  0.31000000  0.26460000  0.69600000  1.0 -0.5189074097
O  O277  1  0.73730000  0.81030000  0.51620000  1.0 -0.5296019047
O  O278  1  0.26270000  0.31030000  0.48380000  1.0 -0.5296019047
O  O279  1  0.84640000  0.88460000  0.45110000  1.0 -0.4889482417
O  O280  1  0.15360000  0.38460000  0.54890000  1.0 -0.4889482417
O  O281  1  0.82990000  0.81380000  0.44720000  1.0 -0.411179692
O  O282  1  0.17010000  0.31380000  0.55280000  1.0 -0.411179692
O  O283  1  0.66250000  0.02440000  0.47000000  1.0 -0.5575064494
O  O284  1  0.33750000  0.52440000  0.53000000  1.0 -0.5575064494
O  O285  1  0.71020000  0.06210000  0.55060000  1.0 -0.5494103592
O  O286  1  0.28980000  0.56210000  0.44940000  1.0 -0.5494103592
O  O287  1  0.62120000  0.06790000  0.61670000  1.0 -0.460494625
O  O288  1  0.37880000  0.56790000  0.38330000  1.0 -0.460494625
O  O289  1  0.56950000  0.00200000  0.60760000  1.0 -0.5296019047
O  O290  1  0.43050000  0.50200000  0.39240000  1.0 -0.5296019047
O  O291  1  0.55480000  0.96070000  0.46470000  1.0 -0.5494103592
O  O292  1  0.44520000  0.46070000  0.53530000  1.0 -0.5494103592
O  O293  1  0.47610000  0.99420000  0.50990000  1.0 -0.5994505823
O  O294  1  0.52390000  0.49420000  0.49010000  1.0 -0.5994505823
O  O295  1  0.90180000  0.92990000  0.53810000  1.0 -0.5189074097
O  O296  1  0.09820000  0.42990000  0.46190000  1.0 -0.5189074097
O  O297  1  0.96050000  0.95610000  0.60840000  1.0 -0.399656578
O  O298  1  0.03950000  0.45610000  0.39160000  1.0 -0.399656578
O  O299  1  0.87650000  0.18050000  0.49270000  1.0 -0.4674348201
O  O300  1  0.12350000  0.68050000  0.50730000  1.0 -0.4674348201
O  O301  1  0.95170000  0.16780000  0.56520000  1.0 -0.460494625
O  O302  1  0.04830000  0.66780000  0.43480000  1.0 -0.460494625
O  O303  1  0.63070000  0.18670000  0.50150000  1.0 -0.4889482417
O  O304  1  0.36930000  0.68670000  0.49850000  1.0 -0.4889482417
O  O305  1  0.59500000  0.13320000  0.55090000  1.0 -0.4391404355
O  O306  1  0.40500000  0.63320000  0.44910000  1.0 -0.4391404355
O  O307  1  0.35800000  0.90210000  0.85780000  1.0 -0.3115371084
O  O308  1  0.64200000  0.40210000  0.14220000  1.0 -0.3234594306
O  O309  1  0.38000000  0.74260000  0.72220000  1.0 0.1008415083
O  O310  1  0.62000000  0.24260000  0.27780000  1.0 0.1008415083
O  O311  1  0.50350000  0.08010000  0.68520000  1.0 0.0722354928
O  O312  1  0.49650000  0.58010000  0.31480000  1.0 0.0647211457
O  O313  1  0.51500000  0.91280000  0.59020000  1.0 -0.14960953
O  O314  1  0.48500000  0.41280000  0.40980000  1.0 -0.14960953
O  O315  1  0.62800000  0.86310000  0.31740000  1.0 -0.1199799245
O  O316  1  0.37200000  0.36310000  0.68260000  1.0 -0.1199799245
O  O317  1  0.38100000  0.04160000  0.75910000  1.0 -0.2885136744
O  O318  1  0.61900000  0.54160000  0.24090000  1.0 -0.3004896284
O  O319  1  0.85400000  0.82140000  0.34650000  1.0 -0.2275215726
O  O320  1  0.14600000  0.32140000  0.65350000  1.0 -0.2391912034
O  O321  1  0.30200000  0.80280000  0.54540000  1.0 -0.2828158578
O  O322  1  0.69800000  0.30280000  0.45460000  1.0 -0.273225083
O  O323  1  0.33300000  0.12960000  0.80700000  1.0 -0.0782672194
O  O324  1  0.66700000  0.62960000  0.19300000  1.0 -0.0782672194
O  O325  1  0.53600000  0.90850000  0.83870000  1.0 0.2510539601
O  O326  1  0.46400000  0.40850000  0.16130000  1.0 0.2510539601
O  O327  1  0.47300000  0.95160000  0.92070000  1.0 -0.0209286741
O  O328  1  0.52700000  0.45160000  0.07930000  1.0 -0.0209286741
O  O329  1  0.37740000  0.83640000  0.65850000  1.0 -0.4513102148
O  O330  1  0.62260000  0.33640000  0.34150000  1.0 -0.460494625
O  O331  1  0.09680000  0.84900000  0.00250000  1.0 0.4288009564
O  O332  1  0.90320000  0.34900000  0.99750000  1.0 0.4209852079
O  O333  1  0.05300000  0.93830000  0.97730000  1.0 0.1390325354
O  O334  1  0.94700000  0.43830000  0.02270000  1.0 0.1683460036
O  O335  1  0.50960000  0.20520000  0.69480000  1.0 -0.0209286741
O  O336  1  0.49040000  0.70520000  0.30520000  1.0 -0.0303225271
O  O337  1  0.26800000  0.00260000  0.64630000  1.0 -0.399656578
O  O338  1  0.73200000  0.50260000  0.35370000  1.0 -0.3902104637
O  O339  1  0.93200000  0.93020000  0.85340000  1.0 0.1104193088
O  O340  1  0.06800000  0.43020000  0.14660000  1.0 0.1104193088
O  O341  1  0.11400000  0.95420000  0.87240000  1.0 -0.3115371084
O  O342  1  0.88600000  0.45420000  0.12760000  1.0 -0.327053382
O  O343  1  0.87080000  0.26880000  0.44440000  1.0 -0.411179692
O  O344  1  0.12920000  0.76880000  0.55560000  1.0 -0.4210761091
O  O345  1  0.99990000  0.34680000  0.46300000  1.0 0.0423074287
O  O346  1  0.00010000  0.84680000  0.53700000  1.0 0.0423074287
O  O347  1  0.98020000  0.28350000  0.55150000  1.0 -0.3115371084
O  O348  1  0.01980000  0.78350000  0.44850000  1.0 -0.3115371084
O  O349  1  0.81700000  0.36450000  0.40780000  1.0 -0.5393203348
O  O350  1  0.18300000  0.86450000  0.59220000  1.0 -0.5393203348
O  O351  1  0.11960000  0.72650000  0.66040000  1.0 0.1586687909
O  O352  1  0.88040000  0.22650000  0.33960000  1.0 0.1586687909
O  O353  1  0.22200000  0.16800000  0.72010000  1.0 -0.460494625
O  O354  1  0.77800000  0.66800000  0.27990000  1.0 -0.4674348201
O  O355  1  0.75000000  0.74120000  0.21790000  1.0 -0.1711569717
O  O356  1  0.25000000  0.24120000  0.78210000  1.0 -0.1776979109
O  O357  1  0.58900000  0.86190000  0.19910000  1.0 -0.5707624396
O  O358  1  0.41100000  0.36190000  0.80090000  1.0 -0.5768691441
O  O359  1  0.19020000  0.89510000  0.94850000  1.0 -0.5296019047
O  O360  1  0.80980000  0.39510000  0.05150000  1.0 -0.5189074097
O  O361  1  0.71400000  0.05420000  0.24360000  1.0 -0.1403000494
O  O362  1  0.28600000  0.55420000  0.75640000  1.0 -0.1403000494
O  O363  1  0.86210000  0.20160000  0.23910000  1.0 0.1294827167
O  O364  1  0.13790000  0.70160000  0.76090000  1.0 0.1390325354
O  O365  1  0.03210000  0.19030000  0.21780000  1.0 0.3130061189
O  O366  1  0.96790000  0.69030000  0.78220000  1.0 0.3130061189
O  O367  1  0.85670000  0.19980000  0.12540000  1.0 -0.4391404355
O  O368  1  0.14330000  0.69980000  0.87460000  1.0 -0.429218485
O  O369  1  0.72300000  0.37070000  0.54720000  1.0 -0.460494625
O  O370  1  0.27700000  0.87070000  0.45280000  1.0 -0.460494625
O  O371  1  0.29310000  0.92140000  0.33880000  1.0 -0.5994505823
O  O372  1  0.70690000  0.42140000  0.66120000  1.0 -0.605882003
O  O373  1  0.46240000  0.91450000  0.35750000  1.0 0.1390325354
O  O374  1  0.53760000  0.41450000  0.64250000  1.0 0.1390325354
O  O375  1  0.68300000  0.27510000  0.67660000  1.0 -0.5114433927
O  O376  1  0.31700000  0.77510000  0.32340000  1.0 -0.5114433927
O  O377  1  0.06120000  0.77330000  0.73080000  1.0 -0.0558344973
O  O378  1  0.93880000  0.27330000  0.26920000  1.0 -0.0558344973
O  O379  1  0.33400000  0.76720000  0.89340000  1.0 -0.3115371084
O  O380  1  0.66600000  0.26720000  0.10660000  1.0 -0.3115371084
O  O381  1  0.33200000  0.79810000  0.80020000  1.0 0.1954676816
O  O382  1  0.66800000  0.29810000  0.19980000  1.0 0.185365946
O  O383  1  0.35200000  0.71070000  0.80380000  1.0 0.3427571962
O  O384  1  0.64800000  0.21070000  0.19620000  1.0 0.3427571962
O  O385  1  0.44800000  0.20600000  0.86510000  1.0 -0.0491397401
O  O386  1  0.55200000  0.70600000  0.13490000  1.0 -0.0491397401
O  O387  1  0.17000000  0.92120000  0.04290000  1.0 -0.1403000494
O  O388  1  0.83000000  0.42120000  0.95710000  1.0 -0.1403000494
O  O389  1  0.19500000  0.90610000  0.00600000  1.0 0.3766234974
O  O390  1  0.80500000  0.40610000  0.99400000  1.0 0.3626651028
O  O391  1  0.40400000  0.88530000  0.82470000  1.0 0.278129817
O  O392  1  0.59600000  0.38530000  0.17530000  1.0 0.3130061189
O  O393  1  0.68490000  0.36890000  0.60360000  1.0 -0.4391404355
O  O394  1  0.31510000  0.86890000  0.39640000  1.0 -0.4391404355
