# DDEC6 charges by PACMAN v1.1 (https://github.com/mtap-research/PACMAN-charge/)
data_JUFTAI_ASR_pacman
_symmetry_space_group_name_H-M   'P 1'
_cell_length_a   10.00200000
_cell_length_b   24.53100000
_cell_length_c   38.10500000
_cell_angle_alpha   90.00000000
_cell_angle_beta   90.00000000
_cell_angle_gamma   90.00000000
_symmetry_Int_Tables_number   1
_chemical_formula_structural   Co4H48C81(NO2)9
_chemical_formula_sum   'Co16 H192 C324 N36 O72'
_cell_volume   9349.40705751
_cell_formula_units_Z   4
loop_
 _symmetry_equiv_pos_site_id
 _symmetry_equiv_pos_as_xyz
  1  'x, y, z'
loop_
 _atom_site_type_symbol
 _atom_site_label
 _atom_site_symmetry_multiplicity
 _atom_site_fract_x
 _atom_site_fract_y
 _atom_site_fract_z
 _atom_site_occupancy
 _atom_site_charge
Co  Co1  1  0.03515000  0.00326000  0.37383000  1.0 0.7122571468
Co  Co2  1  0.35827000  0.25060000  0.25619000  1.0 0.6875733584
Co  Co3  1  0.10140000  0.49644000  0.37321000  1.0 0.2928843572
Co  Co4  1  0.97020000  0.49791000  0.37453000  1.0 0.2713598758
Co  Co5  1  0.96485000  0.99674000  0.87383000  1.0 0.7122571468
Co  Co6  1  0.64173000  0.74940000  0.75619000  1.0 0.6875733584
Co  Co7  1  0.89860000  0.50356000  0.87321000  1.0 0.2928843572
Co  Co8  1  0.02980000  0.50209000  0.87453000  1.0 0.2713598758
Co  Co9  1  0.96485000  0.00326000  0.12617000  1.0 0.7122571468
Co  Co10  1  0.64173000  0.25060000  0.24381000  1.0 0.6875733584
Co  Co11  1  0.89860000  0.49644000  0.12679000  1.0 0.2928843572
Co  Co12  1  0.02980000  0.49791000  0.12547000  1.0 0.2713598758
Co  Co13  1  0.03515000  0.99674000  0.62617000  1.0 0.7122571468
Co  Co14  1  0.35827000  0.74940000  0.74381000  1.0 0.6875733584
Co  Co15  1  0.10140000  0.50356000  0.62679000  1.0 0.2928843572
Co  Co16  1  0.97020000  0.50209000  0.62547000  1.0 0.2713598758
H  H1  1  0.87540000  0.09250000  0.60640000  1.0 0.0999481874
H  H2  1  0.73050000  0.12210000  0.31650000  1.0 0.1289034113
H  H3  1  0.33210000  0.10810000  0.32710000  1.0 0.1201564861
H  H4  1  0.57600000  0.00260000  0.37420000  1.0 0.1289034113
H  H5  1  0.40300000  0.39130000  0.32540000  1.0 0.0999481874
H  H6  1  0.79460000  0.37160000  0.31890000  1.0 0.068390233
H  H7  1  0.64460000  0.49770000  0.37250000  1.0 0.0999481874
H  H8  1  0.00440000  0.24770000  0.56280000  1.0 0.1100334252
H  H9  1  0.04880000  0.25170000  0.44250000  1.0 0.0895778891
H  H10  1  0.18680000  0.10520000  0.39250000  1.0 0.1100334252
H  H11  1  0.19340000  0.17720000  0.43080000  1.0 0.1289034113
H  H12  1  0.90630000  0.10510000  0.48490000  1.0 0.1289034113
H  H13  1  0.92370000  0.03170000  0.44640000  1.0 0.0999481874
H  H14  1  0.18610000  0.04350000  0.56260000  1.0 0.1100334252
H  H15  1  0.19940000  0.11840000  0.52630000  1.0 0.1289034113
H  H16  1  0.85990000  0.16750000  0.56960000  1.0 0.1289034113
H  H17  1  0.26500000  0.44920000  0.56500000  1.0 0.0999481874
H  H18  1  0.24300000  0.37880000  0.52520000  1.0 0.0895778891
H  H19  1  0.88940000  0.33680000  0.56820000  1.0 0.0895778891
H  H20  1  0.91030000  0.40910000  0.60670000  1.0 0.0799949782
H  H21  1  0.26010000  0.38920000  0.39530000  1.0 0.0408282771
H  H22  1  0.21530000  0.31700000  0.43170000  1.0 0.0799949782
H  H23  1  0.93920000  0.40260000  0.48290000  1.0 0.0895778891
H  H24  1  0.98540000  0.47300000  0.44600000  1.0 0.0486622296
H  H25  1  0.05690000  0.75030000  0.30740000  1.0 0.1201564861
H  H26  1  0.19780000  0.90820000  0.34920000  1.0 0.1100334252
H  H27  1  0.19370000  0.83350000  0.31420000  1.0 0.1289034113
H  H28  1  0.85890000  0.88490000  0.27310000  1.0 0.1289034113
H  H29  1  0.86110000  0.95780000  0.31050000  1.0 0.0999481874
H  H30  1  0.94280000  0.53370000  0.30670000  1.0 0.06202389
H  H31  1  0.90770000  0.60870000  0.27170000  1.0 0.0895778891
H  H32  1  0.23300000  0.67470000  0.31310000  1.0 0.0895778891
H  H33  1  0.27230000  0.59960000  0.34720000  1.0 0.0486622296
H  H34  1  0.13740000  0.46790000  0.55340000  1.0 0.068390233
H  H35  1  0.12910000  0.39610000  0.51450000  1.0 0.0799949782
H  H36  1  0.83210000  0.32840000  0.56970000  1.0 0.0799949782
H  H37  1  0.80790000  0.41120000  0.59770000  1.0 0.0486622296
H  H38  1  0.15270000  0.39960000  0.39580000  1.0 0.0999481874
H  H39  1  0.10300000  0.31440000  0.41920000  1.0 0.0895778891
H  H40  1  0.84240000  0.38350000  0.48310000  1.0 0.0799949782
H  H41  1  0.85630000  0.46170000  0.44860000  1.0 0.06202389
H  H42  1  0.80190000  0.54830000  0.30960000  1.0 0.068390233
H  H43  1  0.79760000  0.63390000  0.28370000  1.0 0.0999481874
H  H44  1  0.16610000  0.66610000  0.31540000  1.0 0.0999481874
H  H45  1  0.16970000  0.58250000  0.34470000  1.0 0.1100334252
H  H46  1  0.27340000  0.38780000  0.32420000  1.0 0.0799949782
H  H47  1  0.67480000  0.37430000  0.32100000  1.0 0.0999481874
H  H48  1  0.50390000  0.49890000  0.37300000  1.0 0.1100334252
H  H49  1  0.12460000  0.90750000  0.10640000  1.0 0.0999481874
H  H50  1  0.26950000  0.87790000  0.81650000  1.0 0.1289034113
H  H51  1  0.66790000  0.89190000  0.82710000  1.0 0.1201564861
H  H52  1  0.42400000  0.99740000  0.87420000  1.0 0.1289034113
H  H53  1  0.59700000  0.60870000  0.82540000  1.0 0.0999481874
H  H54  1  0.20540000  0.62840000  0.81890000  1.0 0.068390233
H  H55  1  0.35540000  0.50230000  0.87250000  1.0 0.0999481874
H  H56  1  0.99560000  0.75230000  0.06280000  1.0 0.1100334252
H  H57  1  0.95120000  0.74830000  0.94250000  1.0 0.0895778891
H  H58  1  0.81320000  0.89480000  0.89250000  1.0 0.1100334252
H  H59  1  0.80660000  0.82280000  0.93080000  1.0 0.1289034113
H  H60  1  0.09370000  0.89490000  0.98490000  1.0 0.1289034113
H  H61  1  0.07630000  0.96830000  0.94640000  1.0 0.0999481874
H  H62  1  0.81390000  0.95650000  0.06260000  1.0 0.1100334252
H  H63  1  0.80060000  0.88160000  0.02630000  1.0 0.1289034113
H  H64  1  0.14010000  0.83250000  0.06960000  1.0 0.1289034113
H  H65  1  0.73500000  0.55080000  0.06500000  1.0 0.0999481874
H  H66  1  0.75700000  0.62120000  0.02520000  1.0 0.0895778891
H  H67  1  0.11060000  0.66320000  0.06820000  1.0 0.0895778891
H  H68  1  0.08970000  0.59090000  0.10670000  1.0 0.0799949782
H  H69  1  0.73990000  0.61080000  0.89530000  1.0 0.0408282771
H  H70  1  0.78470000  0.68300000  0.93170000  1.0 0.0799949782
H  H71  1  0.06080000  0.59740000  0.98290000  1.0 0.0895778891
H  H72  1  0.01460000  0.52700000  0.94600000  1.0 0.0486622296
H  H73  1  0.94310000  0.24970000  0.80740000  1.0 0.1201564861
H  H74  1  0.80220000  0.09180000  0.84920000  1.0 0.1100334252
H  H75  1  0.80630000  0.16650000  0.81420000  1.0 0.1289034113
H  H76  1  0.14110000  0.11510000  0.77310000  1.0 0.1289034113
H  H77  1  0.13890000  0.04220000  0.81050000  1.0 0.0999481874
H  H78  1  0.05720000  0.46630000  0.80670000  1.0 0.06202389
H  H79  1  0.09230000  0.39130000  0.77170000  1.0 0.0895778891
H  H80  1  0.76700000  0.32530000  0.81310000  1.0 0.0895778891
H  H81  1  0.72770000  0.40040000  0.84720000  1.0 0.0486622296
H  H82  1  0.86260000  0.53210000  0.05340000  1.0 0.068390233
H  H83  1  0.87090000  0.60390000  0.01450000  1.0 0.0799949782
H  H84  1  0.16790000  0.67160000  0.06970000  1.0 0.0799949782
H  H85  1  0.19210000  0.58880000  0.09770000  1.0 0.0486622296
H  H86  1  0.84730000  0.60040000  0.89580000  1.0 0.0999481874
H  H87  1  0.89700000  0.68560000  0.91920000  1.0 0.0895778891
H  H88  1  0.15760000  0.61650000  0.98310000  1.0 0.0799949782
H  H89  1  0.14370000  0.53830000  0.94860000  1.0 0.06202389
H  H90  1  0.19810000  0.45170000  0.80960000  1.0 0.068390233
H  H91  1  0.20240000  0.36610000  0.78370000  1.0 0.0999481874
H  H92  1  0.83390000  0.33390000  0.81540000  1.0 0.0999481874
H  H93  1  0.83030000  0.41750000  0.84470000  1.0 0.1100334252
H  H94  1  0.72660000  0.61220000  0.82420000  1.0 0.0799949782
H  H95  1  0.32520000  0.62570000  0.82100000  1.0 0.0999481874
H  H96  1  0.49610000  0.50110000  0.87300000  1.0 0.1100334252
H  H97  1  0.12460000  0.09250000  0.89360000  1.0 0.0999481874
H  H98  1  0.26950000  0.12210000  0.18350000  1.0 0.1289034113
H  H99  1  0.66790000  0.10810000  0.17290000  1.0 0.1201564861
H  H100  1  0.42400000  0.00260000  0.12580000  1.0 0.1289034113
H  H101  1  0.59700000  0.39130000  0.17460000  1.0 0.0999481874
H  H102  1  0.20540000  0.37160000  0.18110000  1.0 0.068390233
H  H103  1  0.35540000  0.49770000  0.12750000  1.0 0.0999481874
H  H104  1  0.99560000  0.24770000  0.93720000  1.0 0.1100334252
H  H105  1  0.95120000  0.25170000  0.05750000  1.0 0.0895778891
H  H106  1  0.81320000  0.10520000  0.10750000  1.0 0.1100334252
H  H107  1  0.80660000  0.17720000  0.06920000  1.0 0.1289034113
H  H108  1  0.09370000  0.10510000  0.01510000  1.0 0.1289034113
H  H109  1  0.07630000  0.03170000  0.05360000  1.0 0.0999481874
H  H110  1  0.81390000  0.04350000  0.93740000  1.0 0.1100334252
H  H111  1  0.80060000  0.11840000  0.97370000  1.0 0.1289034113
H  H112  1  0.14010000  0.16750000  0.93040000  1.0 0.1289034113
H  H113  1  0.73500000  0.44920000  0.93500000  1.0 0.0999481874
H  H114  1  0.75700000  0.37880000  0.97480000  1.0 0.0895778891
H  H115  1  0.11060000  0.33680000  0.93180000  1.0 0.0895778891
H  H116  1  0.08970000  0.40910000  0.89330000  1.0 0.0799949782
H  H117  1  0.73990000  0.38920000  0.10470000  1.0 0.0408282771
H  H118  1  0.78470000  0.31700000  0.06830000  1.0 0.0799949782
H  H119  1  0.06080000  0.40260000  0.01710000  1.0 0.0895778891
H  H120  1  0.01460000  0.47300000  0.05400000  1.0 0.0486622296
H  H121  1  0.94310000  0.75030000  0.19260000  1.0 0.1100334252
H  H122  1  0.80220000  0.90820000  0.15080000  1.0 0.1100334252
H  H123  1  0.80630000  0.83350000  0.18580000  1.0 0.1289034113
H  H124  1  0.14110000  0.88490000  0.22690000  1.0 0.1289034113
H  H125  1  0.13890000  0.95780000  0.18950000  1.0 0.0999481874
H  H126  1  0.05720000  0.53370000  0.19330000  1.0 0.06202389
H  H127  1  0.09230000  0.60870000  0.22830000  1.0 0.0895778891
H  H128  1  0.76700000  0.67470000  0.18690000  1.0 0.0895778891
H  H129  1  0.72770000  0.59960000  0.15280000  1.0 0.0486622296
H  H130  1  0.86260000  0.46790000  0.94660000  1.0 0.068390233
H  H131  1  0.87090000  0.39610000  0.98550000  1.0 0.0799949782
H  H132  1  0.16790000  0.32840000  0.93030000  1.0 0.0799949782
H  H133  1  0.19210000  0.41120000  0.90230000  1.0 0.0486622296
H  H134  1  0.84730000  0.39960000  0.10420000  1.0 0.0999481874
H  H135  1  0.89700000  0.31440000  0.08080000  1.0 0.0895778891
H  H136  1  0.15760000  0.38350000  0.01690000  1.0 0.0799949782
H  H137  1  0.14370000  0.46170000  0.05140000  1.0 0.06202389
H  H138  1  0.19810000  0.54830000  0.19040000  1.0 0.068390233
H  H139  1  0.20240000  0.63390000  0.21630000  1.0 0.0999481874
H  H140  1  0.83390000  0.66610000  0.18460000  1.0 0.0999481874
H  H141  1  0.83030000  0.58250000  0.15530000  1.0 0.1100334252
H  H142  1  0.72660000  0.38780000  0.17580000  1.0 0.0799949782
H  H143  1  0.32520000  0.37430000  0.17900000  1.0 0.0999481874
H  H144  1  0.49610000  0.49890000  0.12700000  1.0 0.1100334252
H  H145  1  0.87540000  0.90750000  0.39360000  1.0 0.0999481874
H  H146  1  0.73050000  0.87790000  0.68350000  1.0 0.1289034113
H  H147  1  0.33210000  0.89190000  0.67290000  1.0 0.1201564861
H  H148  1  0.57600000  0.99740000  0.62580000  1.0 0.1289034113
H  H149  1  0.40300000  0.60870000  0.67460000  1.0 0.0999481874
H  H150  1  0.79460000  0.62840000  0.68110000  1.0 0.068390233
H  H151  1  0.64460000  0.50230000  0.62750000  1.0 0.0999481874
H  H152  1  0.00440000  0.75230000  0.43720000  1.0 0.1100334252
H  H153  1  0.04880000  0.74830000  0.55750000  1.0 0.0895778891
H  H154  1  0.18680000  0.89480000  0.60750000  1.0 0.1100334252
H  H155  1  0.19340000  0.82280000  0.56920000  1.0 0.1289034113
H  H156  1  0.90630000  0.89490000  0.51510000  1.0 0.1289034113
H  H157  1  0.92370000  0.96830000  0.55360000  1.0 0.0999481874
H  H158  1  0.18610000  0.95650000  0.43740000  1.0 0.1100334252
H  H159  1  0.19940000  0.88160000  0.47370000  1.0 0.1289034113
H  H160  1  0.85990000  0.83250000  0.43040000  1.0 0.1289034113
H  H161  1  0.26500000  0.55080000  0.43500000  1.0 0.0999481874
H  H162  1  0.24300000  0.62120000  0.47480000  1.0 0.0895778891
H  H163  1  0.88940000  0.66320000  0.43180000  1.0 0.0895778891
H  H164  1  0.91030000  0.59090000  0.39330000  1.0 0.0799949782
H  H165  1  0.26010000  0.61080000  0.60470000  1.0 0.0408282771
H  H166  1  0.21530000  0.68300000  0.56830000  1.0 0.0799949782
H  H167  1  0.93920000  0.59740000  0.51710000  1.0 0.0895778891
H  H168  1  0.98540000  0.52700000  0.55400000  1.0 0.0486622296
H  H169  1  0.05690000  0.24970000  0.69260000  1.0 0.1201564861
H  H170  1  0.19780000  0.09180000  0.65080000  1.0 0.1100334252
H  H171  1  0.19370000  0.16650000  0.68580000  1.0 0.1289034113
H  H172  1  0.85890000  0.11510000  0.72690000  1.0 0.1289034113
H  H173  1  0.86110000  0.04220000  0.68950000  1.0 0.0999481874
H  H174  1  0.94280000  0.46630000  0.69330000  1.0 0.06202389
H  H175  1  0.90770000  0.39130000  0.72830000  1.0 0.0895778891
H  H176  1  0.23300000  0.32530000  0.68690000  1.0 0.0895778891
H  H177  1  0.27230000  0.40040000  0.65280000  1.0 0.0486622296
H  H178  1  0.13740000  0.53210000  0.44660000  1.0 0.068390233
H  H179  1  0.12910000  0.60390000  0.48550000  1.0 0.0799949782
H  H180  1  0.83210000  0.67160000  0.43030000  1.0 0.0799949782
H  H181  1  0.80790000  0.58880000  0.40230000  1.0 0.0486622296
H  H182  1  0.15270000  0.60040000  0.60420000  1.0 0.0999481874
H  H183  1  0.10300000  0.68560000  0.58080000  1.0 0.0895778891
H  H184  1  0.84240000  0.61650000  0.51690000  1.0 0.0799949782
H  H185  1  0.85630000  0.53830000  0.55140000  1.0 0.06202389
H  H186  1  0.80190000  0.45170000  0.69040000  1.0 0.068390233
H  H187  1  0.79760000  0.36610000  0.71630000  1.0 0.0999481874
H  H188  1  0.16610000  0.33390000  0.68460000  1.0 0.0999481874
H  H189  1  0.16970000  0.41750000  0.65530000  1.0 0.1100334252
H  H190  1  0.27340000  0.61220000  0.67580000  1.0 0.0799949782
H  H191  1  0.67480000  0.62570000  0.67900000  1.0 0.0999481874
H  H192  1  0.50390000  0.50110000  0.62700000  1.0 0.1100334252
C  C1  1  0.88100000  0.45470000  0.35520000  1.0 0.2599239647
C  C2  1  0.94170000  0.09690000  0.58956000  1.0 0.0999481874
C  C3  1  0.81280000  0.04090000  0.35680000  1.0 0.5206956515
C  C4  1  0.51240000  0.17260000  0.29548000  1.0 0.5704405009
C  C5  1  0.31690000  0.01620000  0.36490000  1.0 0.5206956515
C  C6  1  0.67210000  0.05980000  0.34681000  1.0 -0.0227506328
C  C7  1  0.65590000  0.10480000  0.32593000  1.0 -0.1006887481
C  C8  1  0.52870000  0.12490000  0.31883000  1.0 -0.0421533506
C  C9  1  0.41860000  0.09640000  0.33192000  1.0 -0.1006887481
C  C10  1  0.44130000  0.04990000  0.35250000  1.0 -0.0227506328
C  C11  1  0.56380000  0.03300000  0.35992000  1.0 -0.1006887481
C  C12  1  0.38100000  0.48110000  0.36400000  1.0 0.1289034113
C  C13  1  0.56100000  0.32400000  0.29710000  1.0 0.2419479936
C  C14  1  0.50400000  0.44990000  0.35120000  1.0 -0.0109701205
C  C15  1  0.48900000  0.40300000  0.33080000  1.0 -0.0109701205
C  C16  1  0.59400000  0.37330000  0.31860000  1.0 -0.0467560213
C  C17  1  0.72080000  0.39100000  0.32690000  1.0 -0.1812367012
C  C18  1  0.74000000  0.43720000  0.34690000  1.0 0.0486622296
C  C19  1  0.63100000  0.46660000  0.35900000  1.0 -0.1119536666
C  C20  1  0.04000000  0.20150000  0.48389000  1.0 0.0275001345
C  C21  1  0.02350000  0.20090000  0.52022000  1.0 0.0275001345
C  C22  1  0.01680000  0.24850000  0.53866000  1.0 -0.2814184875
C  C23  1  0.02860000  0.29950000  0.52100000  1.0 -0.0018576398
C  C24  1  0.03610000  0.30120000  0.48460000  1.0 0.0097163029
C  C25  1  0.04250000  0.25130000  0.46685000  1.0 -0.2403880337
C  C26  1  0.12860000  0.10540000  0.41157000  1.0 0.06202389
C  C27  1  0.13320000  0.14890000  0.43433000  1.0 -0.2000587136
C  C28  1  0.04740000  0.14940000  0.46217000  1.0 0.1100334252
C  C29  1  0.96670000  0.10630000  0.46635000  1.0 -0.2301942133
C  C30  1  0.97440000  0.06270000  0.44213000  1.0 0.0999481874
C  C31  1  0.11990000  0.06990000  0.56483000  1.0 0.0895778891
C  C32  1  0.12820000  0.11370000  0.54171000  1.0 -0.2301942133
C  C33  1  0.01690000  0.15140000  0.54361000  1.0 0.1100334252
C  C34  1  0.93080000  0.14330000  0.56696000  1.0 -0.2102927758
C  C35  1  0.18980000  0.42690000  0.56550000  1.0 -0.1119536666
C  C36  1  0.17600000  0.38500000  0.54170000  1.0 -0.0905814643
C  C37  1  0.06400000  0.35210000  0.54220000  1.0 0.0408282771
C  C38  1  0.96300000  0.35970000  0.56720000  1.0 -0.0277312475
C  C39  1  0.97800000  0.40240000  0.59040000  1.0 0.06202389
C  C40  1  0.19440000  0.39210000  0.41250000  1.0 -0.1119536666
C  C41  1  0.16500000  0.34870000  0.43430000  1.0 -0.0780132941
C  C42  1  0.06500000  0.34930000  0.46010000  1.0 0.0408282771
C  C43  1  0.00200000  0.39820000  0.46500000  1.0 -0.0716135486
C  C44  1  0.03200000  0.44060000  0.44290000  1.0 0.0275001345
C  C45  1  0.01880000  0.79900000  0.26810000  1.0 0.0408282771
C  C46  1  0.03160000  0.75100000  0.28396000  1.0 -0.2403880337
C  C47  1  0.00900000  0.70220000  0.26700000  1.0 0.0097163029
C  C48  1  0.12660000  0.90350000  0.33377000  1.0 0.068390233
C  C49  1  0.12510000  0.85910000  0.31260000  1.0 -0.2000587136
C  C50  1  0.02680000  0.85170000  0.28983000  1.0 0.0999481874
C  C51  1  0.92910000  0.88890000  0.28895000  1.0 -0.2102927758
C  C52  1  0.93110000  0.93290000  0.31112000  1.0 0.0895778891
C  C53  1  0.00300000  0.56240000  0.30800000  1.0 0.06202389
C  C54  1  0.98100000  0.60740000  0.28660000  1.0 -0.0277312475
C  C55  1  0.07200000  0.65050000  0.28800000  1.0 0.0097163029
C  C56  1  0.17400000  0.64550000  0.31120000  1.0 -0.1006887481
C  C57  1  0.19800000  0.60080000  0.33240000  1.0 -0.1006887481
C  C58  1  0.07600000  0.43990000  0.55670000  1.0 0.0275001345
C  C59  1  0.07400000  0.39590000  0.53430000  1.0 -0.0716135486
C  C60  1  0.99300000  0.35130000  0.54050000  1.0 0.0275001345
C  C61  1  0.89200000  0.35660000  0.56570000  1.0 -0.0905814643
C  C62  1  0.88400000  0.40420000  0.58440000  1.0 -0.1119536666
C  C63  1  0.07700000  0.39340000  0.40940000  1.0 0.0799949782
C  C64  1  0.06200000  0.34590000  0.42750000  1.0 -0.0610977614
C  C65  1  0.98700000  0.34340000  0.45820000  1.0 0.0486622296
C  C66  1  0.90200000  0.38520000  0.46450000  1.0 -0.1336415858
C  C67  1  0.90500000  0.43090000  0.44230000  1.0 -0.0780132941
C  C68  1  0.87200000  0.57290000  0.31220000  1.0 -0.1404112131
C  C69  1  0.87600000  0.62130000  0.29430000  1.0 -0.1710708738
C  C70  1  0.99000000  0.65190000  0.29130000  1.0 0.0408282771
C  C71  1  0.09500000  0.64160000  0.31350000  1.0 -0.0109701205
C  C72  1  0.09300000  0.59370000  0.33290000  1.0 0.068390233
C  C73  1  0.24700000  0.47700000  0.36200000  1.0 0.06202389
C  C74  1  0.45500000  0.32300000  0.29790000  1.0 0.1761306933
C  C75  1  0.74500000  0.45520000  0.35600000  1.0 0.0895778891
C  C76  1  0.36800000  0.44770000  0.35040000  1.0 0.0799949782
C  C77  1  0.35700000  0.40120000  0.33050000  1.0 -0.2592275963
C  C78  1  0.47300000  0.37420000  0.31970000  1.0 -0.0467560213
C  C79  1  0.59800000  0.39250000  0.32830000  1.0 -0.0421533506
C  C80  1  0.60500000  0.43940000  0.34830000  1.0 -0.0109701205
C  C81  1  0.49500000  0.46700000  0.35960000  1.0 -0.0780132941
C  C82  1  0.11900000  0.54530000  0.85520000  1.0 0.2599239647
C  C83  1  0.05830000  0.90310000  0.08956000  1.0 0.0999481874
C  C84  1  0.18720000  0.95910000  0.85680000  1.0 0.5206956515
C  C85  1  0.48760000  0.82740000  0.79548000  1.0 0.5704405009
C  C86  1  0.68310000  0.98380000  0.86490000  1.0 0.5256119817
C  C87  1  0.32790000  0.94020000  0.84681000  1.0 -0.0227506328
C  C88  1  0.34410000  0.89520000  0.82593000  1.0 -0.1006887481
C  C89  1  0.47130000  0.87510000  0.81883000  1.0 -0.0421533506
C  C90  1  0.58140000  0.90360000  0.83192000  1.0 -0.1119536666
C  C91  1  0.55870000  0.95010000  0.85250000  1.0 -0.0227506328
C  C92  1  0.43620000  0.96700000  0.85992000  1.0 -0.1006887481
C  C93  1  0.61900000  0.51890000  0.86400000  1.0 0.1289034113
C  C94  1  0.43900000  0.67600000  0.79710000  1.0 0.2419479936
C  C95  1  0.49600000  0.55010000  0.85120000  1.0 -0.0109701205
C  C96  1  0.51100000  0.59700000  0.83080000  1.0 -0.0109701205
C  C97  1  0.40600000  0.62670000  0.81860000  1.0 -0.0467560213
C  C98  1  0.27920000  0.60900000  0.82690000  1.0 -0.1812367012
C  C99  1  0.26000000  0.56280000  0.84690000  1.0 0.0408282771
C  C100  1  0.36900000  0.53340000  0.85900000  1.0 -0.1119536666
C  C101  1  0.96000000  0.79850000  0.98389000  1.0 0.0275001345
C  C102  1  0.97650000  0.79910000  0.02022000  1.0 0.0275001345
C  C103  1  0.98320000  0.75150000  0.03866000  1.0 -0.2814184875
C  C104  1  0.97140000  0.70050000  0.02100000  1.0 -0.0018576398
C  C105  1  0.96390000  0.69880000  0.98460000  1.0 0.0097163029
C  C106  1  0.95750000  0.74870000  0.96685000  1.0 -0.2403880337
C  C107  1  0.87140000  0.89460000  0.91157000  1.0 0.06202389
C  C108  1  0.86680000  0.85110000  0.93433000  1.0 -0.2000587136
C  C109  1  0.95260000  0.85060000  0.96217000  1.0 0.1100334252
C  C110  1  0.03330000  0.89370000  0.96635000  1.0 -0.2301942133
C  C111  1  0.02560000  0.93730000  0.94213000  1.0 0.0999481874
C  C112  1  0.88010000  0.93010000  0.06483000  1.0 0.0895778891
C  C113  1  0.87180000  0.88630000  0.04171000  1.0 -0.2301942133
C  C114  1  0.98310000  0.84860000  0.04361000  1.0 0.1100334252
C  C115  1  0.06920000  0.85670000  0.06696000  1.0 -0.2102927758
C  C116  1  0.81020000  0.57310000  0.06550000  1.0 -0.1119536666
C  C117  1  0.82400000  0.61500000  0.04170000  1.0 -0.0905814643
C  C118  1  0.93600000  0.64790000  0.04220000  1.0 0.0408282771
C  C119  1  0.03700000  0.64030000  0.06720000  1.0 -0.0277312475
C  C120  1  0.02200000  0.59760000  0.09040000  1.0 0.06202389
C  C121  1  0.80560000  0.60790000  0.91250000  1.0 -0.1119536666
C  C122  1  0.83500000  0.65130000  0.93430000  1.0 -0.0780132941
C  C123  1  0.93500000  0.65070000  0.96010000  1.0 0.0408282771
C  C124  1  0.99800000  0.60180000  0.96500000  1.0 -0.0716135486
C  C125  1  0.96800000  0.55940000  0.94290000  1.0 0.0275001345
C  C126  1  0.98120000  0.20100000  0.76810000  1.0 0.0408282771
C  C127  1  0.96840000  0.24900000  0.78396000  1.0 -0.2403880337
C  C128  1  0.99100000  0.29780000  0.76700000  1.0 0.0097163029
C  C129  1  0.87340000  0.09650000  0.83377000  1.0 0.068390233
C  C130  1  0.87490000  0.14090000  0.81260000  1.0 -0.2000587136
C  C131  1  0.97320000  0.14830000  0.78983000  1.0 0.0999481874
C  C132  1  0.07090000  0.11110000  0.78895000  1.0 -0.2102927758
C  C133  1  0.06890000  0.06710000  0.81112000  1.0 0.0895778891
C  C134  1  0.99700000  0.43760000  0.80800000  1.0 0.06202389
C  C135  1  0.01900000  0.39260000  0.78660000  1.0 -0.0277312475
C  C136  1  0.92800000  0.34950000  0.78800000  1.0 0.0097163029
C  C137  1  0.82600000  0.35450000  0.81120000  1.0 -0.1006887481
C  C138  1  0.80200000  0.39920000  0.83240000  1.0 -0.0905814643
C  C139  1  0.92400000  0.56010000  0.05670000  1.0 0.0275001345
C  C140  1  0.92600000  0.60410000  0.03430000  1.0 -0.0716135486
C  C141  1  0.00700000  0.64870000  0.04050000  1.0 0.0275001345
C  C142  1  0.10800000  0.64340000  0.06570000  1.0 -0.0905814643
C  C143  1  0.11600000  0.59580000  0.08440000  1.0 -0.1119536666
C  C144  1  0.92300000  0.60660000  0.90940000  1.0 0.0799949782
C  C145  1  0.93800000  0.65410000  0.92750000  1.0 -0.0610977614
C  C146  1  0.01300000  0.65660000  0.95820000  1.0 0.0486622296
C  C147  1  0.09800000  0.61480000  0.96450000  1.0 -0.1336415858
C  C148  1  0.09500000  0.56910000  0.94230000  1.0 -0.0780132941
C  C149  1  0.12800000  0.42710000  0.81220000  1.0 -0.1404112131
C  C150  1  0.12400000  0.37870000  0.79430000  1.0 -0.1710708738
C  C151  1  0.01000000  0.34810000  0.79130000  1.0 0.0408282771
C  C152  1  0.90500000  0.35840000  0.81350000  1.0 -0.0109701205
C  C153  1  0.90700000  0.40630000  0.83290000  1.0 0.068390233
C  C154  1  0.75300000  0.52300000  0.86200000  1.0 0.06202389
C  C155  1  0.54500000  0.67700000  0.79790000  1.0 0.1761306933
C  C156  1  0.25500000  0.54480000  0.85600000  1.0 0.0799949782
C  C157  1  0.63200000  0.55230000  0.85040000  1.0 0.0799949782
C  C158  1  0.64300000  0.59880000  0.83050000  1.0 -0.2592275963
C  C159  1  0.52700000  0.62580000  0.81970000  1.0 -0.0467560213
C  C160  1  0.40200000  0.60750000  0.82830000  1.0 -0.0421533506
C  C161  1  0.39500000  0.56060000  0.84830000  1.0 -0.0109701205
C  C162  1  0.50500000  0.53300000  0.85960000  1.0 -0.0780132941
C  C163  1  0.11900000  0.45470000  0.14480000  1.0 0.2599239647
C  C164  1  0.05830000  0.09690000  0.91044000  1.0 0.0999481874
C  C165  1  0.18720000  0.04090000  0.14320000  1.0 0.5206956515
C  C166  1  0.48760000  0.17260000  0.20452000  1.0 0.5704405009
C  C167  1  0.68310000  0.01620000  0.13510000  1.0 0.5206956515
C  C168  1  0.32790000  0.05980000  0.15319000  1.0 -0.0227506328
C  C169  1  0.34410000  0.10480000  0.17407000  1.0 -0.1006887481
C  C170  1  0.47130000  0.12490000  0.18117000  1.0 -0.0421533506
C  C171  1  0.58140000  0.09640000  0.16808000  1.0 -0.1006887481
C  C172  1  0.55870000  0.04990000  0.14750000  1.0 -0.0227506328
C  C173  1  0.43620000  0.03300000  0.14008000  1.0 -0.1006887481
C  C174  1  0.61900000  0.48110000  0.13600000  1.0 0.1289034113
C  C175  1  0.43900000  0.32400000  0.20290000  1.0 0.2419479936
C  C176  1  0.49600000  0.44990000  0.14880000  1.0 -0.0109701205
C  C177  1  0.51100000  0.40300000  0.16920000  1.0 -0.0109701205
C  C178  1  0.40600000  0.37330000  0.18140000  1.0 -0.0467560213
C  C179  1  0.27920000  0.39100000  0.17310000  1.0 -0.1812367012
C  C180  1  0.26000000  0.43720000  0.15310000  1.0 0.0408282771
C  C181  1  0.36900000  0.46660000  0.14100000  1.0 -0.1119536666
C  C182  1  0.96000000  0.20150000  0.01611000  1.0 0.0275001345
C  C183  1  0.97650000  0.20090000  0.97978000  1.0 0.0275001345
C  C184  1  0.98320000  0.24850000  0.96134000  1.0 -0.2814184875
C  C185  1  0.97140000  0.29950000  0.97900000  1.0 -0.0018576398
C  C186  1  0.96390000  0.30120000  0.01540000  1.0 0.0097163029
C  C187  1  0.95750000  0.25130000  0.03315000  1.0 -0.2301942133
C  C188  1  0.87140000  0.10540000  0.08843000  1.0 0.06202389
C  C189  1  0.86680000  0.14890000  0.06567000  1.0 -0.2000587136
C  C190  1  0.95260000  0.14940000  0.03783000  1.0 0.1100334252
C  C191  1  0.03330000  0.10630000  0.03365000  1.0 -0.2301942133
C  C192  1  0.02560000  0.06270000  0.05787000  1.0 0.0999481874
C  C193  1  0.88010000  0.06990000  0.93517000  1.0 0.0895778891
C  C194  1  0.87180000  0.11370000  0.95829000  1.0 -0.2301942133
C  C195  1  0.98310000  0.15140000  0.95639000  1.0 0.1100334252
C  C196  1  0.06920000  0.14330000  0.93304000  1.0 -0.2102927758
C  C197  1  0.81020000  0.42690000  0.93450000  1.0 -0.1119536666
C  C198  1  0.82400000  0.38500000  0.95830000  1.0 -0.0905814643
C  C199  1  0.93600000  0.35210000  0.95780000  1.0 0.0408282771
C  C200  1  0.03700000  0.35970000  0.93280000  1.0 -0.0277312475
C  C201  1  0.02200000  0.40240000  0.90960000  1.0 0.06202389
C  C202  1  0.80560000  0.39210000  0.08750000  1.0 -0.1119536666
C  C203  1  0.83500000  0.34870000  0.06570000  1.0 -0.0780132941
C  C204  1  0.93500000  0.34930000  0.03990000  1.0 0.0408282771
C  C205  1  0.99800000  0.39820000  0.03500000  1.0 -0.0716135486
C  C206  1  0.96800000  0.44060000  0.05710000  1.0 0.0275001345
C  C207  1  0.98120000  0.79900000  0.23190000  1.0 0.0408282771
C  C208  1  0.96840000  0.75100000  0.21604000  1.0 -0.2403880337
C  C209  1  0.99100000  0.70220000  0.23300000  1.0 0.0097163029
C  C210  1  0.87340000  0.90350000  0.16623000  1.0 0.068390233
C  C211  1  0.87490000  0.85910000  0.18740000  1.0 -0.2000587136
C  C212  1  0.97320000  0.85170000  0.21017000  1.0 0.0999481874
C  C213  1  0.07090000  0.88890000  0.21105000  1.0 -0.218277471
C  C214  1  0.06890000  0.93290000  0.18888000  1.0 0.0895778891
C  C215  1  0.99700000  0.56240000  0.19200000  1.0 0.06202389
C  C216  1  0.01900000  0.60740000  0.21340000  1.0 -0.0277312475
C  C217  1  0.92800000  0.65050000  0.21200000  1.0 0.0097163029
C  C218  1  0.82600000  0.64550000  0.18880000  1.0 -0.1006887481
C  C219  1  0.80200000  0.60080000  0.16760000  1.0 -0.0905814643
C  C220  1  0.92400000  0.43990000  0.94330000  1.0 0.0275001345
C  C221  1  0.92600000  0.39590000  0.96570000  1.0 -0.0716135486
C  C222  1  0.00700000  0.35130000  0.95950000  1.0 0.0275001345
C  C223  1  0.10800000  0.35660000  0.93430000  1.0 -0.0905814643
C  C224  1  0.11600000  0.40420000  0.91560000  1.0 -0.1119536666
C  C225  1  0.92300000  0.39340000  0.09060000  1.0 0.0799949782
C  C226  1  0.93800000  0.34590000  0.07250000  1.0 -0.0610977614
C  C227  1  0.01300000  0.34340000  0.04180000  1.0 0.0486622296
C  C228  1  0.09800000  0.38520000  0.03550000  1.0 -0.1336415858
C  C229  1  0.09500000  0.43090000  0.05770000  1.0 -0.0780132941
C  C230  1  0.12800000  0.57290000  0.18780000  1.0 -0.1404112131
C  C231  1  0.12400000  0.62130000  0.20570000  1.0 -0.1710708738
C  C232  1  0.01000000  0.65190000  0.20870000  1.0 0.0408282771
C  C233  1  0.90500000  0.64160000  0.18650000  1.0 -0.0109701205
C  C234  1  0.90700000  0.59370000  0.16710000  1.0 0.068390233
C  C235  1  0.75300000  0.47700000  0.13800000  1.0 0.06202389
C  C236  1  0.54500000  0.32300000  0.20210000  1.0 0.1761306933
C  C237  1  0.25500000  0.45520000  0.14400000  1.0 0.0895778891
C  C238  1  0.63200000  0.44770000  0.14960000  1.0 0.0799949782
C  C239  1  0.64300000  0.40120000  0.16950000  1.0 -0.2592275963
C  C240  1  0.52700000  0.37420000  0.18030000  1.0 -0.0467560213
C  C241  1  0.40200000  0.39250000  0.17170000  1.0 -0.0421533506
C  C242  1  0.39500000  0.43940000  0.15170000  1.0 -0.0109701205
C  C243  1  0.50500000  0.46700000  0.14040000  1.0 -0.0780132941
C  C244  1  0.88100000  0.54530000  0.64480000  1.0 0.2599239647
C  C245  1  0.94170000  0.90310000  0.41044000  1.0 0.0999481874
C  C246  1  0.81280000  0.95910000  0.64320000  1.0 0.5206956515
C  C247  1  0.51240000  0.82740000  0.70452000  1.0 0.5704405009
C  C248  1  0.31690000  0.98380000  0.63510000  1.0 0.5256119817
C  C249  1  0.67210000  0.94020000  0.65319000  1.0 -0.0227506328
C  C250  1  0.65590000  0.89520000  0.67407000  1.0 -0.1006887481
C  C251  1  0.52870000  0.87510000  0.68117000  1.0 -0.0421533506
C  C252  1  0.41860000  0.90360000  0.66808000  1.0 -0.1006887481
C  C253  1  0.44130000  0.95010000  0.64750000  1.0 -0.0227506328
C  C254  1  0.56380000  0.96700000  0.64008000  1.0 -0.1006887481
C  C255  1  0.38100000  0.51890000  0.63600000  1.0 0.1289034113
C  C256  1  0.56100000  0.67600000  0.70290000  1.0 0.2419479936
C  C257  1  0.50400000  0.55010000  0.64880000  1.0 -0.0109701205
C  C258  1  0.48900000  0.59700000  0.66920000  1.0 -0.0109701205
C  C259  1  0.59400000  0.62670000  0.68140000  1.0 -0.0467560213
C  C260  1  0.72080000  0.60900000  0.67310000  1.0 -0.1812367012
C  C261  1  0.74000000  0.56280000  0.65310000  1.0 0.0408282771
C  C262  1  0.63100000  0.53340000  0.64100000  1.0 -0.1119536666
C  C263  1  0.04000000  0.79850000  0.51611000  1.0 0.0275001345
C  C264  1  0.02350000  0.79910000  0.47978000  1.0 0.0275001345
C  C265  1  0.01680000  0.75150000  0.46134000  1.0 -0.2814184875
C  C266  1  0.02860000  0.70050000  0.47900000  1.0 -0.0018576398
C  C267  1  0.03610000  0.69880000  0.51540000  1.0 0.0097163029
C  C268  1  0.04250000  0.74870000  0.53315000  1.0 -0.2403880337
C  C269  1  0.12860000  0.89460000  0.58843000  1.0 0.06202389
C  C270  1  0.13320000  0.85110000  0.56567000  1.0 -0.2000587136
C  C271  1  0.04740000  0.85060000  0.53783000  1.0 0.1100334252
C  C272  1  0.96670000  0.89370000  0.53365000  1.0 -0.2301942133
C  C273  1  0.97440000  0.93730000  0.55787000  1.0 0.0999481874
C  C274  1  0.11990000  0.93010000  0.43517000  1.0 0.0895778891
C  C275  1  0.12820000  0.88630000  0.45829000  1.0 -0.2301942133
C  C276  1  0.01690000  0.84860000  0.45639000  1.0 0.1100334252
C  C277  1  0.93080000  0.85670000  0.43304000  1.0 -0.2102927758
C  C278  1  0.18980000  0.57310000  0.43450000  1.0 -0.1119536666
C  C279  1  0.17600000  0.61500000  0.45830000  1.0 -0.0905814643
C  C280  1  0.06400000  0.64790000  0.45780000  1.0 0.0408282771
C  C281  1  0.96300000  0.64030000  0.43280000  1.0 -0.0277312475
C  C282  1  0.97800000  0.59760000  0.40960000  1.0 0.06202389
C  C283  1  0.19440000  0.60790000  0.58750000  1.0 -0.1119536666
C  C284  1  0.16500000  0.65130000  0.56570000  1.0 -0.0780132941
C  C285  1  0.06500000  0.65070000  0.53990000  1.0 0.0408282771
C  C286  1  0.00200000  0.60180000  0.53500000  1.0 -0.0780132941
C  C287  1  0.03200000  0.55940000  0.55710000  1.0 0.0275001345
C  C288  1  0.01880000  0.20100000  0.73190000  1.0 0.0408282771
C  C289  1  0.03160000  0.24900000  0.71604000  1.0 -0.2403880337
C  C290  1  0.00900000  0.29780000  0.73300000  1.0 0.0097163029
C  C291  1  0.12660000  0.09650000  0.66623000  1.0 0.068390233
C  C292  1  0.12510000  0.14090000  0.68740000  1.0 -0.2000587136
C  C293  1  0.02680000  0.14830000  0.71017000  1.0 0.0999481874
C  C294  1  0.92910000  0.11110000  0.71105000  1.0 -0.2102927758
C  C295  1  0.93110000  0.06710000  0.68888000  1.0 0.0895778891
C  C296  1  0.00300000  0.43760000  0.69200000  1.0 0.06202389
C  C297  1  0.98100000  0.39260000  0.71340000  1.0 -0.0277312475
C  C298  1  0.07200000  0.34950000  0.71200000  1.0 0.0097163029
C  C299  1  0.17400000  0.35450000  0.68880000  1.0 -0.1006887481
C  C300  1  0.19800000  0.39920000  0.66760000  1.0 -0.1006887481
C  C301  1  0.07600000  0.56010000  0.44330000  1.0 0.0275001345
C  C302  1  0.07400000  0.60410000  0.46570000  1.0 -0.0716135486
C  C303  1  0.99300000  0.64870000  0.45950000  1.0 0.0275001345
C  C304  1  0.89200000  0.64340000  0.43430000  1.0 -0.0905814643
C  C305  1  0.88400000  0.59580000  0.41560000  1.0 -0.1119536666
C  C306  1  0.07700000  0.60660000  0.59060000  1.0 0.0799949782
C  C307  1  0.06200000  0.65410000  0.57250000  1.0 -0.0610977614
C  C308  1  0.98700000  0.65660000  0.54180000  1.0 0.0486622296
C  C309  1  0.90200000  0.61480000  0.53550000  1.0 -0.1336415858
C  C310  1  0.90500000  0.56910000  0.55770000  1.0 -0.0780132941
C  C311  1  0.87200000  0.42710000  0.68780000  1.0 -0.1404112131
C  C312  1  0.87600000  0.37870000  0.70570000  1.0 -0.1710708738
C  C313  1  0.99000000  0.34810000  0.70870000  1.0 0.0408282771
C  C314  1  0.09500000  0.35840000  0.68650000  1.0 -0.0109701205
C  C315  1  0.09300000  0.40630000  0.66710000  1.0 0.068390233
C  C316  1  0.24700000  0.52300000  0.63800000  1.0 0.06202389
C  C317  1  0.45500000  0.67700000  0.70210000  1.0 0.1761306933
C  C318  1  0.74500000  0.54480000  0.64400000  1.0 0.0799949782
C  C319  1  0.36800000  0.55230000  0.64960000  1.0 0.0799949782
C  C320  1  0.35700000  0.59880000  0.66950000  1.0 -0.2592275963
C  C321  1  0.47300000  0.62580000  0.68030000  1.0 -0.0467560213
C  C322  1  0.59800000  0.60750000  0.67170000  1.0 -0.0421533506
C  C323  1  0.60500000  0.56060000  0.65170000  1.0 -0.0109701205
C  C324  1  0.49500000  0.53300000  0.64040000  1.0 -0.0780132941
N  N1  1  0.03320000  0.06124000  0.58869000  1.0 -0.2480690591
N  N2  1  0.04540000  0.06385000  0.41544000  1.0 -0.218277471
N  N3  1  0.08920000  0.43560000  0.59030000  1.0 -0.1006887481
N  N4  1  0.12480000  0.43890000  0.41680000  1.0 -0.1812367012
N  N5  1  0.02970000  0.94059000  0.33324000  1.0 -0.2102927758
N  N6  1  0.10860000  0.55760000  0.33100000  1.0 -0.1587098506
N  N7  1  0.98600000  0.44210000  0.58380000  1.0 -0.0610977614
N  N8  1  0.97770000  0.43170000  0.41160000  1.0 -0.2301942133
N  N9  1  0.97900000  0.56260000  0.33480000  1.0 -0.1587098506
N  N10  1  0.96680000  0.93876000  0.08869000  1.0 -0.2480690591
N  N11  1  0.95460000  0.93615000  0.91544000  1.0 -0.218277471
N  N12  1  0.91080000  0.56440000  0.09030000  1.0 -0.1006887481
N  N13  1  0.87520000  0.56110000  0.91680000  1.0 -0.1812367012
N  N14  1  0.97030000  0.05941000  0.83324000  1.0 -0.2102927758
N  N15  1  0.89140000  0.44240000  0.83100000  1.0 -0.1587098506
N  N16  1  0.01400000  0.55790000  0.08380000  1.0 -0.0610977614
N  N17  1  0.02230000  0.56830000  0.91160000  1.0 -0.2301942133
N  N18  1  0.02100000  0.43740000  0.83480000  1.0 -0.1587098506
N  N19  1  0.96680000  0.06124000  0.91131000  1.0 -0.2480690591
N  N20  1  0.95460000  0.06385000  0.08456000  1.0 -0.218277471
N  N21  1  0.91080000  0.43560000  0.90970000  1.0 -0.0905814643
N  N22  1  0.87520000  0.43890000  0.08320000  1.0 -0.1812367012
N  N23  1  0.97030000  0.94059000  0.16676000  1.0 -0.2102927758
N  N24  1  0.89140000  0.55760000  0.16900000  1.0 -0.1587098506
N  N25  1  0.01400000  0.44210000  0.91620000  1.0 -0.0610977614
N  N26  1  0.02230000  0.43170000  0.08840000  1.0 -0.2301942133
N  N27  1  0.02100000  0.56260000  0.16520000  1.0 -0.1587098506
N  N28  1  0.03320000  0.93876000  0.41131000  1.0 -0.2480690591
N  N29  1  0.04540000  0.93615000  0.58456000  1.0 -0.218277471
N  N30  1  0.08920000  0.56440000  0.40970000  1.0 -0.1006887481
N  N31  1  0.12480000  0.56110000  0.58320000  1.0 -0.1812367012
N  N32  1  0.02970000  0.05941000  0.66676000  1.0 -0.2102927758
N  N33  1  0.10860000  0.44240000  0.66900000  1.0 -0.1587098506
N  N34  1  0.98600000  0.55790000  0.41620000  1.0 -0.0610977614
N  N35  1  0.97770000  0.56830000  0.58840000  1.0 -0.2301942133
N  N36  1  0.97900000  0.43740000  0.66520000  1.0 -0.1587098506
O  O1  1  0.97890000  0.43520000  0.33950000  1.0 -0.218277471
O  O2  1  0.87340000  0.49340000  0.37380000  1.0 -0.0610977614
O  O3  1  0.91350000  0.06323000  0.34256000  1.0 -0.5355576426
O  O4  1  0.82330000  0.00115000  0.37826000  1.0 -0.5753496439
O  O5  1  0.39680000  0.19205000  0.29226000  1.0 -0.5302861035
O  O6  1  0.61410000  0.19185000  0.28095000  1.0 -0.5476496369
O  O7  1  0.21040000  0.02931000  0.35317000  1.0 -0.5051139147
O  O8  1  0.34200000  0.97700000  0.38413000  1.0 -0.5635058582
O  O9  1  0.26300000  0.46700000  0.35460000  1.0 0.0097163029
O  O10  1  0.39480000  0.51370000  0.38210000  1.0 -0.1174362637
O  O11  1  0.66050000  0.30600000  0.28180000  1.0 -0.1710708738
O  O12  1  0.45200000  0.30920000  0.28800000  1.0 0.0486622296
O  O13  1  0.13590000  0.46710000  0.35080000  1.0 -0.1460327507
O  O14  1  0.24940000  0.51520000  0.38380000  1.0 -0.2000587136
O  O15  1  0.34010000  0.30490000  0.29460000  1.0 -0.2000587136
O  O16  1  0.56300000  0.31300000  0.28470000  1.0 0.0408282771
O  O17  1  0.85500000  0.44260000  0.34370000  1.0 0.06202389
O  O18  1  0.78330000  0.49750000  0.37570000  1.0 -0.0905814643
O  O19  1  0.02110000  0.56480000  0.83950000  1.0 -0.218277471
O  O20  1  0.12660000  0.50660000  0.87380000  1.0 -0.0610977614
O  O21  1  0.08650000  0.93677000  0.84256000  1.0 -0.5355576426
O  O22  1  0.17670000  0.99885000  0.87826000  1.0 -0.5753496439
O  O23  1  0.60320000  0.80795000  0.79226000  1.0 -0.5302861035
O  O24  1  0.38590000  0.80815000  0.78095000  1.0 -0.5476496369
O  O25  1  0.78960000  0.97069000  0.85317000  1.0 -0.5041420013
O  O26  1  0.65800000  0.02300000  0.88413000  1.0 -0.5635058582
O  O27  1  0.73700000  0.53300000  0.85460000  1.0 0.0097163029
O  O28  1  0.60520000  0.48630000  0.88210000  1.0 -0.1174362637
O  O29  1  0.33950000  0.69400000  0.78180000  1.0 -0.1587098506
O  O30  1  0.54800000  0.69080000  0.78800000  1.0 0.0486622296
O  O31  1  0.86410000  0.53290000  0.85080000  1.0 -0.1404112131
O  O32  1  0.75060000  0.48480000  0.88380000  1.0 -0.1926527396
O  O33  1  0.65990000  0.69510000  0.79460000  1.0 -0.2102927758
O  O34  1  0.43700000  0.68700000  0.78470000  1.0 0.0408282771
O  O35  1  0.14500000  0.55740000  0.84370000  1.0 0.06202389
O  O36  1  0.21670000  0.50250000  0.87570000  1.0 -0.0905814643
O  O37  1  0.02110000  0.43520000  0.16050000  1.0 -0.218277471
O  O38  1  0.12660000  0.49340000  0.12620000  1.0 -0.0610977614
O  O39  1  0.08650000  0.06323000  0.15744000  1.0 -0.5355576426
O  O40  1  0.17670000  0.00115000  0.12174000  1.0 -0.5745813996
O  O41  1  0.60320000  0.19205000  0.20774000  1.0 -0.5302861035
O  O42  1  0.38590000  0.19185000  0.21905000  1.0 -0.5476496369
O  O43  1  0.78960000  0.02931000  0.14683000  1.0 -0.5041420013
O  O44  1  0.65800000  0.97700000  0.11587000  1.0 -0.5635058582
O  O45  1  0.73700000  0.46700000  0.14540000  1.0 0.0097163029
O  O46  1  0.60520000  0.51370000  0.11790000  1.0 -0.1174362637
O  O47  1  0.33950000  0.30600000  0.21820000  1.0 -0.1710708738
O  O48  1  0.54800000  0.30920000  0.21200000  1.0 0.0486622296
O  O49  1  0.86410000  0.46710000  0.14920000  1.0 -0.1460327507
O  O50  1  0.75060000  0.51520000  0.11620000  1.0 -0.2000587136
O  O51  1  0.65990000  0.30490000  0.20540000  1.0 -0.2102927758
O  O52  1  0.43700000  0.31300000  0.21530000  1.0 0.0408282771
O  O53  1  0.14500000  0.44260000  0.15630000  1.0 0.06202389
O  O54  1  0.21670000  0.49750000  0.12430000  1.0 -0.0905814643
O  O55  1  0.97890000  0.56480000  0.66050000  1.0 -0.218277471
O  O56  1  0.87340000  0.50660000  0.62620000  1.0 -0.0610977614
O  O57  1  0.91350000  0.93677000  0.65744000  1.0 -0.5355576426
O  O58  1  0.82330000  0.99885000  0.62174000  1.0 -0.5753496439
O  O59  1  0.39680000  0.80795000  0.70774000  1.0 -0.5302861035
O  O60  1  0.61410000  0.80815000  0.71905000  1.0 -0.5476496369
O  O61  1  0.21040000  0.97069000  0.64683000  1.0 -0.5041420013
O  O62  1  0.34200000  0.02300000  0.61587000  1.0 -0.5635058582
O  O63  1  0.26300000  0.53300000  0.64540000  1.0 0.0097163029
O  O64  1  0.39480000  0.48630000  0.61790000  1.0 -0.1174362637
O  O65  1  0.66050000  0.69400000  0.71820000  1.0 -0.1710708738
O  O66  1  0.45200000  0.69080000  0.71200000  1.0 0.0486622296
O  O67  1  0.13590000  0.53290000  0.64920000  1.0 -0.1460327507
O  O68  1  0.24940000  0.48480000  0.61620000  1.0 -0.1926527396
O  O69  1  0.34010000  0.69510000  0.70540000  1.0 -0.2102927758
O  O70  1  0.56300000  0.68700000  0.71530000  1.0 0.0408282771
O  O71  1  0.85500000  0.55740000  0.65630000  1.0 0.06202389
O  O72  1  0.78330000  0.50250000  0.62430000  1.0 -0.0905814643
