# DDEC6 charges by PACMAN v1.1 (https://github.com/mtap-research/PACMAN-charge/)
data_JUGQOT_FSR_pacman
_symmetry_space_group_name_H-M   'P 1'
_cell_length_a   13.00900000
_cell_length_b   13.77010000
_cell_length_c   15.04390000
_cell_angle_alpha   99.51300000
_cell_angle_beta   90.40200000
_cell_angle_gamma   116.52200000
_symmetry_Int_Tables_number   1
_chemical_formula_structural   Tb2H41C31(N3O10)2
_chemical_formula_sum   'Tb4 H82 C62 N12 O40'
_cell_volume   2368.13641108
_cell_formula_units_Z   2
loop_
 _symmetry_equiv_pos_site_id
 _symmetry_equiv_pos_as_xyz
  1  'x, y, z'
loop_
 _atom_site_type_symbol
 _atom_site_label
 _atom_site_symmetry_multiplicity
 _atom_site_fract_x
 _atom_site_fract_y
 _atom_site_fract_z
 _atom_site_occupancy
 _atom_site_charge
Tb  Tb1  1  0.99092000  0.85127000  0.96030000  1.0 1.9994241391
Tb  Tb2  1  0.00908000  0.14873000  0.03970000  1.0 1.9994241391
Tb  Tb3  1  0.35606000  0.85596000  0.46486000  1.0 2.008601347
Tb  Tb4  1  0.64394000  0.14404000  0.53514000  1.0 2.008601347
H  H1  1  0.23550000  0.82460000  0.76500000  1.0 0.0796948839
H  H2  1  0.76450000  0.17540000  0.23500000  1.0 0.0796948839
H  H3  1  0.29710000  0.75640000  0.71930000  1.0 0.085893007
H  H4  1  0.70290000  0.24360000  0.28070000  1.0 0.085893007
H  H5  1  0.34960000  0.83700000  0.81250000  1.0 0.1110932751
H  H6  1  0.65040000  0.16300000  0.18750000  1.0 0.1110932751
H  H7  1  0.17530000  0.54290000  0.83070000  1.0 0.1194476678
H  H8  1  0.82470000  0.45710000  0.16930000  1.0 0.1194476678
H  H9  1  0.30660000  0.62580000  0.85290000  1.0 0.1194476678
H  H10  1  0.69340000  0.37420000  0.14710000  1.0 0.1194476678
H  H11  1  0.25180000  0.58680000  0.75240000  1.0 0.1295947319
H  H12  1  0.74820000  0.41320000  0.24760000  1.0 0.1295947319
H  H13  1  0.12170000  0.66020000  0.92300000  1.0 0.1110932751
H  H14  1  0.87830000  0.33980000  0.07700000  1.0 0.1110932751
H  H15  1  0.75790000  0.59020000  0.67270000  1.0 0.1194476678
H  H16  1  0.24210000  0.40980000  0.32730000  1.0 0.1194476678
H  H17  1  0.74910000  0.63240000  0.58370000  1.0 0.1295947319
H  H18  1  0.25090000  0.36760000  0.41630000  1.0 0.1295947319
H  H19  1  0.73910000  0.69570000  0.67730000  1.0 0.1295947319
H  H20  1  0.26090000  0.30430000  0.32270000  1.0 0.1295947319
H  H21  1  0.04760000  0.78940000  0.59670000  1.0 0.1295947319
H  H22  1  0.95240000  0.21060000  0.40330000  1.0 0.1295947319
H  H23  1  0.93750000  0.75760000  0.53240000  1.0 0.1295947319
H  H24  1  0.06250000  0.24240000  0.46760000  1.0 0.1295947319
H  H25  1  0.96800000  0.66530000  0.55360000  1.0 0.1487929676
H  H26  1  0.03200000  0.33470000  0.44640000  1.0 0.1487929676
H  H27  1  0.03140000  0.81180000  0.74210000  1.0 0.1003077896
H  H28  1  0.96860000  0.18820000  0.25790000  1.0 0.1003077896
H  H29  1  0.28980000  0.28390000  0.87410000  1.0 0.1194476678
H  H30  1  0.71020000  0.71610000  0.12590000  1.0 0.1194476678
H  H31  1  0.48360000  0.25330000  0.67590000  1.0 0.1487929676
H  H32  1  0.51640000  0.74670000  0.32410000  1.0 0.1487929676
H  H33  1  0.20920000  0.98430000  0.72850000  1.0 0.1295947319
H  H34  1  0.79080000  0.01570000  0.27150000  1.0 0.1295947319
H  H35  1  0.45090000  0.44480000  0.92040000  1.0 0.1003077896
H  H36  1  0.54910000  0.55520000  0.07960000  1.0 0.1003077896
H  H37  1  0.37290000  0.45810000  0.84760000  1.0 0.1110932751
H  H38  1  0.62710000  0.54190000  0.15240000  1.0 0.1110932751
H  H39  1  0.53560000  0.62970000  0.92050000  1.0 0.1003077896
H  H40  1  0.46440000  0.37030000  0.07950000  1.0 0.1003077896
H  H41  1  0.61470000  0.58740000  0.86520000  1.0 0.1110932751
H  H42  1  0.38530000  0.41260000  0.13480000  1.0 0.1110932751
H  H43  1  0.47780000  0.71840000  0.67500000  1.0 0.1487929676
H  H44  1  0.52220000  0.28160000  0.32500000  1.0 0.1487929676
H  H45  1  0.73310000  0.02400000  0.76570000  1.0 0.1194476678
H  H46  1  0.26690000  0.97600000  0.23430000  1.0 0.1194476678
H  H47  1  0.69980000  0.77240000  0.88580000  1.0 0.1295947319
H  H48  1  0.30020000  0.22760000  0.11420000  1.0 0.1295947319
H  H49  1  0.07920000  0.02490000  0.31440000  1.0 0.1487929676
H  H50  1  0.92080000  0.97510000  0.68560000  1.0 0.1487929676
H  H51  1  0.03050000  0.00650000  0.40850000  1.0 0.1295947319
H  H52  1  0.96950000  0.99350000  0.59150000  1.0 0.1295947319
H  H53  1  0.94920000  0.94350000  0.31900000  1.0 0.1408949374
H  H54  1  0.05080000  0.05650000  0.68100000  1.0 0.1408949374
H  H55  1  0.93170000  0.77160000  0.24590000  1.0 0.1408949374
H  H56  1  0.06830000  0.22840000  0.75410000  1.0 0.1408949374
H  H57  1  0.01250000  0.72550000  0.27960000  1.0 0.1408949374
H  H58  1  0.98750000  0.27450000  0.72040000  1.0 0.1408949374
H  H59  1  0.05650000  0.81130000  0.21480000  1.0 0.1408949374
H  H60  1  0.94350000  0.18870000  0.78520000  1.0 0.1408949374
H  H61  1  0.15670000  0.94900000  0.45620000  1.0 0.1003077896
H  H62  1  0.84330000  0.05100000  0.54380000  1.0 0.1003077896
H  H63  1  0.11290000  0.66260000  0.11030000  1.0 0.1487929676
H  H64  1  0.88710000  0.33740000  0.88970000  1.0 0.1487929676
H  H65  1  0.03160000  0.55810000  0.14920000  1.0 0.1408949374
H  H66  1  0.96840000  0.44190000  0.85080000  1.0 0.1408949374
H  H67  1  0.11530000  0.54950000  0.07720000  1.0 0.1408949374
H  H68  1  0.88470000  0.45050000  0.92280000  1.0 0.1408949374
H  H69  1  0.27370000  0.52290000  0.19770000  1.0 0.1408949374
H  H70  1  0.72630000  0.47710000  0.80230000  1.0 0.1408949374
H  H71  1  0.14320000  0.46520000  0.21560000  1.0 0.1295947319
H  H72  1  0.85680000  0.53480000  0.78440000  1.0 0.1295947319
H  H73  1  0.23600000  0.54850000  0.29400000  1.0 0.1408949374
H  H74  1  0.76400000  0.45150000  0.70600000  1.0 0.1408949374
H  H75  1  0.23750000  0.77620000  0.23480000  1.0 0.1003077896
H  H76  1  0.76250000  0.22380000  0.76520000  1.0 0.1003077896
H  H77  1  0.22640000  0.68080000  0.69010000  1.0 0.1194476678
H  H78  1  0.77360000  0.31920000  0.30990000  1.0 0.1194476678
H  H79  1  0.29240000  0.80330000  0.74210000  1.0 0.0667035822
H  H80  1  0.70760000  0.19670000  0.25790000  1.0 0.0667035822
H  H81  1  0.15770000  0.74690000  0.72320000  1.0 0.1110932751
H  H82  1  0.84230000  0.25310000  0.27680000  1.0 0.1003077896
C  C1  1  0.27900000  0.78600000  0.77600000  1.0 -0.1226221825
C  C2  1  0.72100000  0.21400000  0.22400000  1.0 -0.1226221825
C  C3  1  0.23800000  0.60500000  0.81400000  1.0 -0.360152414
C  C4  1  0.76200000  0.39500000  0.18600000  1.0 -0.360152414
C  C5  1  0.14520000  0.70950000  0.88310000  1.0 0.1110932751
C  C6  1  0.85480000  0.29050000  0.11690000  1.0 0.1110932751
C  C7  1  0.77600000  0.65500000  0.64680000  1.0 -0.3245895113
C  C8  1  0.22400000  0.34500000  0.35320000  1.0 -0.3245895113
C  C9  1  0.96940000  0.73490000  0.57800000  1.0 -0.3399743841
C  C10  1  0.03060000  0.26510000  0.42200000  1.0 -0.3399743841
C  C11  1  0.95160000  0.77060000  0.73790000  1.0 0.251179024
C  C12  1  0.04840000  0.22940000  0.26210000  1.0 0.251179024
C  C13  1  0.13670000  0.07460000  0.86700000  1.0 0.6316792761
C  C14  1  0.86330000  0.92540000  0.13300000  1.0 0.6316792761
C  C15  1  0.23760000  0.12540000  0.81010000  1.0 -0.0085264026
C  C16  1  0.76240000  0.87460000  0.18990000  1.0 -0.0085264026
C  C17  1  0.30690000  0.23970000  0.82910000  1.0 -0.2387936208
C  C18  1  0.69310000  0.76030000  0.17090000  1.0 -0.2387936208
C  C19  1  0.39970000  0.28620000  0.78120000  1.0 0.251179024
C  C20  1  0.60030000  0.71380000  0.21880000  1.0 0.251179024
C  C21  1  0.42090000  0.22080000  0.70880000  1.0 -0.193812659
C  C22  1  0.57910000  0.77920000  0.29120000  1.0 -0.193812659
C  C23  1  0.34880000  0.10760000  0.68600000  1.0 -0.0085264026
C  C24  1  0.65120000  0.89240000  0.31400000  1.0 -0.0085264026
C  C25  1  0.25660000  0.06020000  0.74050000  1.0 -0.1607883776
C  C26  1  0.74340000  0.93980000  0.25950000  1.0 -0.1607883776
C  C27  1  0.36430000  0.03460000  0.60860000  1.0 0.6029265319
C  C28  1  0.63570000  0.96540000  0.39140000  1.0 0.6029265319
C  C29  1  0.44930000  0.46580000  0.86220000  1.0 -0.0474598538
C  C30  1  0.55070000  0.53420000  0.13780000  1.0 -0.0474598538
C  C31  1  0.53820000  0.58290000  0.86570000  1.0 -0.067895187
C  C32  1  0.46180000  0.41710000  0.13430000  1.0 -0.067895187
C  C33  1  0.57510000  0.72710000  0.78360000  1.0 0.251179024
C  C34  1  0.42490000  0.27290000  0.21640000  1.0 0.251179024
C  C35  1  0.54140000  0.76680000  0.71550000  1.0 -0.2041859086
C  C36  1  0.45860000  0.23320000  0.28450000  1.0 -0.2041859086
C  C37  1  0.59980000  0.87680000  0.70620000  1.0 -0.0318760052
C  C38  1  0.40020000  0.12320000  0.29380000  1.0 -0.0318760052
C  C39  1  0.69440000  0.94950000  0.76920000  1.0 -0.1388824637
C  C40  1  0.30560000  0.05050000  0.23080000  1.0 -0.1388824637
C  C41  1  0.73030000  0.91030000  0.83710000  1.0 -0.0085264026
C  C42  1  0.26970000  0.08970000  0.16290000  1.0 -0.0085264026
C  C43  1  0.67300000  0.79900000  0.84280000  1.0 -0.2387936208
C  C44  1  0.32700000  0.20100000  0.15720000  1.0 -0.2387936208
C  C45  1  0.82910000  0.98670000  0.90440000  1.0 0.6162153874
C  C46  1  0.17090000  0.01330000  0.09560000  1.0 0.6162153874
C  C47  1  0.56210000  0.92200000  0.63810000  1.0 0.6316792761
C  C48  1  0.43790000  0.07800000  0.36190000  1.0 0.6316792761
C  C49  1  0.02600000  0.97180000  0.34680000  1.0 -0.3459499683
C  C50  1  0.97400000  0.02820000  0.65320000  1.0 -0.3459499683
C  C51  1  0.00990000  0.78920000  0.26390000  1.0 -0.3399743841
C  C52  1  0.99010000  0.21080000  0.73610000  1.0 -0.3399743841
C  C53  1  0.12810000  0.88800000  0.40920000  1.0 0.2913748418
C  C54  1  0.87190000  0.11200000  0.59080000  1.0 0.2913748418
C  C55  1  0.10600000  0.59600000  0.12810000  1.0 -0.360152414
C  C56  1  0.89400000  0.40400000  0.87190000  1.0 -0.360152414
C  C57  1  0.21400000  0.53200000  0.23000000  1.0 -0.3399743841
C  C58  1  0.78600000  0.46800000  0.77000000  1.0 -0.3399743841
C  C59  1  0.25130000  0.72070000  0.25160000  1.0 0.3168111239
C  C60  1  0.74870000  0.27930000  0.74840000  1.0 0.3168111239
C  C61  1  0.22300000  0.73500000  0.73700000  1.0 -0.149026839
C  C62  1  0.77700000  0.26500000  0.26300000  1.0 -0.149026839
N  N1  1  0.84370000  0.63610000  0.00690000  1.0 0.6972942744
N  N2  1  0.15630000  0.36390000  0.99310000  1.0 0.6972942744
N  N3  1  0.21120000  0.69620000  0.82360000  1.0 0.0579979001
N  N4  1  0.78880000  0.30380000  0.17640000  1.0 0.0579979001
N  N5  1  0.89990000  0.72320000  0.65700000  1.0 0.0083066393
N  N6  1  0.10010000  0.27680000  0.34300000  1.0 0.0083066393
N  N7  1  0.05550000  0.88240000  0.34460000  1.0 0.0540780947
N  N8  1  0.94450000  0.11760000  0.65540000  1.0 0.0540780947
N  N9  1  0.19870000  0.62590000  0.20320000  1.0 0.0579979001
N  N10  1  0.80130000  0.37410000  0.79680000  1.0 0.0579979001
N  N11  1  0.27720000  0.63660000  0.51200000  1.0 0.6574631725
N  N12  1  0.72280000  0.36340000  0.48800000  1.0 0.6574631725
O  O1  1  0.95270000  0.68280000  0.02450000  1.0 -0.5097811874
O  O2  1  0.04730000  0.31720000  0.97550000  1.0 -0.5097811874
O  O3  1  0.80400000  0.67870000  0.95730000  1.0 -0.4862244184
O  O4  1  0.19600000  0.32130000  0.04270000  1.0 -0.4862244184
O  O5  1  0.78320000  0.55440000  0.03650000  1.0 -0.3880023564
O  O6  1  0.21680000  0.44560000  0.96350000  1.0 -0.3880023564
O  O7  1  0.11010000  0.77790000  0.89340000  1.0 -0.5203254725
O  O8  1  0.88990000  0.22210000  0.10660000  1.0 -0.5203254725
O  O9  1  0.90560000  0.76640000  0.80980000  1.0 -0.5203254725
O  O10  1  0.09440000  0.23360000  0.19020000  1.0 -0.5203254725
O  O11  1  0.10370000  0.97450000  0.87120000  1.0 -0.6608594711
O  O12  1  0.89630000  0.02550000  0.12880000  1.0 -0.6608594711
O  O13  1  0.09790000  0.13610000  0.90630000  1.0 -0.6376024093
O  O14  1  0.90210000  0.86390000  0.09370000  1.0 -0.6376024093
O  O15  1  0.47480000  0.39740000  0.79490000  1.0 -0.1710936631
O  O16  1  0.52520000  0.60260000  0.20510000  1.0 -0.1710936631
O  O17  1  0.51210000  0.61840000  0.78700000  1.0 -0.1710936631
O  O18  1  0.48790000  0.38160000  0.21300000  1.0 -0.1710936631
O  O19  1  0.88680000  0.95110000  0.94260000  1.0 -0.7021156009
O  O20  1  0.11320000  0.04890000  0.05740000  1.0 -0.7021156009
O  O21  1  0.85090000  0.08870000  0.92460000  1.0 -0.6227276678
O  O22  1  0.14910000  0.91130000  0.07540000  1.0 -0.6227276678
O  O23  1  0.62980000  0.01500000  0.62450000  1.0 -0.6608594711
O  O24  1  0.37020000  0.98500000  0.37550000  1.0 -0.6608594711
O  O25  1  0.46010000  0.86230000  0.59770000  1.0 -0.6768634821
O  O26  1  0.53990000  0.13770000  0.40230000  1.0 -0.6768634821
O  O27  1  0.28590000  0.93900000  0.58300000  1.0 -0.6227276678
O  O28  1  0.71410000  0.06100000  0.41700000  1.0 -0.6227276678
O  O29  1  0.45400000  0.07320000  0.56810000  1.0 -0.7021156009
O  O30  1  0.54600000  0.92680000  0.43190000  1.0 -0.7021156009
O  O31  1  0.22060000  0.69290000  0.52180000  1.0 -0.5097811874
O  O32  1  0.77940000  0.30710000  0.47820000  1.0 -0.5097811874
O  O33  1  0.36310000  0.67140000  0.46840000  1.0 -0.4464433994
O  O34  1  0.63690000  0.32860000  0.53160000  1.0 -0.4464433994
O  O35  1  0.24020000  0.54840000  0.53750000  1.0 -0.3714590277
O  O36  1  0.75980000  0.45160000  0.46250000  1.0 -0.3714590277
O  O37  1  0.31910000  0.74730000  0.31900000  1.0 -0.5391227807
O  O38  1  0.68090000  0.25270000  0.68100000  1.0 -0.5391227807
O  O39  1  0.16110000  0.81330000  0.41030000  1.0 -0.5845398511
O  O40  1  0.83890000  0.18670000  0.58970000  1.0 -0.5845398511
