# DDEC6 charges by PACMAN v1.1 (https://github.com/mtap-research/PACMAN-charge/)
data_JUHNIL_ASR_pacman
_symmetry_space_group_name_H-M   'P 1'
_cell_length_a   19.34800000
_cell_length_b   19.82210000
_cell_length_c   21.11040000
_cell_angle_alpha   90.00000000
_cell_angle_beta   90.00000000
_cell_angle_gamma   90.00000000
_symmetry_Int_Tables_number   1
_chemical_formula_structural   Cu3H4C18(NO6)2
_chemical_formula_sum   'Cu24 H32 C144 N16 O96'
_cell_volume   8096.21819298
_cell_formula_units_Z   8
loop_
 _symmetry_equiv_pos_site_id
 _symmetry_equiv_pos_as_xyz
  1  'x, y, z'
loop_
 _atom_site_type_symbol
 _atom_site_label
 _atom_site_symmetry_multiplicity
 _atom_site_fract_x
 _atom_site_fract_y
 _atom_site_fract_z
 _atom_site_occupancy
 _atom_site_charge
Cu  Cu1  1  0.94386000  0.93946000  0.75000000  1.0 0.8810130634
Cu  Cu2  1  0.55614000  0.43946000  0.25000000  1.0 0.8810130634
Cu  Cu3  1  0.44386000  0.56054000  0.75000000  1.0 0.8810130634
Cu  Cu4  1  0.05614000  0.06054000  0.25000000  1.0 0.8810130634
Cu  Cu5  1  0.84130000  0.84994000  0.75000000  1.0 0.8528082602
Cu  Cu6  1  0.65870000  0.34994000  0.25000000  1.0 0.8528082602
Cu  Cu7  1  0.34130000  0.65006000  0.75000000  1.0 0.8528082602
Cu  Cu8  1  0.15870000  0.15006000  0.25000000  1.0 0.8528082602
Cu  Cu9  1  0.90098000  0.60988000  0.75000000  1.0 0.8528082602
Cu  Cu10  1  0.59902000  0.10988000  0.25000000  1.0 0.8528082602
Cu  Cu11  1  0.40098000  0.89012000  0.75000000  1.0 0.8528082602
Cu  Cu12  1  0.09902000  0.39012000  0.25000000  1.0 0.8528082602
Cu  Cu13  1  0.01691000  0.51328000  0.05911000  1.0 0.8528082602
Cu  Cu14  1  0.48309000  0.01328000  0.94089000  1.0 0.8563664038
Cu  Cu15  1  0.51691000  0.98672000  0.44089000  1.0 0.8563664038
Cu  Cu16  1  0.98309000  0.48672000  0.55911000  1.0 0.8528082602
Cu  Cu17  1  0.98309000  0.48672000  0.94089000  1.0 0.8528082602
Cu  Cu18  1  0.51691000  0.98672000  0.05911000  1.0 0.8528082602
Cu  Cu19  1  0.48309000  0.01328000  0.55911000  1.0 0.8528082602
Cu  Cu20  1  0.01691000  0.51328000  0.44089000  1.0 0.8563664038
Cu  Cu21  1  0.37708000  0.10258000  0.25000000  1.0 0.7398732283
Cu  Cu22  1  0.12292000  0.60258000  0.75000000  1.0 0.7331702986
Cu  Cu23  1  0.87708000  0.39742000  0.25000000  1.0 0.7398732283
Cu  Cu24  1  0.62292000  0.89742000  0.75000000  1.0 0.7331702986
H  H1  1  0.04350000  0.87430000  0.91340000  1.0 0.1336980699
H  H2  1  0.45650000  0.37430000  0.08660000  1.0 0.1336980699
H  H3  1  0.54350000  0.62570000  0.58660000  1.0 0.1336980699
H  H4  1  0.95650000  0.12570000  0.41340000  1.0 0.1336980699
H  H5  1  0.95650000  0.12570000  0.08660000  1.0 0.1350413241
H  H6  1  0.54350000  0.62570000  0.91340000  1.0 0.1336980699
H  H7  1  0.45650000  0.37430000  0.41340000  1.0 0.1336980699
H  H8  1  0.04350000  0.87430000  0.58660000  1.0 0.1336980699
H  H9  1  0.07030000  0.71870000  0.03220000  1.0 0.1500473303
H  H10  1  0.42970000  0.21870000  0.96780000  1.0 0.1500473303
H  H11  1  0.57030000  0.78130000  0.46780000  1.0 0.1500473303
H  H12  1  0.92970000  0.28130000  0.53220000  1.0 0.1500473303
H  H13  1  0.92970000  0.28130000  0.96780000  1.0 0.1500473303
H  H14  1  0.57030000  0.78130000  0.03220000  1.0 0.1500473303
H  H15  1  0.42970000  0.21870000  0.53220000  1.0 0.1500473303
H  H16  1  0.07030000  0.71870000  0.46780000  1.0 0.1500473303
H  H17  1  0.11770000  0.94270000  0.09100000  1.0 0.1336980699
H  H18  1  0.38230000  0.44270000  0.90900000  1.0 0.1336980699
H  H19  1  0.61770000  0.55730000  0.40900000  1.0 0.1336980699
H  H20  1  0.88230000  0.05730000  0.59100000  1.0 0.1336980699
H  H21  1  0.88230000  0.05730000  0.90900000  1.0 0.1336980699
H  H22  1  0.61770000  0.55730000  0.09100000  1.0 0.1336980699
H  H23  1  0.38230000  0.44270000  0.59100000  1.0 0.1336980699
H  H24  1  0.11770000  0.94270000  0.40900000  1.0 0.1336980699
H  H25  1  0.27390000  0.92090000  0.96770000  1.0 0.1500473303
H  H26  1  0.22610000  0.42090000  0.03230000  1.0 0.1500473303
H  H27  1  0.77390000  0.57910000  0.53230000  1.0 0.1500473303
H  H28  1  0.72610000  0.07910000  0.46770000  1.0 0.1500473303
H  H29  1  0.72610000  0.07910000  0.03230000  1.0 0.1500473303
H  H30  1  0.77390000  0.57910000  0.96770000  1.0 0.1500473303
H  H31  1  0.22610000  0.42090000  0.46770000  1.0 0.1500473303
H  H32  1  0.27390000  0.92090000  0.53230000  1.0 0.1500473303
C  C1  1  0.95050000  0.82790000  0.83590000  1.0 0.59721284
C  C2  1  0.54950000  0.32790000  0.16410000  1.0 0.59721284
C  C3  1  0.45050000  0.67210000  0.66410000  1.0 0.59721284
C  C4  1  0.04950000  0.17210000  0.33590000  1.0 0.59721284
C  C5  1  0.04950000  0.17210000  0.16410000  1.0 0.59721284
C  C6  1  0.45050000  0.67210000  0.83590000  1.0 0.59721284
C  C7  1  0.54950000  0.32790000  0.33590000  1.0 0.59721284
C  C8  1  0.95050000  0.82790000  0.66410000  1.0 0.59721284
C  C9  1  0.98610000  0.79280000  0.89010000  1.0 -0.0197494814
C  C10  1  0.51390000  0.29280000  0.10990000  1.0 -0.0197494814
C  C11  1  0.48610000  0.70720000  0.60990000  1.0 -0.0197494814
C  C12  1  0.01390000  0.20720000  0.39010000  1.0 -0.0197494814
C  C13  1  0.01390000  0.20720000  0.10990000  1.0 -0.0197494814
C  C14  1  0.48610000  0.70720000  0.89010000  1.0 -0.0197494814
C  C15  1  0.51390000  0.29280000  0.39010000  1.0 -0.0197494814
C  C16  1  0.98610000  0.79280000  0.60990000  1.0 -0.0197494814
C  C17  1  0.03310000  0.83030000  0.92540000  1.0 -0.1422602146
C  C18  1  0.46690000  0.33030000  0.07460000  1.0 -0.1422602146
C  C19  1  0.53310000  0.66970000  0.57460000  1.0 -0.1422602146
C  C20  1  0.96690000  0.16970000  0.42540000  1.0 -0.1422602146
C  C21  1  0.96690000  0.16970000  0.07460000  1.0 -0.1422602146
C  C22  1  0.53310000  0.66970000  0.92540000  1.0 -0.1422602146
C  C23  1  0.46690000  0.33030000  0.42540000  1.0 -0.1422602146
C  C24  1  0.03310000  0.83030000  0.57460000  1.0 -0.1422602146
C  C25  1  0.06460000  0.80240000  0.97830000  1.0 0.1500473303
C  C26  1  0.43540000  0.30240000  0.02170000  1.0 0.1500473303
C  C27  1  0.56460000  0.69760000  0.52170000  1.0 0.1500473303
C  C28  1  0.93540000  0.19760000  0.47830000  1.0 0.1500473303
C  C29  1  0.93540000  0.19760000  0.02170000  1.0 0.1500473303
C  C30  1  0.56460000  0.69760000  0.97830000  1.0 0.1500473303
C  C31  1  0.43540000  0.30240000  0.47830000  1.0 0.1500473303
C  C32  1  0.06460000  0.80240000  0.52170000  1.0 0.1500473303
C  C33  1  0.05040000  0.73660000  0.99580000  1.0 -0.130221369
C  C34  1  0.44960000  0.23660000  0.00420000  1.0 -0.130221369
C  C35  1  0.55040000  0.76340000  0.50420000  1.0 -0.130221369
C  C36  1  0.94960000  0.26340000  0.49580000  1.0 -0.130221369
C  C37  1  0.94960000  0.26340000  0.00420000  1.0 -0.130221369
C  C38  1  0.55040000  0.76340000  0.99580000  1.0 -0.130221369
C  C39  1  0.44960000  0.23660000  0.49580000  1.0 -0.130221369
C  C40  1  0.05040000  0.73660000  0.50420000  1.0 -0.130221369
C  C41  1  0.00680000  0.69720000  0.95930000  1.0 -0.0197494814
C  C42  1  0.49320000  0.19720000  0.04070000  1.0 -0.0197494814
C  C43  1  0.50680000  0.80280000  0.54070000  1.0 -0.0197494814
C  C44  1  0.99320000  0.30280000  0.45930000  1.0 -0.009297727
C  C45  1  0.99320000  0.30280000  0.04070000  1.0 -0.0197494814
C  C46  1  0.50680000  0.80280000  0.95930000  1.0 -0.0197494814
C  C47  1  0.49320000  0.19720000  0.45930000  1.0 -0.0197494814
C  C48  1  0.00680000  0.69720000  0.54070000  1.0 -0.0197494814
C  C49  1  0.00250000  0.62350000  0.97410000  1.0 0.59721284
C  C50  1  0.49750000  0.12350000  0.02590000  1.0 0.59721284
C  C51  1  0.50250000  0.87650000  0.52590000  1.0 0.59721284
C  C52  1  0.99750000  0.37650000  0.47410000  1.0 0.59721284
C  C53  1  0.99750000  0.37650000  0.02590000  1.0 0.59721284
C  C54  1  0.50250000  0.87650000  0.97410000  1.0 0.59721284
C  C55  1  0.49750000  0.12350000  0.47410000  1.0 0.59721284
C  C56  1  0.00250000  0.62350000  0.52590000  1.0 0.59721284
C  C57  1  0.97270000  0.72560000  0.90630000  1.0 0.0089744074
C  C58  1  0.52730000  0.22560000  0.09370000  1.0 0.0089744074
C  C59  1  0.47270000  0.77440000  0.59370000  1.0 0.0089744074
C  C60  1  0.02730000  0.27440000  0.40630000  1.0 0.0089744074
C  C61  1  0.02730000  0.27440000  0.09370000  1.0 0.0089744074
C  C62  1  0.47270000  0.77440000  0.90630000  1.0 0.0089744074
C  C63  1  0.52730000  0.22560000  0.40630000  1.0 0.0089744074
C  C64  1  0.97270000  0.72560000  0.59370000  1.0 0.0089744074
C  C65  1  0.92300000  0.68320000  0.86710000  1.0 0.6090690845
C  C66  1  0.57700000  0.18320000  0.13290000  1.0 0.6090690845
C  C67  1  0.42300000  0.81680000  0.63290000  1.0 0.6090690845
C  C68  1  0.07700000  0.31680000  0.36710000  1.0 0.6090690845
C  C69  1  0.07700000  0.31680000  0.13290000  1.0 0.6090690845
C  C70  1  0.42300000  0.81680000  0.86710000  1.0 0.6090690845
C  C71  1  0.57700000  0.18320000  0.36710000  1.0 0.6090690845
C  C72  1  0.92300000  0.68320000  0.63290000  1.0 0.6090690845
C  C73  1  0.16720000  0.03640000  0.16550000  1.0 0.59721284
C  C74  1  0.33280000  0.53640000  0.83450000  1.0 0.59721284
C  C75  1  0.66720000  0.46360000  0.33450000  1.0 0.59721284
C  C76  1  0.83280000  0.96360000  0.66550000  1.0 0.59721284
C  C77  1  0.83280000  0.96360000  0.83450000  1.0 0.59721284
C  C78  1  0.66720000  0.46360000  0.16550000  1.0 0.59721284
C  C79  1  0.33280000  0.53640000  0.66550000  1.0 0.59721284
C  C80  1  0.16720000  0.03640000  0.33450000  1.0 0.59721284
C  C81  1  0.20190000  0.99870000  0.11320000  1.0 -0.0197494814
C  C82  1  0.29810000  0.49870000  0.88680000  1.0 -0.0197494814
C  C83  1  0.70190000  0.50130000  0.38680000  1.0 -0.0197494814
C  C84  1  0.79810000  0.00130000  0.61320000  1.0 -0.0197494814
C  C85  1  0.79810000  0.00130000  0.88680000  1.0 -0.0197494814
C  C86  1  0.70190000  0.50130000  0.11320000  1.0 -0.0197494814
C  C87  1  0.29810000  0.49870000  0.61320000  1.0 -0.0197494814
C  C88  1  0.20190000  0.99870000  0.38680000  1.0 -0.0197494814
C  C89  1  0.16250000  0.95300000  0.07820000  1.0 -0.1476258583
C  C90  1  0.33750000  0.45300000  0.92180000  1.0 -0.1476258583
C  C91  1  0.66250000  0.54700000  0.42180000  1.0 -0.1476258583
C  C92  1  0.83750000  0.04700000  0.57820000  1.0 -0.1476258583
C  C93  1  0.83750000  0.04700000  0.92180000  1.0 -0.1476258583
C  C94  1  0.66250000  0.54700000  0.07820000  1.0 -0.1476258583
C  C95  1  0.33750000  0.45300000  0.57820000  1.0 -0.1476258583
C  C96  1  0.16250000  0.95300000  0.42180000  1.0 -0.1476258583
C  C97  1  0.18980000  0.92290000  0.02470000  1.0 0.1500473303
C  C98  1  0.31020000  0.42290000  0.97530000  1.0 0.1500473303
C  C99  1  0.68980000  0.57710000  0.47530000  1.0 0.1500473303
C  C100  1  0.81020000  0.07710000  0.52470000  1.0 0.1500473303
C  C101  1  0.81020000  0.07710000  0.97530000  1.0 0.1500473303
C  C102  1  0.68980000  0.57710000  0.02470000  1.0 0.1500473303
C  C103  1  0.31020000  0.42290000  0.52470000  1.0 0.1500473303
C  C104  1  0.18980000  0.92290000  0.47530000  1.0 0.1500473303
C  C105  1  0.25660000  0.93850000  0.00530000  1.0 -0.1422602146
C  C106  1  0.24340000  0.43850000  0.99470000  1.0 -0.1422602146
C  C107  1  0.75660000  0.56150000  0.49470000  1.0 -0.1422602146
C  C108  1  0.74340000  0.06150000  0.50530000  1.0 -0.1422602146
C  C109  1  0.74340000  0.06150000  0.99470000  1.0 -0.1422602146
C  C110  1  0.75660000  0.56150000  0.00530000  1.0 -0.1422602146
C  C111  1  0.24340000  0.43850000  0.50530000  1.0 -0.1422602146
C  C112  1  0.25660000  0.93850000  0.49470000  1.0 -0.1422602146
C  C113  1  0.29730000  0.98050000  0.04220000  1.0 -0.009297727
C  C114  1  0.20270000  0.48050000  0.95780000  1.0 -0.009297727
C  C115  1  0.79730000  0.51950000  0.45780000  1.0 -0.009297727
C  C116  1  0.70270000  0.01950000  0.54220000  1.0 -0.009297727
C  C117  1  0.70270000  0.01950000  0.95780000  1.0 -0.009297727
C  C118  1  0.79730000  0.51950000  0.04220000  1.0 -0.009297727
C  C119  1  0.20270000  0.48050000  0.54220000  1.0 -0.009297727
C  C120  1  0.29730000  0.98050000  0.45780000  1.0 -0.009297727
C  C121  1  0.37200000  0.99030000  0.02390000  1.0 0.59721284
C  C122  1  0.12800000  0.49030000  0.97610000  1.0 0.59721284
C  C123  1  0.87200000  0.50970000  0.47610000  1.0 0.59721284
C  C124  1  0.62800000  0.00970000  0.52390000  1.0 0.59721284
C  C125  1  0.62800000  0.00970000  0.97610000  1.0 0.59721284
C  C126  1  0.87200000  0.50970000  0.02390000  1.0 0.59721284
C  C127  1  0.12800000  0.49030000  0.52390000  1.0 0.59721284
C  C128  1  0.37200000  0.99030000  0.47610000  1.0 0.59721284
C  C129  1  0.27140000  0.01140000  0.09610000  1.0 -0.009297727
C  C130  1  0.22860000  0.51140000  0.90390000  1.0 -0.009297727
C  C131  1  0.77140000  0.48860000  0.40390000  1.0 -0.009297727
C  C132  1  0.72860000  0.98860000  0.59610000  1.0 -0.009297727
C  C133  1  0.72860000  0.98860000  0.90390000  1.0 -0.009297727
C  C134  1  0.77140000  0.48860000  0.09610000  1.0 -0.009297727
C  C135  1  0.22860000  0.51140000  0.59610000  1.0 -0.009297727
C  C136  1  0.27140000  0.01140000  0.40390000  1.0 -0.009297727
C  C137  1  0.31680000  0.06060000  0.13090000  1.0 0.59721284
C  C138  1  0.18320000  0.56060000  0.86910000  1.0 0.59721284
C  C139  1  0.81680000  0.43940000  0.36910000  1.0 0.59721284
C  C140  1  0.68320000  0.93940000  0.63090000  1.0 0.59721284
C  C141  1  0.68320000  0.93940000  0.86910000  1.0 0.59721284
C  C142  1  0.81680000  0.43940000  0.13090000  1.0 0.59721284
C  C143  1  0.18320000  0.56060000  0.63090000  1.0 0.59721284
C  C144  1  0.31680000  0.06060000  0.36910000  1.0 0.59721284
N  N1  1  0.11040000  0.84130000  0.01730000  1.0 -0.1073377601
N  N2  1  0.38960000  0.34130000  0.98270000  1.0 -0.1073377601
N  N3  1  0.61040000  0.65870000  0.48270000  1.0 -0.1073377601
N  N4  1  0.88960000  0.15870000  0.51730000  1.0 -0.1073377601
N  N5  1  0.88960000  0.15870000  0.98270000  1.0 -0.1073377601
N  N6  1  0.61040000  0.65870000  0.01730000  1.0 -0.1073377601
N  N7  1  0.38960000  0.34130000  0.51730000  1.0 -0.1073377601
N  N8  1  0.11040000  0.84130000  0.48270000  1.0 -0.1073377601
N  N9  1  0.14910000  0.87960000  0.98650000  1.0 -0.1073377601
N  N10  1  0.35090000  0.37960000  0.01350000  1.0 -0.1073377601
N  N11  1  0.64910000  0.62040000  0.51350000  1.0 -0.1073377601
N  N12  1  0.85090000  0.12040000  0.48650000  1.0 -0.1073377601
N  N13  1  0.85090000  0.12040000  0.01350000  1.0 -0.1073377601
N  N14  1  0.64910000  0.62040000  0.98650000  1.0 -0.1073377601
N  N15  1  0.35090000  0.37960000  0.48650000  1.0 -0.1073377601
N  N16  1  0.14910000  0.87960000  0.51350000  1.0 -0.1073377601
O  O1  1  0.98026000  0.87960000  0.81582000  1.0 -0.5201549002
O  O2  1  0.51974000  0.37960000  0.18418000  1.0 -0.5201549002
O  O3  1  0.48026000  0.62040000  0.68418000  1.0 -0.5201549002
O  O4  1  0.01974000  0.12040000  0.31582000  1.0 -0.5201549002
O  O5  1  0.01974000  0.12040000  0.18418000  1.0 -0.5201549002
O  O6  1  0.48026000  0.62040000  0.81582000  1.0 -0.5201549002
O  O7  1  0.51974000  0.37960000  0.31582000  1.0 -0.5201549002
O  O8  1  0.98026000  0.87960000  0.68418000  1.0 -0.5201549002
O  O9  1  0.89429000  0.80394000  0.81662000  1.0 -0.4848431072
O  O10  1  0.60571000  0.30394000  0.18338000  1.0 -0.4848431072
O  O11  1  0.39429000  0.69606000  0.68338000  1.0 -0.4848431072
O  O12  1  0.10571000  0.19606000  0.31662000  1.0 -0.4871469757
O  O13  1  0.10571000  0.19606000  0.18338000  1.0 -0.4871469757
O  O14  1  0.39429000  0.69606000  0.81662000  1.0 -0.4848431072
O  O15  1  0.60571000  0.30394000  0.31662000  1.0 -0.4848431072
O  O16  1  0.89429000  0.80394000  0.68338000  1.0 -0.4871469757
O  O17  1  0.94667000  0.66434000  0.81369000  1.0 -0.5617669172
O  O18  1  0.55333000  0.16434000  0.18631000  1.0 -0.5617669172
O  O19  1  0.44667000  0.83566000  0.68631000  1.0 -0.5617669172
O  O20  1  0.05333000  0.33566000  0.31369000  1.0 -0.5617669172
O  O21  1  0.05333000  0.33566000  0.18631000  1.0 -0.5617669172
O  O22  1  0.44667000  0.83566000  0.81369000  1.0 -0.5617669172
O  O23  1  0.55333000  0.16434000  0.31369000  1.0 -0.5617669172
O  O24  1  0.94667000  0.66434000  0.68631000  1.0 -0.5617669172
O  O25  1  0.86502000  0.66900000  0.88940000  1.0 -0.5096895849
O  O26  1  0.63498000  0.16900000  0.11060000  1.0 -0.5201549002
O  O27  1  0.36502000  0.83100000  0.61060000  1.0 -0.5201549002
O  O28  1  0.13498000  0.33100000  0.38940000  1.0 -0.5201549002
O  O29  1  0.13498000  0.33100000  0.11060000  1.0 -0.5201549002
O  O30  1  0.36502000  0.83100000  0.88940000  1.0 -0.5201549002
O  O31  1  0.63498000  0.16900000  0.38940000  1.0 -0.5201549002
O  O32  1  0.86502000  0.66900000  0.61060000  1.0 -0.5096895849
O  O33  1  0.98733000  0.58469000  0.92967000  1.0 -0.4871469757
O  O34  1  0.51267000  0.08469000  0.07033000  1.0 -0.4871469757
O  O35  1  0.48733000  0.91531000  0.57033000  1.0 -0.4871469757
O  O36  1  0.01267000  0.41531000  0.42967000  1.0 -0.4871469757
O  O37  1  0.01267000  0.41531000  0.07033000  1.0 -0.4871469757
O  O38  1  0.48733000  0.91531000  0.92967000  1.0 -0.4871469757
O  O39  1  0.51267000  0.08469000  0.42967000  1.0 -0.4871469757
O  O40  1  0.98733000  0.58469000  0.57033000  1.0 -0.4871469757
O  O41  1  0.01629000  0.60721000  0.03009000  1.0 -0.5201549002
O  O42  1  0.48371000  0.10721000  0.96991000  1.0 -0.5201549002
O  O43  1  0.51629000  0.89279000  0.46991000  1.0 -0.5201549002
O  O44  1  0.98371000  0.39279000  0.53009000  1.0 -0.5201549002
O  O45  1  0.98371000  0.39279000  0.96991000  1.0 -0.5201549002
O  O46  1  0.51629000  0.89279000  0.03009000  1.0 -0.5201549002
O  O47  1  0.48371000  0.10721000  0.53009000  1.0 -0.5201549002
O  O48  1  0.01629000  0.60721000  0.46991000  1.0 -0.5201549002
O  O49  1  0.11080000  0.01230000  0.18599000  1.0 -0.5201549002
O  O50  1  0.38920000  0.51230000  0.81401000  1.0 -0.5201549002
O  O51  1  0.61080000  0.48770000  0.31401000  1.0 -0.5201549002
O  O52  1  0.88920000  0.98770000  0.68599000  1.0 -0.5201549002
O  O53  1  0.88920000  0.98770000  0.81401000  1.0 -0.5201549002
O  O54  1  0.61080000  0.48770000  0.18599000  1.0 -0.5201549002
O  O55  1  0.38920000  0.51230000  0.68599000  1.0 -0.5201549002
O  O56  1  0.11080000  0.01230000  0.31401000  1.0 -0.5201549002
O  O57  1  0.19469000  0.09063000  0.18374000  1.0 -0.5096895849
O  O58  1  0.30531000  0.59063000  0.81626000  1.0 -0.5096895849
O  O59  1  0.69469000  0.40937000  0.31626000  1.0 -0.5096895849
O  O60  1  0.80531000  0.90937000  0.68374000  1.0 -0.5096895849
O  O61  1  0.80531000  0.90937000  0.81626000  1.0 -0.5096895849
O  O62  1  0.69469000  0.40937000  0.18374000  1.0 -0.5096895849
O  O63  1  0.30531000  0.59063000  0.68374000  1.0 -0.5096895849
O  O64  1  0.19469000  0.09063000  0.31626000  1.0 -0.5096895849
O  O65  1  0.33439000  0.04403000  0.18685000  1.0 -0.5201549002
O  O66  1  0.16561000  0.54403000  0.81315000  1.0 -0.5201549002
O  O67  1  0.83439000  0.45597000  0.31315000  1.0 -0.5201549002
O  O68  1  0.66561000  0.95597000  0.68685000  1.0 -0.5201549002
O  O69  1  0.66561000  0.95597000  0.81315000  1.0 -0.5201549002
O  O70  1  0.83439000  0.45597000  0.18685000  1.0 -0.5201549002
O  O71  1  0.16561000  0.54403000  0.68685000  1.0 -0.5201549002
O  O72  1  0.33439000  0.04403000  0.31315000  1.0 -0.5201549002
O  O73  1  0.33451000  0.11170000  0.10215000  1.0 -0.4957714869
O  O74  1  0.16549000  0.61170000  0.89785000  1.0 -0.4957714869
O  O75  1  0.83451000  0.38830000  0.39785000  1.0 -0.4957714869
O  O76  1  0.66549000  0.88830000  0.60215000  1.0 -0.4957714869
O  O77  1  0.66549000  0.88830000  0.89785000  1.0 -0.4871469757
O  O78  1  0.83451000  0.38830000  0.10215000  1.0 -0.4957714869
O  O79  1  0.16549000  0.61170000  0.60215000  1.0 -0.4957714869
O  O80  1  0.33451000  0.11170000  0.39785000  1.0 -0.4957714869
O  O81  1  0.41547000  0.98150000  0.06825000  1.0 -0.5096895849
O  O82  1  0.08453000  0.48150000  0.93175000  1.0 -0.5096895849
O  O83  1  0.91547000  0.51850000  0.43175000  1.0 -0.5096895849
O  O84  1  0.58453000  0.01850000  0.56825000  1.0 -0.5096895849
O  O85  1  0.58453000  0.01850000  0.93175000  1.0 -0.5096895849
O  O86  1  0.91547000  0.51850000  0.06825000  1.0 -0.5096895849
O  O87  1  0.08453000  0.48150000  0.56825000  1.0 -0.5096895849
O  O88  1  0.41547000  0.98150000  0.43175000  1.0 -0.5096895849
O  O89  1  0.38603000  0.00320000  0.96758000  1.0 -0.4871469757
O  O90  1  0.11397000  0.50320000  0.03242000  1.0 -0.4871469757
O  O91  1  0.88603000  0.49680000  0.53242000  1.0 -0.4871469757
O  O92  1  0.61397000  0.99680000  0.46758000  1.0 -0.4871469757
O  O93  1  0.61397000  0.99680000  0.03242000  1.0 -0.4871469757
O  O94  1  0.88603000  0.49680000  0.96758000  1.0 -0.4871469757
O  O95  1  0.11397000  0.50320000  0.46758000  1.0 -0.4871469757
O  O96  1  0.38603000  0.00320000  0.53242000  1.0 -0.4871469757
