# DDEC6 charges by PACMAN v1.1 (https://github.com/mtap-research/PACMAN-charge/)
data_JUKNUA_ASR_pacman
_symmetry_space_group_name_H-M   'P 1'
_cell_length_a   18.14860000
_cell_length_b   18.14860000
_cell_length_c   28.61800000
_cell_angle_alpha   73.34860000
_cell_angle_beta   106.65100000
_cell_angle_gamma   108.16000000
_symmetry_Int_Tables_number   1
_chemical_formula_structural   Na2Cu12P5H26W30C36(N7O25)4
_chemical_formula_sum   'Na4 Cu24 P10 H52 W60 C72 N56 O200'
_cell_volume   8377.05545086
_cell_formula_units_Z   2
loop_
 _symmetry_equiv_pos_site_id
 _symmetry_equiv_pos_as_xyz
  1  'x, y, z'
loop_
 _atom_site_type_symbol
 _atom_site_label
 _atom_site_symmetry_multiplicity
 _atom_site_fract_x
 _atom_site_fract_y
 _atom_site_fract_z
 _atom_site_occupancy
 _atom_site_charge
Na  Na1  1  0.43480000  0.48440000  0.79030000  1.0 0.6862226333
Na  Na2  1  0.48440000  0.43480000  0.70970000  1.0 0.6862226333
Na  Na3  1  0.56520000  0.51560000  0.20970000  1.0 0.682964852
Na  Na4  1  0.51560000  0.56520000  0.29030000  1.0 0.6862226333
Cu  Cu1  1  0.37159000  0.33465000  0.51196000  1.0 0.7256191577
Cu  Cu2  1  0.33465000  0.37159000  0.98804000  1.0 0.7210572567
Cu  Cu3  1  0.62841000  0.66535000  0.48804000  1.0 0.7256191577
Cu  Cu4  1  0.66535000  0.62841000  0.01196000  1.0 0.7210572567
Cu  Cu5  1  0.63697000  0.19301000  0.63811000  1.0 0.7210572567
Cu  Cu6  1  0.19301000  0.63697000  0.86189000  1.0 0.7210572567
Cu  Cu7  1  0.36303000  0.80699000  0.36189000  1.0 0.7210572567
Cu  Cu8  1  0.80699000  0.36303000  0.13811000  1.0 0.7210572567
Cu  Cu9  1  0.33622000  0.03106000  0.02662000  1.0 0.682964852
Cu  Cu10  1  0.03106000  0.33622000  0.47338000  1.0 0.682964852
Cu  Cu11  1  0.66378000  0.96894000  0.97338000  1.0 0.682964852
Cu  Cu12  1  0.96894000  0.66378000  0.52662000  1.0 0.6862226333
Cu  Cu13  1  0.79156000  0.08836000  0.89897000  1.0 0.7888850327
Cu  Cu14  1  0.08836000  0.79156000  0.60103000  1.0 0.7888850327
Cu  Cu15  1  0.20844000  0.91164000  0.10103000  1.0 0.7888850327
Cu  Cu16  1  0.91164000  0.20844000  0.39897000  1.0 0.7888850327
Cu  Cu17  1  0.72697000  0.38643000  0.61062000  1.0 0.6402676608
Cu  Cu18  1  0.38643000  0.72697000  0.88938000  1.0 0.6402676608
Cu  Cu19  1  0.27303000  0.61357000  0.38938000  1.0 0.6402676608
Cu  Cu20  1  0.61357000  0.27303000  0.11062000  1.0 0.6402676608
Cu  Cu21  1  0.77926000  0.86696000  0.53222000  1.0 0.3996913467
Cu  Cu22  1  0.86696000  0.77926000  0.96778000  1.0 0.4052557256
Cu  Cu23  1  0.22074000  0.13304000  0.46778000  1.0 0.3996913467
Cu  Cu24  1  0.13304000  0.22074000  0.03222000  1.0 0.3996913467
P  P1  1  0.29470000  0.29470000  0.75000000  1.0 1.4113487011
P  P2  1  0.70530000  0.70530000  0.25000000  1.0 1.4224588082
P  P3  1  0.51750000  0.30070000  0.83713000  1.0 1.4031731691
P  P4  1  0.30070000  0.51750000  0.66287000  1.0 1.4031731691
P  P5  1  0.48250000  0.69930000  0.16287000  1.0 1.4113487011
P  P6  1  0.69930000  0.48250000  0.33713000  1.0 1.4113487011
P  P7  1  0.52617000  0.66017000  0.69549000  1.0 1.4224588082
P  P8  1  0.66017000  0.52617000  0.80451000  1.0 1.427623054
P  P9  1  0.47383000  0.33983000  0.30451000  1.0 1.4224588082
P  P10  1  0.33983000  0.47383000  0.19549000  1.0 1.427623054
H  H1  1  0.77350000  0.27070000  0.66550000  1.0 0.3996913467
H  H2  1  0.27070000  0.77350000  0.83450000  1.0 0.3996913467
H  H3  1  0.22650000  0.72930000  0.33450000  1.0 0.3996913467
H  H4  1  0.72930000  0.22650000  0.16550000  1.0 0.3996913467
H  H5  1  0.64750000  0.01790000  0.88140000  1.0 0.3852061536
H  H6  1  0.01790000  0.64750000  0.61860000  1.0 0.3852061536
H  H7  1  0.35250000  0.98210000  0.11860000  1.0 0.3852061536
H  H8  1  0.98210000  0.35250000  0.38140000  1.0 0.3852061536
H  H9  1  0.43670000  0.55510000  0.44190000  1.0 0.1312631517
H  H10  1  0.55510000  0.43670000  0.05810000  1.0 0.1312631517
H  H11  1  0.56330000  0.44490000  0.55810000  1.0 0.1312631517
H  H12  1  0.44490000  0.56330000  0.94190000  1.0 0.1312631517
H  H13  1  0.78270000  0.61070000  0.49890000  1.0 0.110767006
H  H14  1  0.61070000  0.78270000  0.00110000  1.0 0.110767006
H  H15  1  0.21730000  0.38930000  0.50110000  1.0 0.110767006
H  H16  1  0.38930000  0.21730000  0.99890000  1.0 0.110767006
H  H17  1  0.85750000  0.04470000  0.53950000  1.0 0.0761619564
H  H18  1  0.04470000  0.85750000  0.96050000  1.0 0.0761619564
H  H19  1  0.14250000  0.95530000  0.46050000  1.0 0.0761619564
H  H20  1  0.95530000  0.14250000  0.03950000  1.0 0.0761619564
H  H21  1  0.96020000  0.99600000  0.56380000  1.0 0.2456231322
H  H22  1  0.99600000  0.96020000  0.93620000  1.0 0.239114752
H  H23  1  0.03980000  0.00400000  0.43620000  1.0 0.239114752
H  H24  1  0.00400000  0.03980000  0.06380000  1.0 0.239114752
H  H25  1  0.60530000  0.04470000  0.44440000  1.0 0.1401711572
H  H26  1  0.04470000  0.60530000  0.05560000  1.0 0.1401711572
H  H27  1  0.39470000  0.95530000  0.55560000  1.0 0.1401711572
H  H28  1  0.95530000  0.39470000  0.94440000  1.0 0.1401711572
H  H29  1  0.81920000  0.16340000  0.50650000  1.0 0.1312631517
H  H30  1  0.16340000  0.81920000  0.99350000  1.0 0.1312631517
H  H31  1  0.18080000  0.83660000  0.49350000  1.0 0.1312631517
H  H32  1  0.83660000  0.18080000  0.00650000  1.0 0.1312631517
H  H33  1  0.69220000  0.16220000  0.46200000  1.0 0.1312631517
H  H34  1  0.16220000  0.69220000  0.03800000  1.0 0.1312631517
H  H35  1  0.30780000  0.83780000  0.53800000  1.0 0.1312631517
H  H36  1  0.83780000  0.30780000  0.96200000  1.0 0.1312631517
H  H37  1  0.10670000  0.07010000  0.58350000  1.0 0.110767006
H  H38  1  0.07010000  0.10670000  0.91650000  1.0 0.110767006
H  H39  1  0.89330000  0.92990000  0.41650000  1.0 0.110767006
H  H40  1  0.92990000  0.89330000  0.08350000  1.0 0.110767006
H  H41  1  0.25820000  0.89300000  0.63770000  1.0 0.110767006
H  H42  1  0.89300000  0.25820000  0.86230000  1.0 0.110767006
H  H43  1  0.74180000  0.10700000  0.36230000  1.0 0.110767006
H  H44  1  0.10700000  0.74180000  0.13770000  1.0 0.110767006
H  H45  1  0.23900000  0.11540000  0.60850000  1.0 0.0979818951
H  H46  1  0.11540000  0.23900000  0.89150000  1.0 0.0979818951
H  H47  1  0.76100000  0.88460000  0.39150000  1.0 0.0979818951
H  H48  1  0.88460000  0.76100000  0.10850000  1.0 0.0979818951
H  H49  1  0.31570000  0.02470000  0.63750000  1.0 0.1312631517
H  H50  1  0.02470000  0.31570000  0.86250000  1.0 0.1312631517
H  H51  1  0.68430000  0.97530000  0.36250000  1.0 0.1312631517
H  H52  1  0.97530000  0.68430000  0.13750000  1.0 0.1312631517
W  W1  1  0.28201000  0.09563000  0.76028000  1.0 2.4620951023
W  W2  1  0.09563000  0.28201000  0.73972000  1.0 2.4494285734
W  W3  1  0.71799000  0.90437000  0.23972000  1.0 2.4494285734
W  W4  1  0.90437000  0.71799000  0.26028000  1.0 2.4494285734
W  W5  1  0.35810000  0.25900000  0.66051000  1.0 2.2425131009
W  W6  1  0.25900000  0.35810000  0.83949000  1.0 2.249834856
W  W7  1  0.64190000  0.74100000  0.33949000  1.0 2.2425131009
W  W8  1  0.74100000  0.64190000  0.16051000  1.0 2.2425131009
W  W9  1  0.49019000  0.10365000  0.84071000  1.0 2.4666126575
W  W10  1  0.10365000  0.49019000  0.65929000  1.0 2.4666126575
W  W11  1  0.50981000  0.89635000  0.15929000  1.0 2.4620951023
W  W12  1  0.89635000  0.50981000  0.34071000  1.0 2.4666126575
W  W13  1  0.21287000  0.14911000  0.83799000  1.0 2.3882587757
W  W14  1  0.14911000  0.21287000  0.66201000  1.0 2.3882587757
W  W15  1  0.78713000  0.85089000  0.16201000  1.0 2.3882587757
W  W16  1  0.85089000  0.78713000  0.33799000  1.0 2.3882587757
W  W17  1  0.37001000  0.46359000  0.58273000  1.0 2.4010276602
W  W18  1  0.46359000  0.37001000  0.91727000  1.0 2.4010276602
W  W19  1  0.62999000  0.53641000  0.41727000  1.0 2.4010276602
W  W20  1  0.53641000  0.62999000  0.08273000  1.0 2.4010276602
W  W21  1  0.56183000  0.26191000  0.73967000  1.0 2.4360681977
W  W22  1  0.26191000  0.56183000  0.76033000  1.0 2.4360681977
W  W23  1  0.43817000  0.73809000  0.26033000  1.0 2.4360681977
W  W24  1  0.73809000  0.43817000  0.23967000  1.0 2.4360681977
W  W25  1  0.41951000  0.15417000  0.91911000  1.0 2.4494285734
W  W26  1  0.15417000  0.41951000  0.58089000  1.0 2.4494285734
W  W27  1  0.58049000  0.84583000  0.08089000  1.0 2.4494285734
W  W28  1  0.84583000  0.58049000  0.41911000  1.0 2.4494285734
W  W29  1  0.69081000  0.24521000  0.86769000  1.0 2.4213065948
W  W30  1  0.24521000  0.69081000  0.63231000  1.0 2.4213065948
W  W31  1  0.30919000  0.75479000  0.13231000  1.0 2.4213065948
W  W32  1  0.75479000  0.30919000  0.36769000  1.0 2.425721487
W  W33  1  0.57498000  0.59458000  0.61214000  1.0 2.4010276602
W  W34  1  0.59458000  0.57498000  0.88786000  1.0 2.4010276602
W  W35  1  0.42502000  0.40542000  0.38786000  1.0 2.4010276602
W  W36  1  0.40542000  0.42502000  0.11214000  1.0 2.4010276602
W  W37  1  0.27422000  0.62774000  0.54202000  1.0 2.4010276602
W  W38  1  0.62774000  0.27422000  0.95798000  1.0 2.4010276602
W  W39  1  0.72578000  0.37226000  0.45798000  1.0 2.4010276602
W  W40  1  0.37226000  0.72578000  0.04202000  1.0 2.4010276602
W  W41  1  0.69244000  0.46538000  0.71183000  1.0 2.4494285734
W  W42  1  0.46538000  0.69244000  0.78817000  1.0 2.4494285734
W  W43  1  0.30756000  0.53462000  0.28817000  1.0 2.4494285734
W  W44  1  0.53462000  0.30756000  0.21183000  1.0 2.4494285734
W  W45  1  0.82374000  0.45264000  0.83497000  1.0 2.4089809265
W  W46  1  0.45264000  0.82374000  0.66503000  1.0 2.4089809265
W  W47  1  0.17626000  0.54736000  0.16503000  1.0 2.4213065948
W  W48  1  0.54736000  0.17626000  0.33497000  1.0 2.4213065948
W  W49  1  0.48010000  0.76212000  0.57413000  1.0 2.336857399
W  W50  1  0.76212000  0.48010000  0.92587000  1.0 2.3469825592
W  W51  1  0.51990000  0.23788000  0.42587000  1.0 2.336857399
W  W52  1  0.23788000  0.51990000  0.07413000  1.0 2.336857399
W  W53  1  0.68950000  0.77846000  0.65060000  1.0 2.4620951023
W  W54  1  0.77846000  0.68950000  0.84940000  1.0 2.4620951023
W  W55  1  0.31050000  0.22154000  0.34940000  1.0 2.4620951023
W  W56  1  0.22154000  0.31050000  0.15060000  1.0 2.4620951023
W  W57  1  0.81543000  0.65265000  0.75156000  1.0 2.5011579599
W  W58  1  0.65265000  0.81543000  0.74844000  1.0 2.5011579599
W  W59  1  0.18457000  0.34735000  0.24844000  1.0 2.5011579599
W  W60  1  0.34735000  0.18457000  0.25156000  1.0 2.5011579599
C  C1  1  0.44580000  0.61000000  0.43510000  1.0 0.1941780603
C  C2  1  0.61000000  0.44580000  0.06490000  1.0 0.1941780603
C  C3  1  0.55420000  0.39000000  0.56490000  1.0 0.1941780603
C  C4  1  0.39000000  0.55420000  0.93510000  1.0 0.1941780603
C  C5  1  0.49760000  0.73280000  0.43240000  1.0 0.2213521804
C  C6  1  0.73280000  0.49760000  0.06760000  1.0 0.2213521804
C  C7  1  0.50240000  0.26720000  0.56760000  1.0 0.2213521804
C  C8  1  0.26720000  0.50240000  0.93240000  1.0 0.2213521804
C  C9  1  0.56090000  0.79830000  0.45030000  1.0 0.1941780603
C  C10  1  0.79830000  0.56090000  0.04970000  1.0 0.1941780603
C  C11  1  0.43910000  0.20170000  0.54970000  1.0 0.1941780603
C  C12  1  0.20170000  0.43910000  0.95030000  1.0 0.1941780603
C  C13  1  0.79750000  0.65810000  0.50960000  1.0 0.1496796123
C  C14  1  0.65810000  0.79750000  0.99040000  1.0 0.1496796123
C  C15  1  0.20250000  0.34190000  0.49040000  1.0 0.1496796123
C  C16  1  0.34190000  0.20250000  0.00960000  1.0 0.1496796123
C  C17  1  0.64020000  0.89960000  0.47110000  1.0 0.1941780603
C  C18  1  0.89960000  0.64020000  0.02890000  1.0 0.1941780603
C  C19  1  0.35980000  0.10040000  0.52890000  1.0 0.1941780603
C  C20  1  0.10040000  0.35980000  0.97110000  1.0 0.1941780603
C  C21  1  0.86630000  0.75890000  0.53750000  1.0 0.239114752
C  C22  1  0.75890000  0.86630000  0.96250000  1.0 0.239114752
C  C23  1  0.13370000  0.24110000  0.46250000  1.0 0.239114752
C  C24  1  0.24110000  0.13370000  0.03750000  1.0 0.239114752
C  C25  1  0.68500000  0.97880000  0.47990000  1.0 0.1496796123
C  C26  1  0.97880000  0.68500000  0.02010000  1.0 0.1496796123
C  C27  1  0.31500000  0.02120000  0.52010000  1.0 0.1496796123
C  C28  1  0.02120000  0.31500000  0.97990000  1.0 0.1496796123
C  C29  1  0.92410000  0.82990000  0.55190000  1.0 0.2300733532
C  C30  1  0.82990000  0.92410000  0.94810000  1.0 0.2300733532
C  C31  1  0.07590000  0.17010000  0.44810000  1.0 0.2300733532
C  C32  1  0.17010000  0.07590000  0.05190000  1.0 0.2300733532
C  C33  1  0.80720000  0.04480000  0.51940000  1.0 0.0586919077
C  C34  1  0.04480000  0.80720000  0.98060000  1.0 0.0586919077
C  C35  1  0.19280000  0.95520000  0.48060000  1.0 0.0586919077
C  C36  1  0.95520000  0.19280000  0.01940000  1.0 0.0586919077
C  C37  1  0.65710000  0.04610000  0.46260000  1.0 -0.1687462684
C  C38  1  0.04610000  0.65710000  0.03740000  1.0 -0.1687462684
C  C39  1  0.34290000  0.95390000  0.53740000  1.0 -0.1687462684
C  C40  1  0.95390000  0.34290000  0.96260000  1.0 -0.1687462684
C  C41  1  0.78360000  0.11580000  0.50050000  1.0 -0.1687462684
C  C42  1  0.11580000  0.78360000  0.99950000  1.0 -0.1687462684
C  C43  1  0.21640000  0.88420000  0.49950000  1.0 -0.1687462684
C  C44  1  0.88420000  0.21640000  0.00050000  1.0 -0.1687462684
C  C45  1  0.02220000  0.92180000  0.57250000  1.0 0.1609887313
C  C46  1  0.92180000  0.02220000  0.92750000  1.0 0.1609887313
C  C47  1  0.97780000  0.07820000  0.42750000  1.0 0.1609887313
C  C48  1  0.07820000  0.97780000  0.07250000  1.0 0.1609887313
C  C49  1  0.70860000  0.11520000  0.47330000  1.0 -0.042119869
C  C50  1  0.11520000  0.70860000  0.02670000  1.0 -0.042119869
C  C51  1  0.29140000  0.88480000  0.52670000  1.0 -0.042119869
C  C52  1  0.88480000  0.29140000  0.97330000  1.0 -0.042119869
C  C53  1  0.10530000  0.95770000  0.58920000  1.0 0.110767006
C  C54  1  0.95770000  0.10530000  0.91080000  1.0 0.0979818951
C  C55  1  0.89470000  0.04230000  0.41080000  1.0 0.110767006
C  C56  1  0.04230000  0.89470000  0.08920000  1.0 0.110767006
C  C57  1  0.13910000  0.03510000  0.59270000  1.0 -0.2018787954
C  C58  1  0.03510000  0.13910000  0.90730000  1.0 -0.2018787954
C  C59  1  0.86090000  0.96490000  0.40730000  1.0 -0.2018787954
C  C60  1  0.96490000  0.86090000  0.09270000  1.0 -0.2018787954
C  C61  1  0.22730000  0.92950000  0.62460000  1.0 0.0761619564
C  C62  1  0.92950000  0.22730000  0.87540000  1.0 0.0761619564
C  C63  1  0.77270000  0.07050000  0.37540000  1.0 0.0761619564
C  C64  1  0.07050000  0.77270000  0.12460000  1.0 0.0761619564
C  C65  1  0.21620000  0.06180000  0.60870000  1.0 -0.0706731212
C  C66  1  0.06180000  0.21620000  0.89130000  1.0 -0.0706731212
C  C67  1  0.78380000  0.93820000  0.39130000  1.0 -0.0706731212
C  C68  1  0.93820000  0.78380000  0.10870000  1.0 -0.0706731212
C  C69  1  0.26130000  0.00790000  0.62540000  1.0 -0.1687462684
C  C70  1  0.00790000  0.26130000  0.87460000  1.0 -0.1687462684
C  C71  1  0.73870000  0.99210000  0.37460000  1.0 -0.1687462684
C  C72  1  0.99210000  0.73870000  0.12540000  1.0 -0.1687462684
N  N1  1  0.57380000  0.27140000  0.59270000  1.0 -0.2170600389
N  N2  1  0.27140000  0.57380000  0.90730000  1.0 -0.2289993082
N  N3  1  0.42620000  0.72860000  0.40730000  1.0 -0.2289993082
N  N4  1  0.72860000  0.42620000  0.09270000  1.0 -0.2289993082
N  N5  1  0.84480000  0.00180000  0.93340000  1.0 -0.4354338143
N  N6  1  0.00180000  0.84480000  0.56660000  1.0 -0.4354338143
N  N7  1  0.15520000  0.99820000  0.06660000  1.0 -0.4354338143
N  N8  1  0.99820000  0.15520000  0.43340000  1.0 -0.4354338143
N  N9  1  0.90540000  0.15080000  0.89470000  1.0 -0.2782069389
N  N10  1  0.15080000  0.90540000  0.60530000  1.0 -0.2782069389
N  N11  1  0.09460000  0.84920000  0.10530000  1.0 -0.2782069389
N  N12  1  0.84920000  0.09460000  0.39470000  1.0 -0.2782069389
N  N13  1  0.60890000  0.35130000  0.59050000  1.0 -0.2289993082
N  N14  1  0.35130000  0.60890000  0.90950000  1.0 -0.2289993082
N  N15  1  0.39110000  0.64870000  0.40950000  1.0 -0.2289993082
N  N16  1  0.64870000  0.39110000  0.09050000  1.0 -0.2289993082
N  N17  1  0.51620000  0.65900000  0.45030000  1.0 -0.406669939
N  N18  1  0.65900000  0.51620000  0.04970000  1.0 -0.406669939
N  N19  1  0.48380000  0.34100000  0.54970000  1.0 -0.406669939
N  N20  1  0.34100000  0.48380000  0.95030000  1.0 -0.406669939
N  N21  1  0.62170000  0.77310000  0.48660000  1.0 -0.2523285244
N  N22  1  0.77310000  0.62170000  0.01340000  1.0 -0.2523285244
N  N23  1  0.37830000  0.22690000  0.51340000  1.0 -0.2523285244
N  N24  1  0.22690000  0.37830000  0.98660000  1.0 -0.2523285244
N  N25  1  0.74690000  0.69550000  0.51130000  1.0 -0.1687462684
N  N26  1  0.69550000  0.74690000  0.98870000  1.0 -0.1687462684
N  N27  1  0.25310000  0.30450000  0.48870000  1.0 -0.1687462684
N  N28  1  0.30450000  0.25310000  0.01130000  1.0 -0.1687462684
N  N29  1  0.69750000  0.87430000  0.97460000  1.0 -0.3943795953
N  N30  1  0.87430000  0.69750000  0.52540000  1.0 -0.3960516099
N  N31  1  0.30250000  0.12570000  0.02540000  1.0 -0.3943795953
N  N32  1  0.12570000  0.30250000  0.47460000  1.0 -0.3960516099
N  N33  1  0.67120000  0.84020000  0.49880000  1.0 -0.2018787954
N  N34  1  0.84020000  0.67120000  0.00120000  1.0 -0.2018787954
N  N35  1  0.32880000  0.15980000  0.50120000  1.0 -0.2018787954
N  N36  1  0.15980000  0.32880000  0.99880000  1.0 -0.2018787954
N  N37  1  0.79140000  0.76080000  0.52940000  1.0 -0.2170600389
N  N38  1  0.76080000  0.79140000  0.97060000  1.0 -0.2170600389
N  N39  1  0.20860000  0.23920000  0.47060000  1.0 -0.2170600389
N  N40  1  0.23920000  0.20860000  0.02940000  1.0 -0.2170600389
N  N41  1  0.57000000  0.87600000  0.43980000  1.0 -0.421639869
N  N42  1  0.87600000  0.57000000  0.06020000  1.0 -0.421639869
N  N43  1  0.43000000  0.12400000  0.56020000  1.0 -0.421639869
N  N44  1  0.12400000  0.43000000  0.93980000  1.0 -0.421639869
N  N45  1  0.75760000  0.97660000  0.50880000  1.0 -0.2740206067
N  N46  1  0.97660000  0.75760000  0.99120000  1.0 -0.2740206067
N  N47  1  0.24240000  0.02340000  0.49120000  1.0 -0.2740206067
N  N48  1  0.02340000  0.24240000  0.00880000  1.0 -0.2740206067
N  N49  1  0.89600000  0.89080000  0.54900000  1.0 -0.2401339833
N  N50  1  0.89080000  0.89600000  0.95100000  1.0 -0.2401339833
N  N51  1  0.10400000  0.10920000  0.45100000  1.0 -0.2401339833
N  N52  1  0.10920000  0.10400000  0.04900000  1.0 -0.2401339833
N  N53  1  0.96040000  0.94940000  0.56230000  1.0 -0.2289993082
N  N54  1  0.94940000  0.96040000  0.93770000  1.0 -0.2289993082
N  N55  1  0.03960000  0.05060000  0.43770000  1.0 -0.2289993082
N  N56  1  0.05060000  0.03960000  0.06230000  1.0 -0.2401339833
O  O1  1  0.33440000  0.16320000  0.70970000  1.0 -0.9495454639
O  O2  1  0.16320000  0.33440000  0.79030000  1.0 -0.9495454639
O  O3  1  0.66560000  0.83680000  0.29030000  1.0 -0.9495454639
O  O4  1  0.83680000  0.66560000  0.20970000  1.0 -0.9495454639
O  O5  1  0.37350000  0.08610000  0.80540000  1.0 -0.9389842907
O  O6  1  0.08610000  0.37350000  0.69460000  1.0 -0.9389842907
O  O7  1  0.62650000  0.91390000  0.19460000  1.0 -0.9389842907
O  O8  1  0.91390000  0.62650000  0.30540000  1.0 -0.9495454639
O  O9  1  0.21630000  0.06890000  0.80770000  1.0 -0.9805217061
O  O10  1  0.06890000  0.21630000  0.69230000  1.0 -0.9805217061
O  O11  1  0.78370000  0.93110000  0.19230000  1.0 -0.9805217061
O  O12  1  0.93110000  0.78370000  0.30770000  1.0 -0.9805217061
O  O13  1  0.18560000  0.13520000  0.70900000  1.0 -0.9805217061
O  O14  1  0.13520000  0.18560000  0.79100000  1.0 -0.9805217061
O  O15  1  0.81440000  0.86480000  0.29100000  1.0 -0.9805217061
O  O16  1  0.86480000  0.81440000  0.20900000  1.0 -0.9805217061
O  O17  1  0.29220000  0.21080000  0.78260000  1.0 -0.9289806529
O  O18  1  0.21080000  0.29220000  0.71740000  1.0 -0.9289806529
O  O19  1  0.70780000  0.78920000  0.21740000  1.0 -0.9289806529
O  O20  1  0.78920000  0.70780000  0.28260000  1.0 -0.9289806529
O  O21  1  0.24580000  0.25060000  0.64080000  1.0 -0.9389842907
O  O22  1  0.25060000  0.24580000  0.85920000  1.0 -0.9389842907
O  O23  1  0.75420000  0.74940000  0.35920000  1.0 -0.9389842907
O  O24  1  0.74940000  0.75420000  0.14080000  1.0 -0.9389842907
O  O25  1  0.38320000  0.36700000  0.62570000  1.0 -0.9107709654
O  O26  1  0.36700000  0.38320000  0.87430000  1.0 -0.9107709654
O  O27  1  0.61680000  0.63300000  0.37430000  1.0 -0.9107709654
O  O28  1  0.63300000  0.61680000  0.12570000  1.0 -0.9107709654
O  O29  1  0.35420000  0.31620000  0.71720000  1.0 -0.787812888
O  O30  1  0.31620000  0.35420000  0.78280000  1.0 -0.787812888
O  O31  1  0.64580000  0.68380000  0.28280000  1.0 -0.787812888
O  O32  1  0.68380000  0.64580000  0.21720000  1.0 -0.787812888
O  O33  1  0.46840000  0.27240000  0.69380000  1.0 -0.8878387753
O  O34  1  0.27240000  0.46840000  0.80620000  1.0 -0.8878387753
O  O35  1  0.53160000  0.72760000  0.30620000  1.0 -0.8878387753
O  O36  1  0.72760000  0.53160000  0.19380000  1.0 -0.8878387753
O  O37  1  0.45200000  0.07680000  0.90070000  1.0 -0.9607847128
O  O38  1  0.07680000  0.45200000  0.59930000  1.0 -0.9607847128
O  O39  1  0.54800000  0.92320000  0.09930000  1.0 -0.9607847128
O  O40  1  0.92320000  0.54800000  0.40070000  1.0 -0.9607847128
O  O41  1  0.59220000  0.14680000  0.86950000  1.0 -0.9495454639
O  O42  1  0.14680000  0.59220000  0.63050000  1.0 -0.9495454639
O  O43  1  0.40780000  0.85320000  0.13050000  1.0 -0.9495454639
O  O44  1  0.85320000  0.40780000  0.36950000  1.0 -0.9495454639
O  O45  1  0.50540000  0.16440000  0.77710000  1.0 -0.9716944888
O  O46  1  0.16440000  0.50540000  0.72290000  1.0 -0.9607847128
O  O47  1  0.49460000  0.83560000  0.22290000  1.0 -0.9607847128
O  O48  1  0.83560000  0.49460000  0.27710000  1.0 -0.9607847128
O  O49  1  0.46530000  0.21530000  0.85090000  1.0 -0.918117261
O  O50  1  0.21530000  0.46530000  0.64910000  1.0 -0.918117261
O  O51  1  0.53470000  0.78470000  0.14910000  1.0 -0.918117261
O  O52  1  0.78470000  0.53470000  0.35090000  1.0 -0.918117261
O  O53  1  0.32110000  0.13210000  0.88180000  1.0 -0.8795661722
O  O54  1  0.13210000  0.32110000  0.61820000  1.0 -0.8795661722
O  O55  1  0.67890000  0.86790000  0.11820000  1.0 -0.8795661722
O  O56  1  0.86790000  0.67890000  0.38180000  1.0 -0.8795661722
O  O57  1  0.25520000  0.42040000  0.57730000  1.0 -0.9289806529
O  O58  1  0.42040000  0.25520000  0.92270000  1.0 -0.9289806529
O  O59  1  0.74480000  0.57960000  0.42270000  1.0 -0.9289806529
O  O60  1  0.57960000  0.74480000  0.07730000  1.0 -0.9289806529
O  O61  1  0.47650000  0.51250000  0.60050000  1.0 -0.8714782817
O  O62  1  0.51250000  0.47650000  0.89950000  1.0 -0.8714782817
O  O63  1  0.52350000  0.48750000  0.39950000  1.0 -0.8714782817
O  O64  1  0.48750000  0.52350000  0.10050000  1.0 -0.8714782817
O  O65  1  0.36040000  0.48660000  0.65020000  1.0 -0.787812888
O  O66  1  0.48660000  0.36040000  0.84980000  1.0 -0.787812888
O  O67  1  0.63960000  0.51340000  0.34980000  1.0 -0.787812888
O  O68  1  0.51340000  0.63960000  0.15020000  1.0 -0.787812888
O  O69  1  0.34500000  0.56240000  0.55100000  1.0 -0.9389842907
O  O70  1  0.56240000  0.34500000  0.94900000  1.0 -0.9389842907
O  O71  1  0.65500000  0.43760000  0.44900000  1.0 -0.9389842907
O  O72  1  0.43760000  0.65500000  0.05100000  1.0 -0.9389842907
O  O73  1  0.36810000  0.43450000  0.52850000  1.0 -0.7818641905
O  O74  1  0.43450000  0.36810000  0.97150000  1.0 -0.7818641905
O  O75  1  0.63190000  0.56550000  0.47150000  1.0 -0.7818641905
O  O76  1  0.56550000  0.63190000  0.02850000  1.0 -0.7818641905
O  O77  1  0.52030000  0.31990000  0.78260000  1.0 -0.7994534963
O  O78  1  0.31990000  0.52030000  0.71740000  1.0 -0.7994534963
O  O79  1  0.47970000  0.68010000  0.21740000  1.0 -0.7994534963
O  O80  1  0.68010000  0.47970000  0.28260000  1.0 -0.7994534963
O  O81  1  0.64840000  0.25960000  0.79980000  1.0 -0.9107709654
O  O82  1  0.25960000  0.64840000  0.70020000  1.0 -0.9107709654
O  O83  1  0.35160000  0.74040000  0.20020000  1.0 -0.9107709654
O  O84  1  0.74040000  0.35160000  0.29980000  1.0 -0.9107709654
O  O85  1  0.59880000  0.21860000  0.70820000  1.0 -0.7410291825
O  O86  1  0.21860000  0.59880000  0.79180000  1.0 -0.7410291825
O  O87  1  0.40120000  0.78140000  0.29180000  1.0 -0.7410291825
O  O88  1  0.78140000  0.40120000  0.20820000  1.0 -0.7410291825
O  O89  1  0.61300000  0.36940000  0.71620000  1.0 -0.8993890454
O  O90  1  0.36940000  0.61300000  0.78380000  1.0 -0.8993890454
O  O91  1  0.38700000  0.63060000  0.28380000  1.0 -0.8993890454
O  O92  1  0.63060000  0.38700000  0.21620000  1.0 -0.8993890454
O  O93  1  0.40190000  0.09890000  0.97780000  1.0 -0.8143284116
O  O94  1  0.09890000  0.40190000  0.52220000  1.0 -0.815645555
O  O95  1  0.59810000  0.90110000  0.02220000  1.0 -0.8143284116
O  O96  1  0.90110000  0.59810000  0.47780000  1.0 -0.815645555
O  O97  1  0.54010000  0.19230000  0.95090000  1.0 -0.9289806529
O  O98  1  0.19230000  0.54010000  0.54910000  1.0 -0.9289806529
O  O99  1  0.45990000  0.80770000  0.04910000  1.0 -0.9289806529
O  O100  1  0.80770000  0.45990000  0.45090000  1.0 -0.9289806529
O  O101  1  0.75270000  0.18290000  0.87640000  1.0 -0.7994534963
O  O102  1  0.18290000  0.75270000  0.62360000  1.0 -0.7994534963
O  O103  1  0.24730000  0.81710000  0.12360000  1.0 -0.7994534963
O  O104  1  0.81710000  0.24730000  0.37640000  1.0 -0.7994534963
O  O105  1  0.69210000  0.22770000  0.93810000  1.0 -0.9389842907
O  O106  1  0.22770000  0.69210000  0.56190000  1.0 -0.9389842907
O  O107  1  0.30790000  0.77230000  0.06190000  1.0 -0.9389842907
O  O108  1  0.77230000  0.30790000  0.43810000  1.0 -0.9389842907
O  O109  1  0.76330000  0.33790000  0.86450000  1.0 -0.8714782817
O  O110  1  0.33790000  0.76330000  0.63550000  1.0 -0.8714782817
O  O111  1  0.23670000  0.66210000  0.13550000  1.0 -0.8795661722
O  O112  1  0.66210000  0.23670000  0.36450000  1.0 -0.8714782817
O  O113  1  0.60240000  0.30060000  0.87160000  1.0 -0.9107709654
O  O114  1  0.30060000  0.60240000  0.62840000  1.0 -0.9107709654
O  O115  1  0.39760000  0.69940000  0.12840000  1.0 -0.9107709654
O  O116  1  0.69940000  0.39760000  0.37160000  1.0 -0.9107709654
O  O117  1  0.51670000  0.67210000  0.57800000  1.0 -0.9389842907
O  O118  1  0.67210000  0.51670000  0.92200000  1.0 -0.9389842907
O  O119  1  0.48330000  0.32790000  0.42200000  1.0 -0.9389842907
O  O120  1  0.32790000  0.48330000  0.07800000  1.0 -0.9389842907
O  O121  1  0.52970000  0.59230000  0.67490000  1.0 -0.7994534963
O  O122  1  0.59230000  0.52970000  0.82510000  1.0 -0.7994534963
O  O123  1  0.47030000  0.40770000  0.32510000  1.0 -0.7994534963
O  O124  1  0.40770000  0.47030000  0.17490000  1.0 -0.7994534963
O  O125  1  0.60580000  0.59120000  0.56050000  1.0 -0.7748397384
O  O126  1  0.59120000  0.60580000  0.93950000  1.0 -0.7748397384
O  O127  1  0.39420000  0.40880000  0.43950000  1.0 -0.7748397384
O  O128  1  0.40880000  0.39420000  0.06050000  1.0 -0.7748397384
O  O129  1  0.65990000  0.67610000  0.63380000  1.0 -0.8993890454
O  O130  1  0.67610000  0.65990000  0.86620000  1.0 -0.8993890454
O  O131  1  0.34010000  0.32390000  0.36620000  1.0 -0.8993890454
O  O132  1  0.32390000  0.34010000  0.13380000  1.0 -0.8993890454
O  O133  1  0.61940000  0.51440000  0.65850000  1.0 -0.8878387753
O  O134  1  0.51440000  0.61940000  0.84150000  1.0 -0.8878387753
O  O135  1  0.38060000  0.48560000  0.34150000  1.0 -0.8878387753
O  O136  1  0.48560000  0.38060000  0.15850000  1.0 -0.8878387753
O  O137  1  0.37540000  0.71240000  0.55670000  1.0 -0.9107709654
O  O138  1  0.71240000  0.37540000  0.94330000  1.0 -0.918117261
O  O139  1  0.62460000  0.28760000  0.44330000  1.0 -0.918117261
O  O140  1  0.28760000  0.62460000  0.05670000  1.0 -0.9107709654
O  O141  1  0.72640000  0.28060000  0.64430000  1.0 -0.8494974766
O  O142  1  0.28060000  0.72640000  0.85570000  1.0 -0.8494974766
O  O143  1  0.27360000  0.71940000  0.35570000  1.0 -0.8494974766
O  O144  1  0.71940000  0.27360000  0.14430000  1.0 -0.8494974766
O  O145  1  0.62960000  0.49140000  0.75790000  1.0 -0.787812888
O  O146  1  0.49140000  0.62960000  0.74210000  1.0 -0.787812888
O  O147  1  0.37040000  0.50860000  0.24210000  1.0 -0.787812888
O  O148  1  0.50860000  0.37040000  0.25790000  1.0 -0.787812888
O  O149  1  0.75620000  0.42760000  0.77440000  1.0 -0.9389842907
O  O150  1  0.42760000  0.75620000  0.72560000  1.0 -0.9389842907
O  O151  1  0.24380000  0.57240000  0.22560000  1.0 -0.9389842907
O  O152  1  0.57240000  0.24380000  0.27440000  1.0 -0.9389842907
O  O153  1  0.74170000  0.44490000  0.67590000  1.0 -0.7488784735
O  O154  1  0.44490000  0.74170000  0.82410000  1.0 -0.7488784735
O  O155  1  0.25830000  0.55510000  0.32410000  1.0 -0.7488784735
O  O156  1  0.55510000  0.25830000  0.17590000  1.0 -0.7488784735
O  O157  1  0.75850000  0.57090000  0.71700000  1.0 -0.9607847128
O  O158  1  0.57090000  0.75850000  0.78300000  1.0 -0.9607847128
O  O159  1  0.24150000  0.42910000  0.28300000  1.0 -0.9607847128
O  O160  1  0.42910000  0.24150000  0.21700000  1.0 -0.9607847128
O  O161  1  0.68830000  0.02330000  0.90950000  1.0 -0.8568328712
O  O162  1  0.02330000  0.68830000  0.59050000  1.0 -0.8568328712
O  O163  1  0.31170000  0.97670000  0.09050000  1.0 -0.8568328712
O  O164  1  0.97670000  0.31170000  0.40950000  1.0 -0.8568328712
O  O165  1  0.84400000  0.46580000  0.90170000  1.0 -0.9495454639
O  O166  1  0.46580000  0.84400000  0.59830000  1.0 -0.9495454639
O  O167  1  0.15600000  0.53420000  0.09830000  1.0 -0.9495454639
O  O168  1  0.53420000  0.15600000  0.40170000  1.0 -0.9495454639
O  O169  1  0.84770000  0.55710000  0.80590000  1.0 -0.9918923769
O  O170  1  0.55710000  0.84770000  0.69410000  1.0 -0.9918923769
O  O171  1  0.15230000  0.44290000  0.19410000  1.0 -0.9918923769
O  O172  1  0.44290000  0.15230000  0.30590000  1.0 -0.9918923769
O  O173  1  0.71260000  0.47480000  0.84560000  1.0 -0.918117261
O  O174  1  0.47480000  0.71260000  0.65440000  1.0 -0.918117261
O  O175  1  0.28740000  0.52520000  0.15440000  1.0 -0.918117261
O  O176  1  0.52520000  0.28740000  0.34560000  1.0 -0.918117261
O  O177  1  0.59940000  0.79880000  0.60940000  1.0 -0.918117261
O  O178  1  0.79880000  0.59940000  0.89060000  1.0 -0.918117261
O  O179  1  0.40060000  0.20120000  0.39060000  1.0 -0.918117261
O  O180  1  0.20120000  0.40060000  0.10940000  1.0 -0.918117261
O  O181  1  0.61020000  0.71480000  0.70790000  1.0 -0.918117261
O  O182  1  0.71480000  0.61020000  0.79210000  1.0 -0.918117261
O  O183  1  0.38980000  0.28520000  0.29210000  1.0 -0.918117261
O  O184  1  0.28520000  0.38980000  0.20790000  1.0 -0.918117261
O  O185  1  0.70500000  0.84900000  0.69300000  1.0 -0.9716944888
O  O186  1  0.84900000  0.70500000  0.80700000  1.0 -0.9716944888
O  O187  1  0.29500000  0.15100000  0.30700000  1.0 -0.9805217061
O  O188  1  0.15100000  0.29500000  0.19300000  1.0 -0.9805217061
O  O189  1  0.75870000  0.83270000  0.61440000  1.0 -0.7628421281
O  O190  1  0.83270000  0.75870000  0.88560000  1.0 -0.7628421281
O  O191  1  0.24130000  0.16730000  0.38560000  1.0 -0.7628421281
O  O192  1  0.16730000  0.24130000  0.11440000  1.0 -0.7628421281
O  O193  1  0.76710000  0.72610000  0.70830000  1.0 -0.9107709654
O  O194  1  0.72610000  0.76710000  0.79170000  1.0 -0.9107709654
O  O195  1  0.23290000  0.27390000  0.29170000  1.0 -0.9107709654
O  O196  1  0.27390000  0.23290000  0.20830000  1.0 -0.9107709654
O  O197  1  0.44590000  0.47470000  0.77140000  1.0 -0.1797525976
O  O198  1  0.47470000  0.44590000  0.72860000  1.0 -0.1797525976
O  O199  1  0.55410000  0.52530000  0.22860000  1.0 -0.1797525976
O  O200  1  0.52530000  0.55410000  0.27140000  1.0 -0.1797525976
