# DDEC6 charges by PACMAN v1.1 (https://github.com/mtap-research/PACMAN-charge/)
data_JUKPAI_ASR_pacman
_symmetry_space_group_name_H-M   'P 1'
_cell_length_a   21.58190000
_cell_length_b   19.22790000
_cell_length_c   32.03070000
_cell_angle_alpha   90.00000000
_cell_angle_beta   126.85200000
_cell_angle_gamma   90.00000000
_symmetry_Int_Tables_number   1
_chemical_formula_structural   KCu5P5H23W20C27N21O65
_chemical_formula_sum   'K4 Cu20 P20 H92 W80 C108 N84 O260'
_cell_volume   10636.03262430
_cell_formula_units_Z   4
loop_
 _symmetry_equiv_pos_site_id
 _symmetry_equiv_pos_as_xyz
  1  'x, y, z'
loop_
 _atom_site_type_symbol
 _atom_site_label
 _atom_site_symmetry_multiplicity
 _atom_site_fract_x
 _atom_site_fract_y
 _atom_site_fract_z
 _atom_site_occupancy
 _atom_site_charge
K  K1  1  0.96870000  0.55990000  0.51790000  1.0 0.6679871471
K  K2  1  0.03130000  0.05990000  0.98210000  1.0 0.6679871471
K  K3  1  0.03130000  0.44010000  0.48210000  1.0 0.6679871471
K  K4  1  0.96870000  0.94010000  0.01790000  1.0 0.6679871471
Cu  Cu1  1  0.43172000  0.41587000  0.31624000  1.0 0.6170517968
Cu  Cu2  1  0.56828000  0.91587000  0.18376000  1.0 0.6170517968
Cu  Cu3  1  0.56828000  0.58413000  0.68376000  1.0 0.6170517968
Cu  Cu4  1  0.43172000  0.08413000  0.81624000  1.0 0.6170517968
Cu  Cu5  1  0.47818000  0.33875000  0.24147000  1.0 0.6679871471
Cu  Cu6  1  0.52182000  0.83875000  0.25853000  1.0 0.6679871471
Cu  Cu7  1  0.52182000  0.66125000  0.75853000  1.0 0.6679871471
Cu  Cu8  1  0.47818000  0.16125000  0.74147000  1.0 0.6679871471
Cu  Cu9  1  0.55220000  0.17093000  0.27228000  1.0 0.7770964967
Cu  Cu10  1  0.44780000  0.67093000  0.22772000  1.0 0.7770964967
Cu  Cu11  1  0.44780000  0.82907000  0.72772000  1.0 0.7770964967
Cu  Cu12  1  0.55220000  0.32907000  0.77228000  1.0 0.7770964967
Cu  Cu13  1  0.54091000  0.09010000  0.36089000  1.0 0.4145990478
Cu  Cu14  1  0.45909000  0.59010000  0.13911000  1.0 0.4145990478
Cu  Cu15  1  0.45909000  0.90990000  0.63911000  1.0 0.4152387844
Cu  Cu16  1  0.54091000  0.40990000  0.86089000  1.0 0.4152387844
Cu  Cu17  1  0.49342000  0.25356000  0.65771000  1.0 0.3896884935
Cu  Cu18  1  0.50658000  0.75356000  0.84229000  1.0 0.3896884935
Cu  Cu19  1  0.50658000  0.74644000  0.34229000  1.0 0.3896884935
Cu  Cu20  1  0.49342000  0.24644000  0.15771000  1.0 0.3896884935
P  P1  1  0.06240000  0.63000000  0.45390000  1.0 0.480575435
P  P2  1  0.93760000  0.13000000  0.04610000  1.0 0.480575435
P  P3  1  0.93760000  0.37000000  0.54610000  1.0 0.480575435
P  P4  1  0.06240000  0.87000000  0.95390000  1.0 0.480575435
P  P5  1  0.84620000  0.53500000  0.36790000  1.0 0.4693344947
P  P6  1  0.15380000  0.03500000  0.13210000  1.0 0.4693344947
P  P7  1  0.15380000  0.46500000  0.63210000  1.0 0.4693344947
P  P8  1  0.84620000  0.96500000  0.86790000  1.0 0.4693344947
P  P9  1  0.94400000  0.59960000  0.39050000  1.0 0.480575435
P  P10  1  0.05600000  0.09960000  0.10950000  1.0 0.480575435
P  P11  1  0.05600000  0.40040000  0.60950000  1.0 0.480575435
P  P12  1  0.94400000  0.90040000  0.89050000  1.0 0.480575435
P  P13  1  0.15530000  0.60510000  0.53330000  1.0 0.4693344947
P  P14  1  0.84470000  0.10510000  0.96670000  1.0 0.480575435
P  P15  1  0.84470000  0.39490000  0.46670000  1.0 0.480575435
P  P16  1  0.15530000  0.89490000  0.03330000  1.0 0.4693344947
P  P17  1  0.19170000  0.54470000  0.60260000  1.0 0.4405475201
P  P18  1  0.80830000  0.04470000  0.89740000  1.0 0.4405475201
P  P19  1  0.80830000  0.45530000  0.39740000  1.0 0.4405475201
P  P20  1  0.19170000  0.95530000  0.10260000  1.0 0.4405475201
H  H1  1  0.61270000  0.47020000  0.76390000  1.0 0.2110632675
H  H2  1  0.38730000  0.97020000  0.73610000  1.0 0.2110632675
H  H3  1  0.38730000  0.52980000  0.23610000  1.0 0.2110632675
H  H4  1  0.61270000  0.02980000  0.26390000  1.0 0.2110632675
H  H5  1  0.54140000  0.98600000  0.29410000  1.0 0.2022592293
H  H6  1  0.45860000  0.48600000  0.20590000  1.0 0.2022592293
H  H7  1  0.45860000  0.01400000  0.70590000  1.0 0.2022592293
H  H8  1  0.54140000  0.51400000  0.79410000  1.0 0.2022592293
H  H9  1  0.41840000  0.43260000  0.57890000  1.0 0.1192488538
H  H10  1  0.58160000  0.93260000  0.92110000  1.0 0.1192488538
H  H11  1  0.58160000  0.56740000  0.42110000  1.0 0.1192488538
H  H12  1  0.41840000  0.06740000  0.07890000  1.0 0.1192488538
H  H13  1  0.35920000  0.43480000  0.48680000  1.0 0.1072147842
H  H14  1  0.64080000  0.93480000  0.01320000  1.0 0.1072147842
H  H15  1  0.64080000  0.56520000  0.51320000  1.0 0.1072147842
H  H16  1  0.35920000  0.06520000  0.98680000  1.0 0.1072147842
H  H17  1  0.57400000  0.40540000  0.52980000  1.0 0.1072147842
H  H18  1  0.42600000  0.90540000  0.97020000  1.0 0.1072147842
H  H19  1  0.42600000  0.59460000  0.47020000  1.0 0.1072147842
H  H20  1  0.57400000  0.09460000  0.02980000  1.0 0.1072147842
H  H21  1  0.62000000  0.40300000  0.61820000  1.0 0.1072147842
H  H22  1  0.38000000  0.90300000  0.88180000  1.0 0.1072147842
H  H23  1  0.38000000  0.59700000  0.38180000  1.0 0.1072147842
H  H24  1  0.62000000  0.09700000  0.11820000  1.0 0.1072147842
H  H25  1  0.31400000  0.43700000  0.40920000  1.0 0.134150395
H  H26  1  0.68600000  0.93700000  0.09080000  1.0 0.134150395
H  H27  1  0.68600000  0.56300000  0.59080000  1.0 0.134150395
H  H28  1  0.31400000  0.06300000  0.90920000  1.0 0.134150395
H  H29  1  0.52100000  0.40740000  0.43930000  1.0 0.1192488538
H  H30  1  0.47900000  0.90740000  0.06070000  1.0 0.1192488538
H  H31  1  0.47900000  0.59260000  0.56070000  1.0 0.1192488538
H  H32  1  0.52100000  0.09260000  0.93930000  1.0 0.1192488538
H  H33  1  0.35530000  0.24430000  0.34640000  1.0 0.1192488538
H  H34  1  0.64470000  0.74430000  0.15360000  1.0 0.1192488538
H  H35  1  0.64470000  0.75570000  0.65360000  1.0 0.1192488538
H  H36  1  0.35530000  0.25570000  0.84640000  1.0 0.1192488538
H  H37  1  0.33290000  0.24770000  0.41250000  1.0 0.1192488538
H  H38  1  0.66710000  0.74770000  0.08750000  1.0 0.1192488538
H  H39  1  0.66710000  0.75230000  0.58750000  1.0 0.1192488538
H  H40  1  0.33290000  0.25230000  0.91250000  1.0 0.1192488538
H  H41  1  0.56150000  0.24880000  0.52220000  1.0 0.1072147842
H  H42  1  0.43850000  0.74880000  0.97780000  1.0 0.1072147842
H  H43  1  0.43850000  0.75120000  0.47780000  1.0 0.1072147842
H  H44  1  0.56150000  0.25120000  0.02220000  1.0 0.1072147842
H  H45  1  0.58180000  0.25560000  0.45550000  1.0 0.1192488538
H  H46  1  0.41820000  0.75560000  0.04450000  1.0 0.1192488538
H  H47  1  0.41820000  0.74440000  0.54450000  1.0 0.1192488538
H  H48  1  0.58180000  0.24440000  0.95550000  1.0 0.1192488538
H  H49  1  0.54280000  0.25620000  0.58080000  1.0 0.1034182708
H  H50  1  0.45720000  0.75620000  0.91920000  1.0 0.1034182708
H  H51  1  0.45720000  0.74380000  0.41920000  1.0 0.1034182708
H  H52  1  0.54280000  0.24380000  0.08080000  1.0 0.1034182708
H  H53  1  0.32890000  0.25570000  0.54450000  1.0 0.1192488538
H  H54  1  0.67110000  0.75570000  0.95550000  1.0 0.1192488538
H  H55  1  0.67110000  0.74430000  0.45550000  1.0 0.1192488538
H  H56  1  0.32890000  0.24430000  0.04450000  1.0 0.1192488538
H  H57  1  0.63640000  0.93170000  0.67660000  1.0 0.1192488538
H  H58  1  0.36360000  0.43170000  0.82340000  1.0 0.1192488538
H  H59  1  0.36360000  0.06830000  0.32340000  1.0 0.1192488538
H  H60  1  0.63640000  0.56830000  0.17660000  1.0 0.1192488538
H  H61  1  0.44360000  0.90390000  0.53370000  1.0 0.1034182708
H  H62  1  0.55640000  0.40390000  0.96630000  1.0 0.1034182708
H  H63  1  0.55640000  0.09610000  0.46630000  1.0 0.1034182708
H  H64  1  0.44360000  0.59610000  0.03370000  1.0 0.1034182708
H  H65  1  0.43230000  0.89480000  0.46350000  1.0 0.1072147842
H  H66  1  0.56770000  0.39480000  0.03650000  1.0 0.1072147842
H  H67  1  0.56770000  0.10520000  0.53650000  1.0 0.1072147842
H  H68  1  0.43230000  0.60520000  0.96350000  1.0 0.1072147842
H  H69  1  0.43750000  0.89200000  0.39410000  1.0 0.1072147842
H  H70  1  0.56250000  0.39200000  0.10590000  1.0 0.1072147842
H  H71  1  0.56250000  0.10800000  0.60590000  1.0 0.1072147842
H  H72  1  0.43750000  0.60800000  0.89410000  1.0 0.1072147842
H  H73  1  0.65220000  0.95560000  0.47140000  1.0 0.1072147842
H  H74  1  0.34780000  0.45560000  0.02860000  1.0 0.1072147842
H  H75  1  0.34780000  0.04440000  0.52860000  1.0 0.1072147842
H  H76  1  0.65220000  0.54440000  0.97140000  1.0 0.1072147842
H  H77  1  0.66450000  0.95310000  0.55100000  1.0 0.1192488538
H  H78  1  0.33550000  0.45310000  0.94900000  1.0 0.1192488538
H  H79  1  0.33550000  0.04690000  0.44900000  1.0 0.1192488538
H  H80  1  0.66450000  0.54690000  0.05100000  1.0 0.1192488538
H  H81  1  0.62750000  0.07230000  0.33140000  1.0 0.3428788947
H  H82  1  0.37250000  0.57230000  0.16860000  1.0 0.3428788947
H  H83  1  0.37250000  0.92770000  0.66860000  1.0 0.3428788947
H  H84  1  0.62750000  0.42770000  0.83140000  1.0 0.3428788947
H  H85  1  0.44770000  0.45270000  0.25300000  1.0 0.3068255352
H  H86  1  0.55230000  0.95270000  0.24700000  1.0 0.3068255352
H  H87  1  0.55230000  0.54730000  0.74700000  1.0 0.3068255352
H  H88  1  0.44770000  0.04730000  0.75300000  1.0 0.3068255352
H  H89  1  0.57930000  0.22160000  0.74600000  1.0 0.359054433
H  H90  1  0.42070000  0.72160000  0.75400000  1.0 0.359054433
H  H91  1  0.42070000  0.77840000  0.25400000  1.0 0.359054433
H  H92  1  0.57930000  0.27840000  0.24600000  1.0 0.359054433
W  W1  1  0.23242000  0.64948000  0.47005000  1.0 2.0983846651
W  W2  1  0.76758000  0.14948000  0.02995000  1.0 2.0983846651
W  W3  1  0.76758000  0.35052000  0.52995000  1.0 2.0983846651
W  W4  1  0.23242000  0.85052000  0.97005000  1.0 2.0934718119
W  W5  1  0.03686000  0.64716000  0.33689000  1.0 2.4308137165
W  W6  1  0.96314000  0.14716000  0.16311000  1.0 2.4308137165
W  W7  1  0.96314000  0.35284000  0.66311000  1.0 2.4308137165
W  W8  1  0.03686000  0.85284000  0.83689000  1.0 2.4308137165
W  W9  1  0.84069000  0.55951000  0.26115000  1.0 2.3477852808
W  W10  1  0.15931000  0.05951000  0.23885000  1.0 2.3477852808
W  W11  1  0.15931000  0.44049000  0.73885000  1.0 2.3477852808
W  W12  1  0.84069000  0.94049000  0.76115000  1.0 2.3477852808
W  W13  1  0.71414000  0.42999000  0.26756000  1.0 2.2794483171
W  W14  1  0.28586000  0.92999000  0.23244000  1.0 2.2794483171
W  W15  1  0.28586000  0.57001000  0.73244000  1.0 2.2794483171
W  W16  1  0.71414000  0.07001000  0.76756000  1.0 2.2794483171
W  W17  1  0.71734000  0.30117000  0.35884000  1.0 2.306666659
W  W18  1  0.28266000  0.80117000  0.14116000  1.0 2.306666659
W  W19  1  0.28266000  0.69883000  0.64116000  1.0 2.306666659
W  W20  1  0.71734000  0.19883000  0.85884000  1.0 2.306666659
W  W21  1  0.64898000  0.42381000  0.39310000  1.0 2.2879623638
W  W22  1  0.35102000  0.92381000  0.10690000  1.0 2.2879623638
W  W23  1  0.35102000  0.57619000  0.60690000  1.0 2.2879623638
W  W24  1  0.64898000  0.07619000  0.89310000  1.0 2.2879623638
W  W25  1  0.65486000  0.55417000  0.30749000  1.0 1.9683347808
W  W26  1  0.34514000  0.05417000  0.19251000  1.0 1.9683347808
W  W27  1  0.34514000  0.44583000  0.69251000  1.0 1.9683347808
W  W28  1  0.65486000  0.94583000  0.80749000  1.0 1.9683347808
W  W29  1  0.77491000  0.68367000  0.29660000  1.0 2.2794483171
W  W30  1  0.22509000  0.18367000  0.20340000  1.0 2.2794483171
W  W31  1  0.22509000  0.31633000  0.70340000  1.0 2.2794483171
W  W32  1  0.77491000  0.81633000  0.79660000  1.0 2.2794483171
W  W33  1  0.97223000  0.76918000  0.37551000  1.0 2.3738348948
W  W34  1  0.02777000  0.26918000  0.12449000  1.0 2.3738348948
W  W35  1  0.02777000  0.23082000  0.62449000  1.0 2.3738348948
W  W36  1  0.97223000  0.73082000  0.87551000  1.0 2.3738348948
W  W37  1  0.16946000  0.77546000  0.50636000  1.0 2.386802362
W  W38  1  0.83054000  0.27546000  0.99364000  1.0 2.386802362
W  W39  1  0.83054000  0.22454000  0.49364000  1.0 2.386802362
W  W40  1  0.16946000  0.72454000  0.00636000  1.0 2.386802362
W  W41  1  0.92615000  0.40486000  0.34360000  1.0 1.0593914456
W  W42  1  0.07385000  0.90486000  0.15640000  1.0 1.0593914456
W  W43  1  0.07385000  0.59514000  0.65640000  1.0 1.0593914456
W  W44  1  0.92615000  0.09514000  0.84360000  1.0 1.0593914456
W  W45  1  0.12137000  0.49027000  0.41859000  1.0 1.0703174737
W  W46  1  0.87863000  0.99027000  0.08141000  1.0 1.0593914456
W  W47  1  0.87863000  0.50973000  0.58141000  1.0 1.0593914456
W  W48  1  0.12137000  0.00973000  0.91859000  1.0 1.0703174737
W  W49  1  0.80237000  0.66064000  0.42235000  1.0 1.0307535992
W  W50  1  0.19763000  0.16064000  0.07765000  1.0 1.0307535992
W  W51  1  0.19763000  0.33936000  0.57765000  1.0 1.0307535992
W  W52  1  0.80237000  0.83936000  0.92235000  1.0 1.0307535992
W  W53  1  0.99751000  0.74433000  0.49976000  1.0 0.9693539681
W  W54  1  0.00249000  0.24433000  0.00024000  1.0 0.9693539681
W  W55  1  0.00249000  0.25567000  0.50024000  1.0 0.9693539681
W  W56  1  0.99751000  0.75567000  0.99976000  1.0 0.9693539681
W  W57  1  0.79317000  0.53376000  0.50662000  1.0 0.9693539681
W  W58  1  0.20683000  0.03376000  0.99338000  1.0 0.9693539681
W  W59  1  0.20683000  0.46624000  0.49338000  1.0 0.9693539681
W  W60  1  0.79317000  0.96624000  0.00662000  1.0 0.9693539681
W  W61  1  0.98446000  0.53659000  0.63886000  1.0 0.9824039506
W  W62  1  0.01554000  0.03659000  0.86114000  1.0 0.9824039506
W  W63  1  0.01554000  0.46341000  0.36114000  1.0 0.9824039506
W  W64  1  0.98446000  0.96341000  0.13886000  1.0 0.9824039506
W  W65  1  0.10819000  0.66619000  0.63336000  1.0 0.908344335
W  W66  1  0.89181000  0.16619000  0.86664000  1.0 0.908344335
W  W67  1  0.89181000  0.33381000  0.36664000  1.0 0.908344335
W  W68  1  0.10819000  0.83381000  0.13336000  1.0 0.908344335
W  W69  1  0.76412000  0.58352000  0.44713000  1.0 1.0703174737
W  W70  1  0.23588000  0.08352000  0.05287000  1.0 1.0703174737
W  W71  1  0.23588000  0.41648000  0.55287000  1.0 1.0703174737
W  W72  1  0.76412000  0.91648000  0.94713000  1.0 1.0703174737
W  W73  1  0.88024000  0.71542000  0.43583000  1.0 0.8692007826
W  W74  1  0.11976000  0.21542000  0.06417000  1.0 0.8692007826
W  W75  1  0.11976000  0.28458000  0.56417000  1.0 0.8692007826
W  W76  1  0.88024000  0.78458000  0.93583000  1.0 0.8692007826
W  W77  1  0.07276000  0.72081000  0.56651000  1.0 0.908344335
W  W78  1  0.92724000  0.22081000  0.93349000  1.0 0.9045624005
W  W79  1  0.92724000  0.27919000  0.43349000  1.0 0.9045624005
W  W80  1  0.07276000  0.77919000  0.06651000  1.0 0.908344335
C  C1  1  0.54300000  0.41970000  0.65550000  1.0 0.2291779088
C  C2  1  0.45700000  0.91970000  0.84450000  1.0 0.2291779088
C  C3  1  0.45700000  0.58030000  0.34450000  1.0 0.2291779088
C  C4  1  0.54300000  0.08030000  0.15550000  1.0 0.2291779088
C  C5  1  0.52100000  0.42350000  0.60180000  1.0 0.0211521385
C  C6  1  0.47900000  0.92350000  0.89820000  1.0 0.0211521385
C  C7  1  0.47900000  0.57650000  0.39820000  1.0 0.0211521385
C  C8  1  0.52100000  0.07650000  0.10180000  1.0 0.0211521385
C  C9  1  0.44940000  0.42860000  0.56780000  1.0 -0.1171311973
C  C10  1  0.55060000  0.92860000  0.93220000  1.0 -0.1171311973
C  C11  1  0.55060000  0.57140000  0.43220000  1.0 -0.1171311973
C  C12  1  0.44940000  0.07140000  0.06780000  1.0 -0.1171311973
C  C13  1  0.41200000  0.42850000  0.51240000  1.0 -0.212704539
C  C14  1  0.58800000  0.92850000  0.98760000  1.0 -0.2220230026
C  C15  1  0.58800000  0.57150000  0.48760000  1.0 -0.212704539
C  C16  1  0.41200000  0.07150000  0.01240000  1.0 -0.212704539
C  C17  1  0.46730000  0.41760000  0.50250000  1.0 0.1072147842
C  C18  1  0.53270000  0.91760000  0.99750000  1.0 0.1034182708
C  C19  1  0.53270000  0.58240000  0.49750000  1.0 0.1072147842
C  C20  1  0.46730000  0.08240000  0.00250000  1.0 0.1072147842
C  C21  1  0.54010000  0.41070000  0.53840000  1.0 -0.2220230026
C  C22  1  0.45990000  0.91070000  0.96160000  1.0 -0.2220230026
C  C23  1  0.45990000  0.58930000  0.46160000  1.0 -0.2220230026
C  C24  1  0.54010000  0.08930000  0.03840000  1.0 -0.2220230026
C  C25  1  0.56800000  0.41130000  0.59150000  1.0 -0.1700176419
C  C26  1  0.43200000  0.91130000  0.90850000  1.0 -0.1700176419
C  C27  1  0.43200000  0.58870000  0.40850000  1.0 -0.1700176419
C  C28  1  0.56800000  0.08870000  0.09150000  1.0 -0.1700176419
C  C29  1  0.35320000  0.42760000  0.40590000  1.0 0.0211521385
C  C30  1  0.64680000  0.92760000  0.09410000  1.0 0.0211521385
C  C31  1  0.64680000  0.57240000  0.59410000  1.0 0.0211521385
C  C32  1  0.35320000  0.07240000  0.90590000  1.0 0.0211521385
C  C33  1  0.46800000  0.41290000  0.42180000  1.0 0.0859512182
C  C34  1  0.53200000  0.91290000  0.07820000  1.0 0.0859512182
C  C35  1  0.53200000  0.58710000  0.57820000  1.0 0.0859512182
C  C36  1  0.46800000  0.08710000  0.92180000  1.0 0.0859512182
C  C37  1  0.47580000  0.24650000  0.35130000  1.0 0.3007323908
C  C38  1  0.52420000  0.74650000  0.14870000  1.0 0.3007323908
C  C39  1  0.52420000  0.75350000  0.64870000  1.0 0.3007323908
C  C40  1  0.47580000  0.25350000  0.85130000  1.0 0.3007323908
C  C41  1  0.46600000  0.24580000  0.39630000  1.0 0.0021767484
C  C42  1  0.53400000  0.74580000  0.10370000  1.0 0.0021767484
C  C43  1  0.53400000  0.75420000  0.60370000  1.0 0.0021767484
C  C44  1  0.46600000  0.25420000  0.89630000  1.0 0.0021767484
C  C45  1  0.39660000  0.24550000  0.38170000  1.0 -0.1287061774
C  C46  1  0.60340000  0.74550000  0.11830000  1.0 -0.1287061774
C  C47  1  0.60340000  0.75450000  0.61830000  1.0 -0.1287061774
C  C48  1  0.39660000  0.25450000  0.88170000  1.0 -0.1287061774
C  C49  1  0.38250000  0.24690000  0.42130000  1.0 -0.212704539
C  C50  1  0.61750000  0.74690000  0.07870000  1.0 -0.212704539
C  C51  1  0.61750000  0.75310000  0.57870000  1.0 -0.212704539
C  C52  1  0.38250000  0.25310000  0.92130000  1.0 -0.212704539
C  C53  1  0.44750000  0.24700000  0.47210000  1.0 0.1072147842
C  C54  1  0.55250000  0.74700000  0.02790000  1.0 0.1072147842
C  C55  1  0.55250000  0.75300000  0.52790000  1.0 0.1072147842
C  C56  1  0.44750000  0.25300000  0.97210000  1.0 0.1072147842
C  C57  1  0.51980000  0.24890000  0.48690000  1.0 -0.2361791751
C  C58  1  0.48020000  0.74890000  0.01310000  1.0 -0.2361791751
C  C59  1  0.48020000  0.75110000  0.51310000  1.0 -0.2361791751
C  C60  1  0.51980000  0.25110000  0.98690000  1.0 -0.2361791751
C  C61  1  0.53270000  0.25110000  0.44730000  1.0 -0.1504962154
C  C62  1  0.46730000  0.75110000  0.05270000  1.0 -0.1504962154
C  C63  1  0.46730000  0.74890000  0.55270000  1.0 -0.1504962154
C  C64  1  0.53270000  0.24890000  0.94730000  1.0 -0.1504962154
C  C65  1  0.48940000  0.25300000  0.56210000  1.0 -0.0806236269
C  C66  1  0.51060000  0.75300000  0.93790000  1.0 -0.0806236269
C  C67  1  0.51060000  0.74700000  0.43790000  1.0 -0.0806236269
C  C68  1  0.48940000  0.24700000  0.06210000  1.0 -0.0806236269
C  C69  1  0.36940000  0.25340000  0.54180000  1.0 0.1753833907
C  C70  1  0.63060000  0.75340000  0.95820000  1.0 0.1753833907
C  C71  1  0.63060000  0.74660000  0.45820000  1.0 0.1753833907
C  C72  1  0.36940000  0.24660000  0.04180000  1.0 0.1753833907
C  C73  1  0.60080000  0.92950000  0.64050000  1.0 0.1192488538
C  C74  1  0.39920000  0.42950000  0.85950000  1.0 0.1192488538
C  C75  1  0.39920000  0.07050000  0.35950000  1.0 0.1192488538
C  C76  1  0.60080000  0.57050000  0.14050000  1.0 0.1192488538
C  C77  1  0.49420000  0.91390000  0.56210000  1.0 -0.0127253246
C  C78  1  0.50580000  0.41390000  0.93790000  1.0 -0.0127253246
C  C79  1  0.50580000  0.08610000  0.43790000  1.0 -0.0127253246
C  C80  1  0.49420000  0.58610000  0.06210000  1.0 -0.0127253246
C  C81  1  0.54480000  0.92600000  0.51370000  1.0 0.1192488538
C  C82  1  0.45520000  0.42600000  0.98630000  1.0 0.1192488538
C  C83  1  0.45520000  0.07400000  0.48630000  1.0 0.1192488538
C  C84  1  0.54480000  0.57400000  0.01370000  1.0 0.1192488538
C  C85  1  0.47690000  0.90700000  0.46700000  1.0 -0.2507281399
C  C86  1  0.52310000  0.40700000  0.03300000  1.0 -0.2507281399
C  C87  1  0.52310000  0.09300000  0.53300000  1.0 -0.2507281399
C  C88  1  0.47690000  0.59300000  0.96700000  1.0 -0.2507281399
C  C89  1  0.48140000  0.90790000  0.42570000  1.0 -0.1287061774
C  C90  1  0.51860000  0.40790000  0.07430000  1.0 -0.1287061774
C  C91  1  0.51860000  0.09210000  0.57430000  1.0 -0.1287061774
C  C92  1  0.48140000  0.59210000  0.92570000  1.0 -0.1287061774
C  C93  1  0.54090000  0.92860000  0.42450000  1.0 -0.0127253246
C  C94  1  0.45910000  0.42860000  0.07550000  1.0 -0.0127253246
C  C95  1  0.45910000  0.07140000  0.57550000  1.0 -0.0127253246
C  C96  1  0.54090000  0.57140000  0.92450000  1.0 -0.0127253246
C  C97  1  0.60980000  0.94420000  0.47080000  1.0 -0.1504962154
C  C98  1  0.39020000  0.44420000  0.02920000  1.0 -0.1504962154
C  C99  1  0.39020000  0.05580000  0.52920000  1.0 -0.1504962154
C  C100  1  0.60980000  0.55580000  0.97080000  1.0 -0.1504962154
C  C101  1  0.61770000  0.94350000  0.51890000  1.0 -0.212704539
C  C102  1  0.38230000  0.44350000  0.98110000  1.0 -0.212704539
C  C103  1  0.38230000  0.05650000  0.48110000  1.0 -0.212704539
C  C104  1  0.61770000  0.55650000  0.01890000  1.0 -0.212704539
C  C105  1  0.53530000  0.92740000  0.37650000  1.0 0.2504708933
C  C106  1  0.46470000  0.42740000  0.12350000  1.0 0.2504708933
C  C107  1  0.46470000  0.07260000  0.62350000  1.0 0.2504708933
C  C108  1  0.53530000  0.57260000  0.87650000  1.0 0.2504708933
N  N1  1  0.53970000  0.36140000  0.68100000  1.0 -0.2699424289
N  N2  1  0.46030000  0.86140000  0.81900000  1.0 -0.2699424289
N  N3  1  0.46030000  0.63860000  0.31900000  1.0 -0.2699424289
N  N4  1  0.53970000  0.13860000  0.18100000  1.0 -0.2699424289
N  N5  1  0.57000000  0.38460000  0.72850000  1.0 -0.0601467771
N  N6  1  0.43000000  0.88460000  0.77150000  1.0 -0.0601467771
N  N7  1  0.43000000  0.61540000  0.27150000  1.0 -0.0601467771
N  N8  1  0.57000000  0.11540000  0.22850000  1.0 -0.0601467771
N  N9  1  0.59130000  0.44760000  0.73510000  1.0 0.0460573973
N  N10  1  0.40870000  0.94760000  0.76490000  1.0 0.0460573973
N  N11  1  0.40870000  0.55240000  0.26490000  1.0 0.0460573973
N  N12  1  0.59130000  0.05240000  0.23510000  1.0 0.0460573973
N  N13  1  0.57540000  0.47540000  0.68870000  1.0 -0.3094173683
N  N14  1  0.42460000  0.97540000  0.81130000  1.0 -0.3094173683
N  N15  1  0.42460000  0.52460000  0.31130000  1.0 -0.3094173683
N  N16  1  0.57540000  0.02460000  0.18870000  1.0 -0.3094173683
N  N17  1  0.43400000  0.41950000  0.44470000  1.0 -0.0172268943
N  N18  1  0.56600000  0.91950000  0.05530000  1.0 -0.0172268943
N  N19  1  0.56600000  0.58050000  0.55530000  1.0 -0.0172268943
N  N20  1  0.43400000  0.08050000  0.94470000  1.0 -0.0172268943
N  N21  1  0.35000000  0.41860000  0.36670000  1.0 0.0280865298
N  N22  1  0.65000000  0.91860000  0.13330000  1.0 0.0280865298
N  N23  1  0.65000000  0.58140000  0.63330000  1.0 0.0280865298
N  N24  1  0.35000000  0.08140000  0.86670000  1.0 0.0280865298
N  N25  1  0.41730000  0.41520000  0.37160000  1.0 -0.2327332257
N  N26  1  0.58270000  0.91520000  0.12840000  1.0 -0.2327332257
N  N27  1  0.58270000  0.58480000  0.62840000  1.0 -0.2327332257
N  N28  1  0.41730000  0.08480000  0.87160000  1.0 -0.2327332257
N  N29  1  0.45900000  0.30140000  0.32240000  1.0 -0.3094173683
N  N30  1  0.54100000  0.80140000  0.17760000  1.0 -0.3094173683
N  N31  1  0.54100000  0.69860000  0.67760000  1.0 -0.3094173683
N  N32  1  0.45900000  0.19860000  0.82240000  1.0 -0.3094173683
N  N33  1  0.48090000  0.28230000  0.29240000  1.0 -0.0378517734
N  N34  1  0.51910000  0.78230000  0.20760000  1.0 -0.0378517734
N  N35  1  0.51910000  0.71770000  0.70760000  1.0 -0.0378517734
N  N36  1  0.48090000  0.21770000  0.79240000  1.0 -0.0378517734
N  N37  1  0.50860000  0.21870000  0.30320000  1.0 -0.0806236269
N  N38  1  0.49140000  0.71870000  0.19680000  1.0 -0.0806236269
N  N39  1  0.49140000  0.78130000  0.69680000  1.0 -0.0806236269
N  N40  1  0.50860000  0.28130000  0.80320000  1.0 -0.0806236269
N  N41  1  0.50790000  0.19610000  0.34350000  1.0 -0.2699424289
N  N42  1  0.49210000  0.69610000  0.15650000  1.0 -0.2699424289
N  N43  1  0.49210000  0.80390000  0.65650000  1.0 -0.2699424289
N  N44  1  0.50790000  0.30390000  0.84350000  1.0 -0.2699424289
N  N45  1  0.43690000  0.24870000  0.51100000  1.0 0.1192488538
N  N46  1  0.56310000  0.74870000  0.98900000  1.0 0.1192488538
N  N47  1  0.56310000  0.75130000  0.48900000  1.0 0.1192488538
N  N48  1  0.43690000  0.25130000  0.01100000  1.0 0.1192488538
N  N49  1  0.36080000  0.25160000  0.49550000  1.0 -0.2969428406
N  N50  1  0.63920000  0.75160000  0.00450000  1.0 -0.2969428406
N  N51  1  0.63920000  0.74840000  0.50450000  1.0 -0.2969428406
N  N52  1  0.36080000  0.24840000  0.99550000  1.0 -0.2941733731
N  N53  1  0.44430000  0.25150000  0.58240000  1.0 -0.3219067401
N  N54  1  0.55570000  0.75150000  0.91760000  1.0 -0.3219067401
N  N55  1  0.55570000  0.74850000  0.41760000  1.0 -0.3219067401
N  N56  1  0.44430000  0.24850000  0.08240000  1.0 -0.3219067401
N  N57  1  0.52130000  0.92050000  0.61370000  1.0 -0.3680430783
N  N58  1  0.47870000  0.42050000  0.88630000  1.0 -0.3680430783
N  N59  1  0.47870000  0.07950000  0.38630000  1.0 -0.3680430783
N  N60  1  0.52130000  0.57950000  0.11370000  1.0 -0.3680430783
N  N61  1  0.61850000  0.93450000  0.60770000  1.0 -0.2361791751
N  N62  1  0.38150000  0.43450000  0.89230000  1.0 -0.2361791751
N  N63  1  0.38150000  0.06550000  0.39230000  1.0 -0.2361791751
N  N64  1  0.61850000  0.56550000  0.10770000  1.0 -0.2361791751
N  N65  1  0.55400000  0.92470000  0.56080000  1.0 0.134150395
N  N66  1  0.44600000  0.42470000  0.93920000  1.0 0.134150395
N  N67  1  0.44600000  0.07530000  0.43920000  1.0 0.134150395
N  N68  1  0.55400000  0.57530000  0.06080000  1.0 0.134150395
N  N69  1  0.52410000  0.87310000  0.34770000  1.0 -0.2969428406
N  N70  1  0.47590000  0.37310000  0.15230000  1.0 -0.2969428406
N  N71  1  0.47590000  0.12690000  0.65230000  1.0 -0.2969428406
N  N72  1  0.52410000  0.62690000  0.84770000  1.0 -0.2969428406
N  N73  1  0.52520000  0.89750000  0.30750000  1.0 -0.0601467771
N  N74  1  0.47480000  0.39750000  0.19250000  1.0 -0.0601467771
N  N75  1  0.47480000  0.10250000  0.69250000  1.0 -0.0601467771
N  N76  1  0.52520000  0.60250000  0.80750000  1.0 -0.0601467771
N  N77  1  0.53720000  0.96030000  0.31430000  1.0 0.1072147842
N  N78  1  0.46280000  0.46030000  0.18570000  1.0 0.1072147842
N  N79  1  0.46280000  0.03970000  0.68570000  1.0 0.1072147842
N  N80  1  0.53720000  0.53970000  0.81430000  1.0 0.1072147842
N  N81  1  0.54320000  0.98530000  0.35430000  1.0 -0.2327332257
N  N82  1  0.45680000  0.48530000  0.14570000  1.0 -0.2327332257
N  N83  1  0.45680000  0.01470000  0.64570000  1.0 -0.2327332257
N  N84  1  0.54320000  0.51470000  0.85430000  1.0 -0.2327332257
O  O1  1  0.58750000  0.10170000  0.32350000  1.0 -0.8093880473
O  O2  1  0.41250000  0.60170000  0.17650000  1.0 -0.8093880473
O  O3  1  0.41250000  0.89830000  0.67650000  1.0 -0.8093880473
O  O4  1  0.58750000  0.39830000  0.82350000  1.0 -0.8093880473
O  O5  1  0.45180000  0.40980000  0.26790000  1.0 -0.7652504279
O  O6  1  0.54820000  0.90980000  0.23210000  1.0 -0.7652504279
O  O7  1  0.54820000  0.59020000  0.73210000  1.0 -0.7652504279
O  O8  1  0.45180000  0.09020000  0.76790000  1.0 -0.7652504279
O  O9  1  0.52720000  0.24020000  0.72940000  1.0 -0.7802011503
O  O10  1  0.47280000  0.74020000  0.77060000  1.0 -0.7802011503
O  O11  1  0.47280000  0.75980000  0.27060000  1.0 -0.7802011503
O  O12  1  0.52720000  0.25980000  0.22940000  1.0 -0.7802011503
O  O13  1  0.21070000  0.55290000  0.45990000  1.0 -0.7802011503
O  O14  1  0.78930000  0.05290000  0.04010000  1.0 -0.7802011503
O  O15  1  0.78930000  0.44710000  0.54010000  1.0 -0.7802011503
O  O16  1  0.21070000  0.94710000  0.95990000  1.0 -0.7802011503
O  O17  1  0.14010000  0.67270000  0.39880000  1.0 -1.0199069513
O  O18  1  0.85990000  0.17270000  0.10120000  1.0 -1.0199069513
O  O19  1  0.85990000  0.32730000  0.60120000  1.0 -1.0199069513
O  O20  1  0.14010000  0.82730000  0.89880000  1.0 -1.0199069513
O  O21  1  0.93130000  0.61450000  0.28740000  1.0 -1.014438702
O  O22  1  0.06870000  0.11450000  0.21260000  1.0 -1.014438702
O  O23  1  0.06870000  0.38550000  0.71260000  1.0 -1.014438702
O  O24  1  0.93130000  0.88550000  0.78740000  1.0 -1.014438702
O  O25  1  0.90940000  0.48630000  0.29990000  1.0 -0.7802011503
O  O26  1  0.09060000  0.98630000  0.20010000  1.0 -0.7802011503
O  O27  1  0.09060000  0.51370000  0.70010000  1.0 -0.7802011503
O  O28  1  0.90940000  0.01370000  0.79990000  1.0 -0.7802011503
O  O29  1  0.76110000  0.50320000  0.25480000  1.0 -0.9660737647
O  O30  1  0.23890000  0.00320000  0.24520000  1.0 -0.9660737647
O  O31  1  0.23890000  0.49680000  0.74520000  1.0 -0.9660737647
O  O32  1  0.76110000  0.99680000  0.75480000  1.0 -0.9660737647
O  O33  1  0.81540000  0.38880000  0.30430000  1.0 -0.7872397138
O  O34  1  0.18460000  0.88880000  0.19570000  1.0 -0.7872397138
O  O35  1  0.18460000  0.61120000  0.69570000  1.0 -0.7872397138
O  O36  1  0.81540000  0.11120000  0.80430000  1.0 -0.7872397138
O  O37  1  0.68540000  0.36570000  0.29590000  1.0 -0.9240150584
O  O38  1  0.31460000  0.86570000  0.20410000  1.0 -0.9240150584
O  O39  1  0.31460000  0.63430000  0.70410000  1.0 -0.9240150584
O  O40  1  0.68540000  0.13430000  0.79590000  1.0 -0.9240150584
O  O41  1  0.80840000  0.29170000  0.36960000  1.0 -0.7578199837
O  O42  1  0.19160000  0.79170000  0.13040000  1.0 -0.7578199837
O  O43  1  0.19160000  0.70830000  0.63040000  1.0 -0.7578199837
O  O44  1  0.80840000  0.20830000  0.86960000  1.0 -0.7578199837
O  O45  1  0.66650000  0.23370000  0.31740000  1.0 -0.7259557976
O  O46  1  0.33350000  0.73370000  0.18260000  1.0 -0.7259557976
O  O47  1  0.33350000  0.76630000  0.68260000  1.0 -0.7259557976
O  O48  1  0.66650000  0.26630000  0.81740000  1.0 -0.7259557976
O  O49  1  0.63290000  0.34270000  0.35420000  1.0 -0.8669522537
O  O50  1  0.36710000  0.84270000  0.14580000  1.0 -0.8669522537
O  O51  1  0.36710000  0.65730000  0.64580000  1.0 -0.8669522537
O  O52  1  0.63290000  0.15730000  0.85420000  1.0 -0.8669522537
O  O53  1  0.63450000  0.48990000  0.25510000  1.0 -0.8892545833
O  O54  1  0.36550000  0.98990000  0.24490000  1.0 -0.8892545833
O  O55  1  0.36550000  0.51010000  0.74490000  1.0 -0.8892545833
O  O56  1  0.63450000  0.01010000  0.75510000  1.0 -0.8892545833
O  O57  1  0.77610000  0.64100000  0.24330000  1.0 -0.9495089087
O  O58  1  0.22390000  0.14100000  0.25670000  1.0 -0.9495089087
O  O59  1  0.22390000  0.35900000  0.75670000  1.0 -0.9495089087
O  O60  1  0.77610000  0.85900000  0.74330000  1.0 -0.9495089087
O  O61  1  0.00720000  0.65630000  0.39250000  1.0 -0.6800645425
O  O62  1  0.99280000  0.15630000  0.10750000  1.0 -0.6800645425
O  O63  1  0.99280000  0.34370000  0.60750000  1.0 -0.6800645425
O  O64  1  0.00720000  0.84370000  0.89250000  1.0 -0.6800645425
O  O65  1  0.00630000  0.74430000  0.33750000  1.0 -0.9495089087
O  O66  1  0.99370000  0.24430000  0.16250000  1.0 -0.9425364269
O  O67  1  0.99370000  0.25570000  0.66250000  1.0 -0.9425364269
O  O68  1  0.00630000  0.75570000  0.83750000  1.0 -0.9495089087
O  O69  1  0.14750000  0.65970000  0.48990000  1.0 -0.6580034925
O  O70  1  0.85250000  0.15970000  0.01010000  1.0 -0.6580034925
O  O71  1  0.85250000  0.34030000  0.51010000  1.0 -0.6580034925
O  O72  1  0.14750000  0.84030000  0.98990000  1.0 -0.6580034925
O  O73  1  0.23490000  0.74700000  0.48820000  1.0 -0.9240150584
O  O74  1  0.76510000  0.24700000  0.01180000  1.0 -0.925901307
O  O75  1  0.76510000  0.25300000  0.51180000  1.0 -0.9240150584
O  O76  1  0.23490000  0.75300000  0.98820000  1.0 -0.9240150584
O  O77  1  0.24620000  0.74420000  0.57640000  1.0 -0.9425364269
O  O78  1  0.75380000  0.24420000  0.92360000  1.0 -0.9425364269
O  O79  1  0.75380000  0.25580000  0.42360000  1.0 -0.9425364269
O  O80  1  0.24620000  0.75580000  0.07640000  1.0 -0.9425364269
O  O81  1  0.08850000  0.78380000  0.43770000  1.0 -0.9647288604
O  O82  1  0.91150000  0.28380000  0.06230000  1.0 -0.9647288604
O  O83  1  0.91150000  0.21620000  0.56230000  1.0 -0.9647288604
O  O84  1  0.08850000  0.71620000  0.93770000  1.0 -0.9647288604
O  O85  1  0.86840000  0.73490000  0.32350000  1.0 -0.9979561253
O  O86  1  0.13160000  0.23490000  0.17650000  1.0 -0.9979561253
O  O87  1  0.13160000  0.26510000  0.67650000  1.0 -0.9979561253
O  O88  1  0.86840000  0.76510000  0.82350000  1.0 -0.9979561253
O  O89  1  0.70360000  0.61760000  0.28740000  1.0 -0.9240150584
O  O90  1  0.29640000  0.11760000  0.21260000  1.0 -0.9240150584
O  O91  1  0.29640000  0.38240000  0.71260000  1.0 -0.9240150584
O  O92  1  0.70360000  0.88240000  0.78740000  1.0 -0.9240150584
O  O93  1  0.62960000  0.47800000  0.33900000  1.0 -0.897335185
O  O94  1  0.37040000  0.97800000  0.16100000  1.0 -0.897335185
O  O95  1  0.37040000  0.52200000  0.66100000  1.0 -0.897335185
O  O96  1  0.62960000  0.02200000  0.83900000  1.0 -0.897335185
O  O97  1  0.68870000  0.37260000  0.45250000  1.0 -0.906679271
O  O98  1  0.31130000  0.87260000  0.04750000  1.0 -0.906679271
O  O99  1  0.31130000  0.62740000  0.54750000  1.0 -0.906679271
O  O100  1  0.68870000  0.12740000  0.95250000  1.0 -0.906679271
O  O101  1  0.55980000  0.43300000  0.38150000  1.0 -0.7578199837
O  O102  1  0.44020000  0.93300000  0.11850000  1.0 -0.7578199837
O  O103  1  0.44020000  0.56700000  0.61850000  1.0 -0.7578199837
O  O104  1  0.55980000  0.06700000  0.88150000  1.0 -0.7578199837
O  O105  1  0.10160000  0.77040000  0.52540000  1.0 -0.7956977619
O  O106  1  0.89840000  0.27040000  0.97460000  1.0 -0.7956977619
O  O107  1  0.89840000  0.22960000  0.47460000  1.0 -0.7956977619
O  O108  1  0.10160000  0.72960000  0.02540000  1.0 -0.7956977619
O  O109  1  0.94910000  0.76360000  0.42240000  1.0 -0.8172537519
O  O110  1  0.05090000  0.26360000  0.07760000  1.0 -0.8172537519
O  O111  1  0.05090000  0.23640000  0.57760000  1.0 -0.8172537519
O  O112  1  0.94910000  0.73640000  0.92240000  1.0 -0.8172537519
O  O113  1  0.80550000  0.69910000  0.36660000  1.0 -0.7523766144
O  O114  1  0.19450000  0.19910000  0.13340000  1.0 -0.7523766144
O  O115  1  0.19450000  0.30090000  0.63340000  1.0 -0.7523766144
O  O116  1  0.80550000  0.80090000  0.86660000  1.0 -0.7523766144
O  O117  1  0.70620000  0.59970000  0.37030000  1.0 -0.7435491665
O  O118  1  0.29380000  0.09970000  0.12970000  1.0 -0.7435491665
O  O119  1  0.29380000  0.40030000  0.62970000  1.0 -0.7435491665
O  O120  1  0.70620000  0.90030000  0.87030000  1.0 -0.7435491665
O  O121  1  0.70340000  0.50150000  0.43700000  1.0 -0.7578199837
O  O122  1  0.29660000  0.00150000  0.06300000  1.0 -0.7578199837
O  O123  1  0.29660000  0.49850000  0.56300000  1.0 -0.7578199837
O  O124  1  0.70340000  0.99850000  0.93700000  1.0 -0.7578199837
O  O125  1  0.85510000  0.59160000  0.33350000  1.0 -0.6580034925
O  O126  1  0.14490000  0.09160000  0.16650000  1.0 -0.6580034925
O  O127  1  0.14490000  0.40840000  0.66650000  1.0 -0.6580034925
O  O128  1  0.85510000  0.90840000  0.83350000  1.0 -0.6580034925
O  O129  1  0.76760000  0.39900000  0.40990000  1.0 -0.6413327364
O  O130  1  0.23240000  0.89900000  0.09010000  1.0 -0.6413327364
O  O131  1  0.23240000  0.60100000  0.59010000  1.0 -0.6413327364
O  O132  1  0.76760000  0.10100000  0.90990000  1.0 -0.6413327364
O  O133  1  0.76460000  0.49080000  0.34240000  1.0 -0.6413327364
O  O134  1  0.23540000  0.99080000  0.15760000  1.0 -0.6413327364
O  O135  1  0.23540000  0.50920000  0.65760000  1.0 -0.6413327364
O  O136  1  0.76460000  0.00920000  0.84240000  1.0 -0.6413327364
O  O137  1  0.05880000  0.55300000  0.35630000  1.0 -0.8093880473
O  O138  1  0.94120000  0.05300000  0.14370000  1.0 -0.8093880473
O  O139  1  0.94120000  0.44700000  0.64370000  1.0 -0.8093880473
O  O140  1  0.05880000  0.94700000  0.85630000  1.0 -0.8093880473
O  O141  1  0.93970000  0.34050000  0.30520000  1.0 -0.5855744017
O  O142  1  0.06030000  0.84050000  0.19480000  1.0 -0.5855744017
O  O143  1  0.06030000  0.65950000  0.69480000  1.0 -0.5855744017
O  O144  1  0.93970000  0.15950000  0.80520000  1.0 -0.5855744017
O  O145  1  0.15800000  0.44600000  0.39200000  1.0 -0.537573768
O  O146  1  0.84200000  0.94600000  0.10800000  1.0 -0.537573768
O  O147  1  0.84200000  0.55400000  0.60800000  1.0 -0.537573768
O  O148  1  0.15800000  0.05400000  0.89200000  1.0 -0.537573768
O  O149  1  0.82890000  0.64600000  0.45210000  1.0 -0.1700176419
O  O150  1  0.17110000  0.14600000  0.04790000  1.0 -0.1700176419
O  O151  1  0.17110000  0.35400000  0.54790000  1.0 -0.1700176419
O  O152  1  0.82890000  0.85400000  0.95210000  1.0 -0.1700176419
O  O153  1  0.96770000  0.71300000  0.50030000  1.0 -0.1567642225
O  O154  1  0.03230000  0.21300000  0.99970000  1.0 -0.1567642225
O  O155  1  0.03230000  0.28700000  0.49970000  1.0 -0.1567642225
O  O156  1  0.96770000  0.78700000  0.00030000  1.0 -0.1567642225
O  O157  1  0.03170000  0.43700000  0.38650000  1.0 -0.2586895186
O  O158  1  0.96830000  0.93700000  0.11350000  1.0 -0.2699424289
O  O159  1  0.96830000  0.56300000  0.61350000  1.0 -0.2699424289
O  O160  1  0.03170000  0.06300000  0.88650000  1.0 -0.2586895186
O  O161  1  0.91080000  0.47950000  0.38610000  1.0 -0.2507281399
O  O162  1  0.08920000  0.97950000  0.11390000  1.0 -0.2507281399
O  O163  1  0.08920000  0.52050000  0.61390000  1.0 -0.2507281399
O  O164  1  0.91080000  0.02050000  0.88610000  1.0 -0.2507281399
O  O165  1  0.86820000  0.57750000  0.41910000  1.0 -0.3219067401
O  O166  1  0.13180000  0.07750000  0.08090000  1.0 -0.3219067401
O  O167  1  0.13180000  0.42250000  0.58090000  1.0 -0.3219067401
O  O168  1  0.86820000  0.92250000  0.91910000  1.0 -0.3219067401
O  O169  1  0.07130000  0.55340000  0.44770000  1.0 -0.3094173683
O  O170  1  0.92870000  0.05340000  0.05230000  1.0 -0.3094173683
O  O171  1  0.92870000  0.44660000  0.55230000  1.0 -0.3094173683
O  O172  1  0.07130000  0.94660000  0.94770000  1.0 -0.3094173683
O  O173  1  0.03370000  0.64400000  0.48700000  1.0 -0.3219067401
O  O174  1  0.96630000  0.14400000  0.01300000  1.0 -0.3219067401
O  O175  1  0.96630000  0.35600000  0.51300000  1.0 -0.3219067401
O  O176  1  0.03370000  0.85600000  0.98700000  1.0 -0.3219067401
O  O177  1  0.76080000  0.72200000  0.43850000  1.0 -0.4124088718
O  O178  1  0.23920000  0.22200000  0.06150000  1.0 -0.4124088718
O  O179  1  0.23920000  0.27800000  0.56150000  1.0 -0.4124088718
O  O180  1  0.76080000  0.77800000  0.93850000  1.0 -0.4124088718
O  O181  1  0.97240000  0.81600000  0.51240000  1.0 -0.3094173683
O  O182  1  0.02760000  0.31600000  0.98760000  1.0 -0.3094173683
O  O183  1  0.02760000  0.18400000  0.48760000  1.0 -0.3094173683
O  O184  1  0.97240000  0.68400000  0.01240000  1.0 -0.3094173683
O  O185  1  0.94250000  0.33900000  0.40300000  1.0 -0.1287061774
O  O186  1  0.05750000  0.83900000  0.09700000  1.0 -0.1171311973
O  O187  1  0.05750000  0.66100000  0.59700000  1.0 -0.1287061774
O  O188  1  0.94250000  0.16100000  0.90300000  1.0 -0.1287061774
O  O189  1  0.17070000  0.44300000  0.48270000  1.0 -0.1408604451
O  O190  1  0.82930000  0.94300000  0.01730000  1.0 -0.1408604451
O  O191  1  0.82930000  0.55700000  0.51730000  1.0 -0.1408604451
O  O192  1  0.17070000  0.05700000  0.98270000  1.0 -0.1408604451
O  O193  1  0.99500000  0.53100000  0.52000000  1.0 -0.2699424289
O  O194  1  0.00500000  0.03100000  0.98000000  1.0 -0.2699424289
O  O195  1  0.00500000  0.46900000  0.48000000  1.0 -0.2699424289
O  O196  1  0.99500000  0.96900000  0.02000000  1.0 -0.2699424289
O  O197  1  0.97850000  0.52500000  0.40380000  1.0 -0.3094173683
O  O198  1  0.02150000  0.02500000  0.09620000  1.0 -0.3094173683
O  O199  1  0.02150000  0.47500000  0.59620000  1.0 -0.3094173683
O  O200  1  0.97850000  0.97500000  0.90380000  1.0 -0.3094173683
O  O201  1  0.13440000  0.52840000  0.51040000  1.0 -0.3397326975
O  O202  1  0.86560000  0.02840000  0.98960000  1.0 -0.3397326975
O  O203  1  0.86560000  0.47160000  0.48960000  1.0 -0.3397326975
O  O204  1  0.13440000  0.97160000  0.01040000  1.0 -0.3397326975
O  O205  1  0.17270000  0.48830000  0.56420000  1.0 -0.3339038922
O  O206  1  0.82730000  0.98830000  0.93580000  1.0 -0.3339038922
O  O207  1  0.82730000  0.51170000  0.43580000  1.0 -0.3339038922
O  O208  1  0.17270000  0.01170000  0.06420000  1.0 -0.3339038922
O  O209  1  0.09080000  0.62420000  0.53800000  1.0 -0.2586895186
O  O210  1  0.90920000  0.12420000  0.96200000  1.0 -0.2586895186
O  O211  1  0.90920000  0.37580000  0.46200000  1.0 -0.2586895186
O  O212  1  0.09080000  0.87580000  0.03800000  1.0 -0.2586895186
O  O213  1  0.75100000  0.58380000  0.52450000  1.0 -0.4572342096
O  O214  1  0.24900000  0.08380000  0.97550000  1.0 -0.4572342096
O  O215  1  0.24900000  0.41620000  0.47550000  1.0 -0.4572342096
O  O216  1  0.75100000  0.91620000  0.02450000  1.0 -0.4572342096
O  O217  1  0.10550000  0.73500000  0.66650000  1.0 -0.5234625472
O  O218  1  0.89450000  0.23500000  0.83350000  1.0 -0.5234625472
O  O219  1  0.89450000  0.26500000  0.33350000  1.0 -0.5234625472
O  O220  1  0.10550000  0.76500000  0.16650000  1.0 -0.5234625472
O  O221  1  0.80970000  0.59560000  0.47860000  1.0 -0.1287061774
O  O222  1  0.19030000  0.09560000  0.02140000  1.0 -0.1287061774
O  O223  1  0.19030000  0.40440000  0.52140000  1.0 -0.1287061774
O  O224  1  0.80970000  0.90440000  0.97860000  1.0 -0.1287061774
O  O225  1  0.89330000  0.55000000  0.57250000  1.0 -0.2028363033
O  O226  1  0.10670000  0.05000000  0.92750000  1.0 -0.2028363033
O  O227  1  0.10670000  0.45000000  0.42750000  1.0 -0.2028363033
O  O228  1  0.89330000  0.95000000  0.07250000  1.0 -0.2028363033
O  O229  1  0.04230000  0.61600000  0.62990000  1.0 -0.1408604451
O  O230  1  0.95770000  0.11600000  0.87010000  1.0 -0.1408604451
O  O231  1  0.95770000  0.38400000  0.37010000  1.0 -0.1408604451
O  O232  1  0.04230000  0.88400000  0.12990000  1.0 -0.1408604451
O  O233  1  0.04030000  0.69700000  0.56730000  1.0 -0.1504962154
O  O234  1  0.95970000  0.19700000  0.93270000  1.0 -0.1504962154
O  O235  1  0.95970000  0.30300000  0.43270000  1.0 -0.1504962154
O  O236  1  0.04030000  0.80300000  0.06730000  1.0 -0.1504962154
O  O237  1  0.90290000  0.69820000  0.47060000  1.0 -0.1700176419
O  O238  1  0.09710000  0.19820000  0.02940000  1.0 -0.1700176419
O  O239  1  0.09710000  0.30180000  0.52940000  1.0 -0.1700176419
O  O240  1  0.90290000  0.80180000  0.97060000  1.0 -0.1700176419
O  O241  1  0.11440000  0.58180000  0.59220000  1.0 -0.2969428406
O  O242  1  0.88560000  0.08180000  0.90780000  1.0 -0.2969428406
O  O243  1  0.88560000  0.41820000  0.40780000  1.0 -0.2969428406
O  O244  1  0.11440000  0.91820000  0.09220000  1.0 -0.2969428406
O  O245  1  0.93090000  0.62020000  0.42680000  1.0 -0.3219067401
O  O246  1  0.06910000  0.12020000  0.07320000  1.0 -0.3219067401
O  O247  1  0.06910000  0.37980000  0.57320000  1.0 -0.3219067401
O  O248  1  0.93090000  0.87980000  0.92680000  1.0 -0.3219067401
O  O249  1  0.70150000  0.64400000  0.44830000  1.0 -0.5803289546
O  O250  1  0.29850000  0.14400000  0.05170000  1.0 -0.5803289546
O  O251  1  0.29850000  0.35600000  0.55170000  1.0 -0.5803289546
O  O252  1  0.70150000  0.85600000  0.94830000  1.0 -0.5803289546
O  O253  1  0.84800000  0.78600000  0.44200000  1.0 -0.3914619817
O  O254  1  0.15200000  0.28600000  0.05800000  1.0 -0.3914619817
O  O255  1  0.15200000  0.21400000  0.55800000  1.0 -0.3914619817
O  O256  1  0.84800000  0.71400000  0.94200000  1.0 -0.3914619817
O  O257  1  0.06100000  0.79910000  0.58920000  1.0 -0.3964060081
O  O258  1  0.93900000  0.29910000  0.91080000  1.0 -0.3914619817
O  O259  1  0.93900000  0.20090000  0.41080000  1.0 -0.3914619817
O  O260  1  0.06100000  0.70090000  0.08920000  1.0 -0.3964060081
