# DDEC6 charges by PACMAN v1.1 (https://github.com/mtap-research/PACMAN-charge/)
data_JULHEG_FSR_pacman
_symmetry_space_group_name_H-M   'P 1'
_cell_length_a   23.00100000
_cell_length_b   8.11000000
_cell_length_c   45.30450000
_cell_angle_alpha   90.00000000
_cell_angle_beta   118.88700000
_cell_angle_gamma   90.00000000
_symmetry_Int_Tables_number   1
_chemical_formula_structural   Zn3H40C60N8O15
_chemical_formula_sum   'Zn12 H160 C240 N32 O60'
_cell_volume   7399.49104523
_cell_formula_units_Z   4
loop_
 _symmetry_equiv_pos_site_id
 _symmetry_equiv_pos_as_xyz
  1  'x, y, z'
loop_
 _atom_site_type_symbol
 _atom_site_label
 _atom_site_symmetry_multiplicity
 _atom_site_fract_x
 _atom_site_fract_y
 _atom_site_fract_z
 _atom_site_occupancy
 _atom_site_charge
Zn  Zn1  1  0.00902000  0.13895000  0.94819000  1.0 0.8265552656
Zn  Zn2  1  0.40469000  0.76719000  0.79168000  1.0 0.8537781076
Zn  Zn3  1  0.72798000  0.97493000  0.10534000  1.0 0.8823335903
Zn  Zn4  1  0.00902000  0.36105000  0.44819000  1.0 0.8265552656
Zn  Zn5  1  0.40469000  0.73281000  0.29168000  1.0 0.8537781076
Zn  Zn6  1  0.72798000  0.52507000  0.60534000  1.0 0.8823335903
Zn  Zn7  1  0.99098000  0.63895000  0.55181000  1.0 0.8265552656
Zn  Zn8  1  0.59531000  0.26719000  0.70832000  1.0 0.8537781076
Zn  Zn9  1  0.27202000  0.47493000  0.39466000  1.0 0.8858145611
Zn  Zn10  1  0.99098000  0.86105000  0.05181000  1.0 0.8265552656
Zn  Zn11  1  0.59531000  0.23281000  0.20832000  1.0 0.8537781076
Zn  Zn12  1  0.27202000  0.02507000  0.89466000  1.0 0.8823335903
H  H1  1  0.91470000  0.93870000  0.92320000  1.0 0.3779486665
H  H2  1  0.97390000  0.84200000  0.93860000  1.0 0.3941585557
H  H3  1  0.43560000  0.05790000  0.81220000  1.0 0.3779486665
H  H4  1  0.36410000  0.05280000  0.79290000  1.0 0.4257616313
H  H5  1  0.96710000  0.19060000  0.83980000  1.0 0.1199870723
H  H6  1  0.98110000  0.27670000  0.79490000  1.0 0.1199870723
H  H7  1  0.11290000  0.61820000  0.85410000  1.0 0.139564732
H  H8  1  0.09860000  0.53340000  0.89880000  1.0 0.1283675523
H  H9  1  0.93580000  0.58960000  0.76920000  1.0 0.1283675523
H  H10  1  0.85040000  0.59400000  0.71410000  1.0 0.1283675523
H  H11  1  0.97170000  0.40040000  0.68280000  1.0 0.1199870723
H  H12  1  0.05840000  0.40390000  0.73750000  1.0 0.1283675523
H  H13  1  0.17030000  0.35040000  0.83330000  1.0 0.1283675523
H  H14  1  0.10220000  0.72030000  0.76630000  1.0 0.1199870723
H  H15  1  0.20640000  0.74750000  0.77100000  1.0 0.1199870723
H  H16  1  0.27410000  0.37910000  0.83840000  1.0 0.139564732
H  H17  1  0.20230000  0.64910000  0.49750000  1.0 0.1283675523
H  H18  1  0.32820000  0.84170000  0.68460000  1.0 0.1199870723
H  H19  1  0.30780000  0.83490000  0.62900000  1.0 0.1199870723
H  H20  1  0.45880000  0.51470000  0.65620000  1.0 0.1117229953
H  H21  1  0.47540000  0.51570000  0.71060000  1.0 0.1199870723
H  H22  1  0.28110000  0.48290000  0.60830000  1.0 0.1199870723
H  H23  1  0.17740000  0.39800000  0.56720000  1.0 0.0995647646
H  H24  1  0.30320000  0.74390000  0.53890000  1.0 0.1283675523
H  H25  1  0.38090000  0.49590000  0.55780000  1.0 0.1199870723
H  H26  1  0.47200000  0.46360000  0.55000000  1.0 0.1199870723
H  H27  1  0.57680000  0.77390000  0.62690000  1.0 0.1283675523
H  H28  1  0.48430000  0.81540000  0.63320000  1.0 0.1283675523
H  H29  1  0.64380000  0.92430000  0.03510000  1.0 0.1283675523
H  H30  1  0.64070000  0.81660000  0.98790000  1.0 0.1283675523
H  H31  1  0.83240000  0.69210000  0.04320000  1.0 0.1480400307
H  H32  1  0.82990000  0.80450000  0.08940000  1.0 0.1199870723
H  H33  1  0.55310000  0.68600000  0.91280000  1.0 0.139564732
H  H34  1  0.45560000  0.72780000  0.86340000  1.0 0.1283675523
H  H35  1  0.54550000  0.65700000  0.80990000  1.0 0.1199870723
H  H36  1  0.64690000  0.62400000  0.85800000  1.0 0.139564732
H  H37  1  0.97810000  0.29390000  0.00080000  1.0 0.1199870723
H  H38  1  0.89410000  0.44250000  0.00230000  1.0 0.1480400307
H  H39  1  0.80610000  0.47880000  0.90130000  1.0 0.1283675523
H  H40  1  0.89380000  0.33120000  0.90320000  1.0 0.1117229953
H  H41  1  0.91470000  0.56130000  0.42320000  1.0 0.3779486665
H  H42  1  0.97390000  0.65800000  0.43860000  1.0 0.3941585557
H  H43  1  0.43560000  0.44210000  0.31220000  1.0 0.3779486665
H  H44  1  0.36410000  0.44720000  0.29290000  1.0 0.4257616313
H  H45  1  0.96710000  0.30940000  0.33980000  1.0 0.1199870723
H  H46  1  0.98110000  0.22330000  0.29490000  1.0 0.1199870723
H  H47  1  0.11290000  0.88180000  0.35410000  1.0 0.139564732
H  H48  1  0.09860000  0.96660000  0.39880000  1.0 0.1283675523
H  H49  1  0.93580000  0.91040000  0.26920000  1.0 0.1283675523
H  H50  1  0.85040000  0.90600000  0.21410000  1.0 0.1283675523
H  H51  1  0.97170000  0.09960000  0.18280000  1.0 0.1199870723
H  H52  1  0.05840000  0.09610000  0.23750000  1.0 0.1283675523
H  H53  1  0.17030000  0.14960000  0.33333333  1.0 0.1283675523
H  H54  1  0.10220000  0.77970000  0.26630000  1.0 0.1199870723
H  H55  1  0.20640000  0.75250000  0.27100000  1.0 0.1199870723
H  H56  1  0.27410000  0.12090000  0.33840000  1.0 0.139564732
H  H57  1  0.20230000  0.85090000  0.99750000  1.0 0.1283675523
H  H58  1  0.32820000  0.65830000  0.18460000  1.0 0.1199870723
H  H59  1  0.30780000  0.66510000  0.12900000  1.0 0.1199870723
H  H60  1  0.45880000  0.98530000  0.15620000  1.0 0.1117229953
H  H61  1  0.47540000  0.98430000  0.21060000  1.0 0.1199870723
H  H62  1  0.28110000  0.01710000  0.10830000  1.0 0.1199870723
H  H63  1  0.17740000  0.10200000  0.06720000  1.0 0.0995647646
H  H64  1  0.30320000  0.75610000  0.03890000  1.0 0.1283675523
H  H65  1  0.38090000  0.00410000  0.05780000  1.0 0.1199870723
H  H66  1  0.47200000  0.03640000  0.05000000  1.0 0.1199870723
H  H67  1  0.57680000  0.72610000  0.12690000  1.0 0.1283675523
H  H68  1  0.48430000  0.68460000  0.13320000  1.0 0.1283675523
H  H69  1  0.64380000  0.57570000  0.53510000  1.0 0.1283675523
H  H70  1  0.64070000  0.68340000  0.48790000  1.0 0.1283675523
H  H71  1  0.83240000  0.80790000  0.54320000  1.0 0.1480400307
H  H72  1  0.82990000  0.69550000  0.58940000  1.0 0.1199870723
H  H73  1  0.55310000  0.81400000  0.41280000  1.0 0.139564732
H  H74  1  0.45560000  0.77220000  0.36340000  1.0 0.1283675523
H  H75  1  0.54550000  0.84300000  0.30990000  1.0 0.1199870723
H  H76  1  0.64690000  0.87600000  0.35800000  1.0 0.139564732
H  H77  1  0.97810000  0.20610000  0.50080000  1.0 0.1117229953
H  H78  1  0.89410000  0.05750000  0.50230000  1.0 0.1480400307
H  H79  1  0.80610000  0.02120000  0.40130000  1.0 0.1283675523
H  H80  1  0.89380000  0.16880000  0.40320000  1.0 0.1117229953
H  H81  1  0.08530000  0.43870000  0.57680000  1.0 0.3779486665
H  H82  1  0.02610000  0.34200000  0.56140000  1.0 0.3941585557
H  H83  1  0.56440000  0.55790000  0.68780000  1.0 0.3779486665
H  H84  1  0.63590000  0.55280000  0.70710000  1.0 0.4257616313
H  H85  1  0.03290000  0.69060000  0.66020000  1.0 0.1199870723
H  H86  1  0.01890000  0.77670000  0.70510000  1.0 0.1199870723
H  H87  1  0.88710000  0.11820000  0.64590000  1.0 0.139564732
H  H88  1  0.90140000  0.03340000  0.60120000  1.0 0.1283675523
H  H89  1  0.06420000  0.08960000  0.73080000  1.0 0.1283675523
H  H90  1  0.14960000  0.09400000  0.78590000  1.0 0.1283675523
H  H91  1  0.02830000  0.90040000  0.81720000  1.0 0.1199870723
H  H92  1  0.94160000  0.90390000  0.76250000  1.0 0.1283675523
H  H93  1  0.82970000  0.85040000  0.66666667  1.0 0.1283675523
H  H94  1  0.89780000  0.22030000  0.73370000  1.0 0.1199870723
H  H95  1  0.79360000  0.24750000  0.72900000  1.0 0.1199870723
H  H96  1  0.72590000  0.87910000  0.66160000  1.0 0.139564732
H  H97  1  0.79770000  0.14910000  0.00250000  1.0 0.1199870723
H  H98  1  0.67180000  0.34170000  0.81540000  1.0 0.1199870723
H  H99  1  0.69220000  0.33490000  0.87100000  1.0 0.1199870723
H  H100  1  0.54120000  0.01470000  0.84380000  1.0 0.1117229953
H  H101  1  0.52460000  0.01570000  0.78940000  1.0 0.1199870723
H  H102  1  0.71890000  0.98290000  0.89170000  1.0 0.1199870723
H  H103  1  0.82260000  0.89800000  0.93280000  1.0 0.0995647646
H  H104  1  0.69680000  0.24390000  0.96110000  1.0 0.1283675523
H  H105  1  0.61910000  0.99590000  0.94220000  1.0 0.1199870723
H  H106  1  0.52800000  0.96360000  0.95000000  1.0 0.1199870723
H  H107  1  0.42320000  0.27390000  0.87310000  1.0 0.139564732
H  H108  1  0.51570000  0.31540000  0.86680000  1.0 0.1283675523
H  H109  1  0.35620000  0.42430000  0.46490000  1.0 0.1283675523
H  H110  1  0.35930000  0.31660000  0.51210000  1.0 0.1283675523
H  H111  1  0.16760000  0.19210000  0.45680000  1.0 0.1480400307
H  H112  1  0.17010000  0.30450000  0.41060000  1.0 0.1199870723
H  H113  1  0.44690000  0.18600000  0.58720000  1.0 0.139564732
H  H114  1  0.54440000  0.22780000  0.63660000  1.0 0.1283675523
H  H115  1  0.45450000  0.15700000  0.69010000  1.0 0.1199870723
H  H116  1  0.35310000  0.12400000  0.64200000  1.0 0.139564732
H  H117  1  0.02190000  0.79390000  0.49920000  1.0 0.1199870723
H  H118  1  0.10590000  0.94250000  0.49770000  1.0 0.1480400307
H  H119  1  0.19390000  0.97880000  0.59870000  1.0 0.1283675523
H  H120  1  0.10620000  0.83120000  0.59680000  1.0 0.1117229953
H  H121  1  0.08530000  0.06130000  0.07680000  1.0 0.3779486665
H  H122  1  0.02610000  0.15800000  0.06140000  1.0 0.3941585557
H  H123  1  0.56440000  0.94210000  0.18780000  1.0 0.3779486665
H  H124  1  0.63590000  0.94720000  0.20710000  1.0 0.4257616313
H  H125  1  0.03290000  0.80940000  0.16020000  1.0 0.1199870723
H  H126  1  0.01890000  0.72330000  0.20510000  1.0 0.1199870723
H  H127  1  0.88710000  0.38180000  0.14590000  1.0 0.139564732
H  H128  1  0.90140000  0.46660000  0.10120000  1.0 0.1283675523
H  H129  1  0.06420000  0.41040000  0.23080000  1.0 0.1283675523
H  H130  1  0.14960000  0.40600000  0.28590000  1.0 0.1283675523
H  H131  1  0.02830000  0.59960000  0.31720000  1.0 0.1199870723
H  H132  1  0.94160000  0.59610000  0.26250000  1.0 0.1283675523
H  H133  1  0.82970000  0.64960000  0.16670000  1.0 0.1283675523
H  H134  1  0.89780000  0.27970000  0.23370000  1.0 0.1199870723
H  H135  1  0.79360000  0.25250000  0.22900000  1.0 0.1199870723
H  H136  1  0.72590000  0.62090000  0.16160000  1.0 0.139564732
H  H137  1  0.79770000  0.35090000  0.50250000  1.0 0.1199870723
H  H138  1  0.67180000  0.15830000  0.31540000  1.0 0.1199870723
H  H139  1  0.69220000  0.16510000  0.37100000  1.0 0.1199870723
H  H140  1  0.54120000  0.48530000  0.34380000  1.0 0.1117229953
H  H141  1  0.52460000  0.48430000  0.28940000  1.0 0.1199870723
H  H142  1  0.71890000  0.51710000  0.39170000  1.0 0.1199870723
H  H143  1  0.82260000  0.60200000  0.43280000  1.0 0.0995647646
H  H144  1  0.69680000  0.25610000  0.46110000  1.0 0.1283675523
H  H145  1  0.61910000  0.50410000  0.44220000  1.0 0.1199870723
H  H146  1  0.52800000  0.53640000  0.45000000  1.0 0.1199870723
H  H147  1  0.42320000  0.22610000  0.37310000  1.0 0.1283675523
H  H148  1  0.51570000  0.18460000  0.36680000  1.0 0.1283675523
H  H149  1  0.35620000  0.07570000  0.96490000  1.0 0.1283675523
H  H150  1  0.35930000  0.18340000  0.01210000  1.0 0.1283675523
H  H151  1  0.16760000  0.30790000  0.95680000  1.0 0.1480400307
H  H152  1  0.17010000  0.19550000  0.91060000  1.0 0.1199870723
H  H153  1  0.44690000  0.31400000  0.08720000  1.0 0.139564732
H  H154  1  0.54440000  0.27220000  0.13660000  1.0 0.1283675523
H  H155  1  0.45450000  0.34300000  0.19010000  1.0 0.1199870723
H  H156  1  0.35310000  0.37600000  0.14200000  1.0 0.139564732
H  H157  1  0.02190000  0.70610000  0.99920000  1.0 0.1199870723
H  H158  1  0.10590000  0.55750000  0.99770000  1.0 0.1480400307
H  H159  1  0.19390000  0.52120000  0.09870000  1.0 0.1283675523
H  H160  1  0.10620000  0.66880000  0.09680000  1.0 0.1117229953
C  C1  1  0.02383000  0.29370000  0.90321000  1.0 0.549007027
C  C2  1  0.03205000  0.35220000  0.87429000  1.0 -0.0403362954
C  C3  1  0.99641000  0.27580000  0.84270000  1.0 -0.0783345666
C  C4  1  0.00499000  0.32740000  0.81576000  1.0 -0.1907023329
C  C5  1  0.04908000  0.45410000  0.81976000  1.0 0.18972844
C  C6  1  0.08392000  0.53210000  0.85126000  1.0 -0.1800609968
C  C7  1  0.07527000  0.48110000  0.87805000  1.0 -0.0783345666
C  C8  1  0.00603000  0.49930000  0.75921000  1.0 0.1824462227
C  C9  1  0.94352000  0.55370000  0.75192000  1.0 -0.1907023329
C  C10  1  0.89203000  0.55510000  0.71885000  1.0 -0.0886325147
C  C11  1  0.90259000  0.49860000  0.69294000  1.0 -0.0320664367
C  C12  1  0.96479000  0.44030000  0.70009000  1.0 -0.0886325147
C  C13  1  0.01665000  0.44130000  0.73285000  1.0 -0.1975466566
C  C14  1  0.84753000  0.49910000  0.65706000  1.0 0.5267323391
C  C15  1  0.17732000  0.42880000  0.82039000  1.0 -0.1692068627
C  C16  1  0.12436000  0.52700000  0.79794000  1.0 0.1824462227
C  C17  1  0.13631000  0.64950000  0.78028000  1.0 -0.1907023329
C  C18  1  0.19900000  0.66680000  0.78338000  1.0 -0.0886325147
C  C19  1  0.25070000  0.56540000  0.80472000  1.0 -0.0184599752
C  C20  1  0.23947000  0.44650000  0.82362000  1.0 -0.0724819204
C  C21  1  0.21781000  0.61620000  0.51969000  1.0 -0.0886325147
C  C22  1  0.41610000  0.68120000  0.73878000  1.0 0.5719823973
C  C23  1  0.40421000  0.68030000  0.70302000  1.0 -0.0092416175
C  C24  1  0.35398000  0.77530000  0.67871000  1.0 -0.0886325147
C  C25  1  0.34188000  0.77200000  0.64545000  1.0 -0.1907023329
C  C26  1  0.38105000  0.67410000  0.63716000  1.0 0.1824462227
C  C27  1  0.43201000  0.57910000  0.66175000  1.0 -0.2061546234
C  C28  1  0.44233000  0.58150000  0.69426000  1.0 -0.0886325147
C  C29  1  0.30380000  0.62030000  0.57794000  1.0 0.18972844
C  C30  1  0.26515000  0.51690000  0.58609000  1.0 -0.1907023329
C  C31  1  0.20321000  0.46440000  0.56136000  1.0 -0.1044928072
C  C32  1  0.17926000  0.51040000  0.52778000  1.0 -0.0320664367
C  C33  1  0.27863000  0.67160000  0.54450000  1.0 -0.1800609968
C  C34  1  0.11431000  0.44600000  0.50086000  1.0 0.549007027
C  C35  1  0.42279000  0.65610000  0.59672000  1.0 0.18972844
C  C36  1  0.42002000  0.55200000  0.57166000  1.0 -0.2061546234
C  C37  1  0.47482000  0.53120000  0.56722000  1.0 -0.0886325147
C  C38  1  0.53440000  0.61050000  0.58830000  1.0 -0.0184599752
C  C39  1  0.53749000  0.71820000  0.61304000  1.0 -0.0724819204
C  C40  1  0.48231000  0.74190000  0.61699000  1.0 -0.1975466566
C  C41  1  0.59324000  0.57070000  0.58360000  1.0 0.549007027
C  C42  1  0.68178000  0.87490000  0.03681000  1.0 0.0906751776
C  C43  1  0.67973000  0.81130000  0.00835000  1.0 -0.1510118974
C  C44  1  0.73601000  0.73890000  0.01005000  1.0 0.0505215932
C  C45  1  0.79338000  0.73720000  0.04103000  1.0 -0.1398426133
C  C46  1  0.79124000  0.80440000  0.06872000  1.0 0.0906751776
C  C47  1  0.73401000  0.67470000  0.97909000  1.0 0.3701408567
C  C48  1  0.67504000  0.63570000  0.92274000  1.0 0.3602459157
C  C49  1  0.78217000  0.55480000  0.95151000  1.0 0.3602459157
C  C50  1  0.61144000  0.65330000  0.89104000  1.0 0.0631780984
C  C51  1  0.55278000  0.68240000  0.89218000  1.0 -0.1639141006
C  C52  1  0.49443000  0.70580000  0.86249000  1.0 0.0906751776
C  C53  1  0.54773000  0.66540000  0.83089000  1.0 0.0995647646
C  C54  1  0.60867000  0.64400000  0.85960000  1.0 -0.1800609968
C  C55  1  0.94276000  0.33040000  0.98070000  1.0 0.0995647646
C  C56  1  0.89244000  0.41920000  0.98177000  1.0 -0.1510118974
C  C57  1  0.83954000  0.47280000  0.95171000  1.0 0.065603389
C  C58  1  0.84009000  0.44120000  0.92173000  1.0 -0.1692068627
C  C59  1  0.89292000  0.35200000  0.92314000  1.0 0.0847272711
C  C60  1  0.31837000  0.57950000  0.80721000  1.0 0.5771506267
C  C61  1  0.02383000  0.20630000  0.40321000  1.0 0.549007027
C  C62  1  0.03205000  0.14780000  0.37429000  1.0 -0.0403362954
C  C63  1  0.99641000  0.22420000  0.34270000  1.0 -0.0783345666
C  C64  1  0.00499000  0.17260000  0.31576000  1.0 -0.1907023329
C  C65  1  0.04908000  0.04590000  0.31976000  1.0 0.18972844
C  C66  1  0.08392000  0.96790000  0.35126000  1.0 -0.1800609968
C  C67  1  0.07527000  0.01890000  0.37805000  1.0 -0.0783345666
C  C68  1  0.00603000  0.00070000  0.25921000  1.0 0.1824462227
C  C69  1  0.94352000  0.94630000  0.25192000  1.0 -0.1907023329
C  C70  1  0.89203000  0.94490000  0.21885000  1.0 -0.0886325147
C  C71  1  0.90259000  0.00140000  0.19294000  1.0 -0.0320664367
C  C72  1  0.96479000  0.05970000  0.20009000  1.0 -0.0886325147
C  C73  1  0.01665000  0.05870000  0.23285000  1.0 -0.1975466566
C  C74  1  0.84753000  0.00090000  0.15706000  1.0 0.5267323391
C  C75  1  0.17732000  0.07120000  0.32039000  1.0 -0.1692068627
C  C76  1  0.12436000  0.97300000  0.29794000  1.0 0.1824462227
C  C77  1  0.13631000  0.85050000  0.28028000  1.0 -0.1907023329
C  C78  1  0.19900000  0.83320000  0.28338000  1.0 -0.0886325147
C  C79  1  0.25070000  0.93460000  0.30472000  1.0 -0.0184599752
C  C80  1  0.23947000  0.05350000  0.32362000  1.0 -0.0724819204
C  C81  1  0.21781000  0.88380000  0.01969000  1.0 -0.0886325147
C  C82  1  0.41610000  0.81880000  0.23878000  1.0 0.5719823973
C  C83  1  0.40421000  0.81970000  0.20302000  1.0 -0.0092416175
C  C84  1  0.35398000  0.72470000  0.17871000  1.0 -0.0886325147
C  C85  1  0.34188000  0.72800000  0.14545000  1.0 -0.1907023329
C  C86  1  0.38105000  0.82590000  0.13716000  1.0 0.1824462227
C  C87  1  0.43201000  0.92090000  0.16175000  1.0 -0.2061546234
C  C88  1  0.44233000  0.91850000  0.19426000  1.0 -0.0886325147
C  C89  1  0.30380000  0.87970000  0.07794000  1.0 0.18972844
C  C90  1  0.26515000  0.98310000  0.08609000  1.0 -0.1907023329
C  C91  1  0.20321000  0.03560000  0.06136000  1.0 -0.1044928072
C  C92  1  0.17926000  0.98960000  0.02778000  1.0 -0.0320664367
C  C93  1  0.27863000  0.82840000  0.04450000  1.0 -0.1800609968
C  C94  1  0.11431000  0.05400000  0.00086000  1.0 0.549007027
C  C95  1  0.42279000  0.84390000  0.09672000  1.0 0.18972844
C  C96  1  0.42002000  0.94800000  0.07166000  1.0 -0.2061546234
C  C97  1  0.47482000  0.96880000  0.06722000  1.0 -0.0886325147
C  C98  1  0.53440000  0.88950000  0.08830000  1.0 -0.0184599752
C  C99  1  0.53749000  0.78180000  0.11304000  1.0 -0.0724819204
C  C100  1  0.48231000  0.75810000  0.11699000  1.0 -0.1975466566
C  C101  1  0.59324000  0.92930000  0.08360000  1.0 0.549007027
C  C102  1  0.68178000  0.62510000  0.53681000  1.0 0.0906751776
C  C103  1  0.67973000  0.68870000  0.50835000  1.0 -0.1510118974
C  C104  1  0.73601000  0.76110000  0.51005000  1.0 0.0505215932
C  C105  1  0.79338000  0.76280000  0.54103000  1.0 -0.1398426133
C  C106  1  0.79124000  0.69560000  0.56872000  1.0 0.0906751776
C  C107  1  0.73401000  0.82530000  0.47909000  1.0 0.3701408567
C  C108  1  0.67504000  0.86430000  0.42274000  1.0 0.3602459157
C  C109  1  0.78217000  0.94520000  0.45151000  1.0 0.3602459157
C  C110  1  0.61144000  0.84670000  0.39104000  1.0 0.0631780984
C  C111  1  0.55278000  0.81760000  0.39218000  1.0 -0.1639141006
C  C112  1  0.49443000  0.79420000  0.36249000  1.0 0.0906751776
C  C113  1  0.54773000  0.83460000  0.33089000  1.0 0.0995647646
C  C114  1  0.60867000  0.85600000  0.35960000  1.0 -0.1800609968
C  C115  1  0.94276000  0.16960000  0.48070000  1.0 0.0995647646
C  C116  1  0.89244000  0.08080000  0.48177000  1.0 -0.1510118974
C  C117  1  0.83954000  0.02720000  0.45171000  1.0 0.065603389
C  C118  1  0.84009000  0.05880000  0.42173000  1.0 -0.1692068627
C  C119  1  0.89292000  0.14800000  0.42314000  1.0 0.0847272711
C  C120  1  0.31837000  0.92050000  0.30721000  1.0 0.5771506267
C  C121  1  0.97617000  0.79370000  0.59679000  1.0 0.549007027
C  C122  1  0.96795000  0.85220000  0.62571000  1.0 -0.0403362954
C  C123  1  0.00359000  0.77580000  0.65730000  1.0 -0.0783345666
C  C124  1  0.99501000  0.82740000  0.68424000  1.0 -0.1907023329
C  C125  1  0.95092000  0.95410000  0.68024000  1.0 0.18972844
C  C126  1  0.91608000  0.03210000  0.64874000  1.0 -0.1800609968
C  C127  1  0.92473000  0.98110000  0.62195000  1.0 -0.0783345666
C  C128  1  0.99397000  0.99930000  0.74079000  1.0 0.1824462227
C  C129  1  0.05648000  0.05370000  0.74808000  1.0 -0.1907023329
C  C130  1  0.10797000  0.05510000  0.78115000  1.0 -0.0886325147
C  C131  1  0.09741000  0.99860000  0.80706000  1.0 -0.0320664367
C  C132  1  0.03521000  0.94030000  0.79991000  1.0 -0.0886325147
C  C133  1  0.98335000  0.94130000  0.76715000  1.0 -0.1975466566
C  C134  1  0.15247000  0.99910000  0.84294000  1.0 0.5267323391
C  C135  1  0.82268000  0.92880000  0.67961000  1.0 -0.1692068627
C  C136  1  0.87564000  0.02700000  0.70206000  1.0 0.1824462227
C  C137  1  0.86369000  0.14950000  0.71972000  1.0 -0.1800609968
C  C138  1  0.80100000  0.16680000  0.71662000  1.0 -0.0886325147
C  C139  1  0.74930000  0.06540000  0.69528000  1.0 -0.0184599752
C  C140  1  0.76053000  0.94650000  0.67638000  1.0 -0.0724819204
C  C141  1  0.78219000  0.11620000  0.98031000  1.0 -0.0886325147
C  C142  1  0.58390000  0.18120000  0.76122000  1.0 0.5719823973
C  C143  1  0.59579000  0.18030000  0.79698000  1.0 -0.0092416175
C  C144  1  0.64602000  0.27530000  0.82129000  1.0 -0.0886325147
C  C145  1  0.65812000  0.27200000  0.85455000  1.0 -0.1907023329
C  C146  1  0.61895000  0.17410000  0.86284000  1.0 0.1824462227
C  C147  1  0.56799000  0.07910000  0.83825000  1.0 -0.2061546234
C  C148  1  0.55767000  0.08150000  0.80574000  1.0 -0.0886325147
C  C149  1  0.69620000  0.12030000  0.92206000  1.0 0.18972844
C  C150  1  0.73485000  0.01690000  0.91391000  1.0 -0.1907023329
C  C151  1  0.79679000  0.96440000  0.93864000  1.0 -0.1044928072
C  C152  1  0.82074000  0.01040000  0.97222000  1.0 -0.0320664367
C  C153  1  0.72137000  0.17160000  0.95550000  1.0 -0.1800609968
C  C154  1  0.88569000  0.94600000  0.99914000  1.0 0.549007027
C  C155  1  0.57721000  0.15610000  0.90328000  1.0 0.18972844
C  C156  1  0.57998000  0.05200000  0.92834000  1.0 -0.2061546234
C  C157  1  0.52518000  0.03120000  0.93278000  1.0 -0.0886325147
C  C158  1  0.46560000  0.11050000  0.91170000  1.0 -0.0184599752
C  C159  1  0.46251000  0.21820000  0.88696000  1.0 -0.0724819204
C  C160  1  0.51769000  0.24190000  0.88301000  1.0 -0.1975466566
C  C161  1  0.40676000  0.07070000  0.91640000  1.0 0.549007027
C  C162  1  0.31822000  0.37490000  0.46319000  1.0 0.0906751776
C  C163  1  0.32027000  0.31130000  0.49165000  1.0 -0.1510118974
C  C164  1  0.26399000  0.23890000  0.48995000  1.0 0.0505215932
C  C165  1  0.20662000  0.23720000  0.45897000  1.0 -0.1398426133
C  C166  1  0.20876000  0.30440000  0.43128000  1.0 0.0906751776
C  C167  1  0.26599000  0.17470000  0.52091000  1.0 0.3701408567
C  C168  1  0.32496000  0.13570000  0.57726000  1.0 0.3602459157
C  C169  1  0.21783000  0.05480000  0.54849000  1.0 0.3602459157
C  C170  1  0.38856000  0.15330000  0.60896000  1.0 0.0631780984
C  C171  1  0.44722000  0.18240000  0.60782000  1.0 -0.1639141006
C  C172  1  0.50557000  0.20580000  0.63751000  1.0 0.0906751776
C  C173  1  0.45227000  0.16540000  0.66911000  1.0 0.0995647646
C  C174  1  0.39133000  0.14400000  0.64040000  1.0 -0.1800609968
C  C175  1  0.05724000  0.83040000  0.51930000  1.0 0.0995647646
C  C176  1  0.10756000  0.91920000  0.51823000  1.0 -0.1510118974
C  C177  1  0.16046000  0.97280000  0.54829000  1.0 0.065603389
C  C178  1  0.15991000  0.94120000  0.57827000  1.0 -0.1692068627
C  C179  1  0.10708000  0.85200000  0.57686000  1.0 0.0847272711
C  C180  1  0.68163000  0.07950000  0.69279000  1.0 0.5771506267
C  C181  1  0.97617000  0.70630000  0.09679000  1.0 0.549007027
C  C182  1  0.96795000  0.64780000  0.12571000  1.0 -0.0403362954
C  C183  1  0.00359000  0.72420000  0.15730000  1.0 -0.0783345666
C  C184  1  0.99501000  0.67260000  0.18424000  1.0 -0.1907023329
C  C185  1  0.95092000  0.54590000  0.18024000  1.0 0.18972844
C  C186  1  0.91608000  0.46790000  0.14874000  1.0 -0.1800609968
C  C187  1  0.92473000  0.51890000  0.12195000  1.0 -0.0783345666
C  C188  1  0.99397000  0.50070000  0.24079000  1.0 0.1824462227
C  C189  1  0.05648000  0.44630000  0.24808000  1.0 -0.1907023329
C  C190  1  0.10797000  0.44490000  0.28115000  1.0 -0.0886325147
C  C191  1  0.09741000  0.50140000  0.30706000  1.0 -0.0320664367
C  C192  1  0.03521000  0.55970000  0.29991000  1.0 -0.0886325147
C  C193  1  0.98335000  0.55870000  0.26715000  1.0 -0.1975466566
C  C194  1  0.15247000  0.50090000  0.34294000  1.0 0.5267323391
C  C195  1  0.82268000  0.57120000  0.17961000  1.0 -0.1692068627
C  C196  1  0.87564000  0.47300000  0.20206000  1.0 0.1824462227
C  C197  1  0.86369000  0.35050000  0.21972000  1.0 -0.1800609968
C  C198  1  0.80100000  0.33320000  0.21662000  1.0 -0.0886325147
C  C199  1  0.74930000  0.43460000  0.19528000  1.0 -0.0184599752
C  C200  1  0.76053000  0.55350000  0.17638000  1.0 -0.0724819204
C  C201  1  0.78219000  0.38380000  0.48031000  1.0 -0.0886325147
C  C202  1  0.58390000  0.31880000  0.26122000  1.0 0.5719823973
C  C203  1  0.59579000  0.31970000  0.29698000  1.0 -0.0092416175
C  C204  1  0.64602000  0.22470000  0.32129000  1.0 -0.0886325147
C  C205  1  0.65812000  0.22800000  0.35455000  1.0 -0.1907023329
C  C206  1  0.61895000  0.32590000  0.36284000  1.0 0.1824462227
C  C207  1  0.56799000  0.42090000  0.33825000  1.0 -0.2061546234
C  C208  1  0.55767000  0.41850000  0.30574000  1.0 -0.0886325147
C  C209  1  0.69620000  0.37970000  0.42206000  1.0 0.18972844
C  C210  1  0.73485000  0.48310000  0.41391000  1.0 -0.1907023329
C  C211  1  0.79679000  0.53560000  0.43864000  1.0 -0.1044928072
C  C212  1  0.82074000  0.48960000  0.47222000  1.0 -0.0320664367
C  C213  1  0.72137000  0.32840000  0.45550000  1.0 -0.1800609968
C  C214  1  0.88569000  0.55400000  0.49914000  1.0 0.549007027
C  C215  1  0.57721000  0.34390000  0.40328000  1.0 0.18972844
C  C216  1  0.57998000  0.44800000  0.42834000  1.0 -0.2061546234
C  C217  1  0.52518000  0.46880000  0.43278000  1.0 -0.0886325147
C  C218  1  0.46560000  0.38950000  0.41170000  1.0 -0.0184599752
C  C219  1  0.46251000  0.28180000  0.38696000  1.0 -0.0724819204
C  C220  1  0.51769000  0.25810000  0.38301000  1.0 -0.1975466566
C  C221  1  0.40676000  0.42930000  0.41640000  1.0 0.549007027
C  C222  1  0.31822000  0.12510000  0.96319000  1.0 0.0906751776
C  C223  1  0.32027000  0.18870000  0.99165000  1.0 -0.1510118974
C  C224  1  0.26399000  0.26110000  0.98995000  1.0 0.0505215932
C  C225  1  0.20662000  0.26280000  0.95897000  1.0 -0.1398426133
C  C226  1  0.20876000  0.19560000  0.93128000  1.0 0.0906751776
C  C227  1  0.26599000  0.32530000  0.02091000  1.0 0.3701408567
C  C228  1  0.32496000  0.36430000  0.07726000  1.0 0.3602459157
C  C229  1  0.21783000  0.44520000  0.04849000  1.0 0.3602459157
C  C230  1  0.38856000  0.34670000  0.10896000  1.0 0.0631780984
C  C231  1  0.44722000  0.31760000  0.10782000  1.0 -0.1639141006
C  C232  1  0.50557000  0.29420000  0.13751000  1.0 0.0906751776
C  C233  1  0.45227000  0.33460000  0.16911000  1.0 0.0995647646
C  C234  1  0.39133000  0.35600000  0.14040000  1.0 -0.1800609968
C  C235  1  0.05724000  0.66960000  0.01930000  1.0 0.0995647646
C  C236  1  0.10756000  0.58080000  0.01823000  1.0 -0.1510118974
C  C237  1  0.16046000  0.52720000  0.04829000  1.0 0.065603389
C  C238  1  0.15991000  0.55880000  0.07827000  1.0 -0.1692068627
C  C239  1  0.10708000  0.64800000  0.07686000  1.0 0.0847272711
C  C240  1  0.68163000  0.42050000  0.19279000  1.0 0.5771506267
N  N1  1  0.94238000  0.29510000  0.95187000  1.0 -0.2309342505
N  N2  1  0.73603000  0.86900000  0.06694000  1.0 -0.2309342505
N  N3  1  0.78815000  0.60710000  0.98082000  1.0 -0.3825602992
N  N4  1  0.67532000  0.68940000  0.95067000  1.0 -0.4211780591
N  N5  1  0.72669000  0.56800000  0.92143000  1.0 -0.4211780591
N  N6  1  0.49199000  0.69770000  0.83226000  1.0 -0.2570827393
N  N7  1  0.36826000  0.67040000  0.60293000  1.0 -0.1692068627
N  N8  1  0.05910000  0.50150000  0.79273000  1.0 -0.1510118974
N  N9  1  0.94238000  0.20490000  0.45187000  1.0 -0.2309342505
N  N10  1  0.73603000  0.63100000  0.56694000  1.0 -0.2309342505
N  N11  1  0.78815000  0.89290000  0.48082000  1.0 -0.3825602992
N  N12  1  0.67532000  0.81060000  0.45067000  1.0 -0.4211780591
N  N13  1  0.72669000  0.93200000  0.42143000  1.0 -0.4211780591
N  N14  1  0.49199000  0.80230000  0.33226000  1.0 -0.2570827393
N  N15  1  0.36826000  0.82960000  0.10293000  1.0 -0.1692068627
N  N16  1  0.05910000  0.99850000  0.29273000  1.0 -0.1398426133
N  N17  1  0.05762000  0.79510000  0.54813000  1.0 -0.2309342505
N  N18  1  0.26397000  0.36900000  0.43306000  1.0 -0.2309342505
N  N19  1  0.21185000  0.10710000  0.51918000  1.0 -0.3825602992
N  N20  1  0.32468000  0.18940000  0.54933000  1.0 -0.4211780591
N  N21  1  0.27331000  0.06800000  0.57857000  1.0 -0.4211780591
N  N22  1  0.50801000  0.19770000  0.66774000  1.0 -0.2570827393
N  N23  1  0.63174000  0.17040000  0.89707000  1.0 -0.1692068627
N  N24  1  0.94090000  0.00150000  0.70727000  1.0 -0.1510118974
N  N25  1  0.05762000  0.70490000  0.04813000  1.0 -0.2309342505
N  N26  1  0.26397000  0.13100000  0.93306000  1.0 -0.2309342505
N  N27  1  0.21185000  0.39290000  0.01918000  1.0 -0.3825602992
N  N28  1  0.32468000  0.31060000  0.04933000  1.0 -0.4211780591
N  N29  1  0.27331000  0.43200000  0.07857000  1.0 -0.4211780591
N  N30  1  0.50801000  0.30230000  0.16774000  1.0 -0.2570827393
N  N31  1  0.63174000  0.32960000  0.39707000  1.0 -0.1692068627
N  N32  1  0.94090000  0.49850000  0.20727000  1.0 -0.1398426133
O  O1  1  0.07495000  0.37550000  0.50865000  1.0 -0.5489078028
O  O2  1  0.10026000  0.46430000  0.47053000  1.0 -0.5401695607
O  O3  1  0.71367000  0.20610000  0.09120000  1.0 -0.3418745113
O  O4  1  0.58527000  0.49330000  0.55847000  1.0 -0.529132062
O  O5  1  0.64989000  0.62000000  0.60670000  1.0 -0.5401695607
O  O6  1  0.44468000  0.56210000  0.75792000  1.0 -0.575956331
O  O7  1  0.39555000  0.80800000  0.74754000  1.0 -0.5592251165
O  O8  1  0.36454000  0.49320000  0.82686000  1.0 -0.5401695607
O  O9  1  0.32304000  0.68660000  0.78760000  1.0 -0.5701854391
O  O10  1  0.85763000  0.45670000  0.63358000  1.0 -0.529132062
O  O11  1  0.79035000  0.54600000  0.65286000  1.0 -0.5401695607
O  O12  1  0.99079000  0.16350000  0.89988000  1.0 -0.5592251165
O  O13  1  0.05084000  0.37090000  0.93079000  1.0 -0.5701854391
O  O14  1  0.95414000  0.93070000  0.94129000  1.0 -0.6522327227
O  O15  1  0.39999000  0.99560000  0.80804000  1.0 -0.6676320894
O  O16  1  0.07495000  0.12450000  0.00865000  1.0 -0.5489078028
O  O17  1  0.10026000  0.03570000  0.97053000  1.0 -0.5401695607
O  O18  1  0.71367000  0.29390000  0.59120000  1.0 -0.3327049626
O  O19  1  0.58527000  0.00670000  0.05847000  1.0 -0.529132062
O  O20  1  0.64989000  0.88000000  0.10670000  1.0 -0.5401695607
O  O21  1  0.44468000  0.93790000  0.25792000  1.0 -0.5701854391
O  O22  1  0.39555000  0.69200000  0.24754000  1.0 -0.5592251165
O  O23  1  0.36454000  0.00680000  0.32686000  1.0 -0.5401695607
O  O24  1  0.32304000  0.81340000  0.28760000  1.0 -0.5701854391
O  O25  1  0.85763000  0.04330000  0.13358000  1.0 -0.529132062
O  O26  1  0.79035000  0.95400000  0.15286000  1.0 -0.5401695607
O  O27  1  0.99079000  0.33650000  0.39988000  1.0 -0.5592251165
O  O28  1  0.05084000  0.12910000  0.43079000  1.0 -0.5592251165
O  O29  1  0.95414000  0.56930000  0.44129000  1.0 -0.6522327227
O  O30  1  0.39999000  0.50440000  0.30804000  1.0 -0.6676320894
O  O31  1  0.92505000  0.87550000  0.99135000  1.0 -0.5489078028
O  O32  1  0.89974000  0.96430000  0.02947000  1.0 -0.5401695607
O  O33  1  0.28633000  0.70610000  0.40880000  1.0 -0.3327049626
O  O34  1  0.41473000  0.99330000  0.94153000  1.0 -0.529132062
O  O35  1  0.35011000  0.12000000  0.89330000  1.0 -0.5401695607
O  O36  1  0.55532000  0.06210000  0.74208000  1.0 -0.5701854391
O  O37  1  0.60445000  0.30800000  0.75246000  1.0 -0.5592251165
O  O38  1  0.63546000  0.99320000  0.67314000  1.0 -0.5401695607
O  O39  1  0.67696000  0.18660000  0.71240000  1.0 -0.5701854391
O  O40  1  0.14237000  0.95670000  0.86642000  1.0 -0.529132062
O  O41  1  0.20965000  0.04600000  0.84714000  1.0 -0.5401695607
O  O42  1  0.00921000  0.66350000  0.60012000  1.0 -0.5592251165
O  O43  1  0.94916000  0.87090000  0.56921000  1.0 -0.5701854391
O  O44  1  0.04586000  0.43070000  0.55871000  1.0 -0.6522327227
O  O45  1  0.60001000  0.49560000  0.69196000  1.0 -0.6676320894
O  O46  1  0.92505000  0.62450000  0.49135000  1.0 -0.5489078028
O  O47  1  0.89974000  0.53570000  0.52947000  1.0 -0.5401695607
O  O48  1  0.28633000  0.79390000  0.90880000  1.0 -0.3418745113
O  O49  1  0.41473000  0.50670000  0.44153000  1.0 -0.529132062
O  O50  1  0.35011000  0.38000000  0.39330000  1.0 -0.5401695607
O  O51  1  0.55532000  0.43790000  0.24208000  1.0 -0.575956331
O  O52  1  0.60445000  0.19200000  0.25246000  1.0 -0.5592251165
O  O53  1  0.63546000  0.50680000  0.17314000  1.0 -0.5401695607
O  O54  1  0.67696000  0.31340000  0.21240000  1.0 -0.5701854391
O  O55  1  0.14237000  0.54330000  0.36642000  1.0 -0.529132062
O  O56  1  0.20965000  0.45400000  0.34714000  1.0 -0.5401695607
O  O57  1  0.00921000  0.83650000  0.10012000  1.0 -0.5592251165
O  O58  1  0.94916000  0.62910000  0.06921000  1.0 -0.5592251165
O  O59  1  0.04586000  0.06930000  0.05871000  1.0 -0.6522327227
O  O60  1  0.60001000  0.00440000  0.19196000  1.0 -0.6676320894
