# DDEC6 charges by PACMAN v1.1 (https://github.com/mtap-research/PACMAN-charge/)
data_JUPNAL_FSR_pacman
_symmetry_space_group_name_H-M   'P 1'
_cell_length_a   9.92795000
_cell_length_b   9.92795000
_cell_length_c   19.10100000
_cell_angle_alpha   63.15800000
_cell_angle_beta   116.84200000
_cell_angle_gamma   139.48900000
_symmetry_Int_Tables_number   1
_chemical_formula_structural   SrCoH18C14(NO7)2
_chemical_formula_sum   'Sr2 Co2 H36 C28 N4 O28'
_cell_volume   1072.00798131
_cell_formula_units_Z   2
loop_
 _symmetry_equiv_pos_site_id
 _symmetry_equiv_pos_as_xyz
  1  'x, y, z'
loop_
 _atom_site_type_symbol
 _atom_site_label
 _atom_site_symmetry_multiplicity
 _atom_site_fract_x
 _atom_site_fract_y
 _atom_site_fract_z
 _atom_site_occupancy
 _atom_site_charge
Sr  Sr1  1  0.98736000  0.98736000  0.75000000  1.0 1.4388859924
Sr  Sr2  1  0.01264000  0.01264000  0.25000000  1.0 1.4388859924
Co  Co1  1  0.50000000  0.50000000  0.50000000  1.0 0.8836479839
Co  Co2  1  0.50000000  0.50000000  0.00000000  1.0 0.8836479839
H  H1  1  0.17240000  0.17560000  0.56490000  1.0 0.317399865
H  H2  1  0.17560000  0.17240000  0.93510000  1.0 0.317399865
H  H3  1  0.82760000  0.82440000  0.43510000  1.0 0.317399865
H  H4  1  0.82440000  0.82760000  0.06490000  1.0 0.317399865
H  H5  1  0.21090000  0.10110000  0.54370000  1.0 0.3308886532
H  H6  1  0.10110000  0.21090000  0.95630000  1.0 0.3308886532
H  H7  1  0.78910000  0.89890000  0.45630000  1.0 0.3308886532
H  H8  1  0.89890000  0.78910000  0.04370000  1.0 0.3308886532
H  H9  1  0.88920000  0.70280000  0.68550000  1.0 0.2852098402
H  H10  1  0.70280000  0.88920000  0.81450000  1.0 0.2852098402
H  H11  1  0.11080000  0.29720000  0.31450000  1.0 0.2852098402
H  H12  1  0.29720000  0.11080000  0.18550000  1.0 0.2852098402
H  H13  1  0.07600000  0.79000000  0.70800000  1.0 0.2651974019
H  H14  1  0.79000000  0.07600000  0.79200000  1.0 0.26425617
H  H15  1  0.92400000  0.21000000  0.29200000  1.0 0.26425617
H  H16  1  0.21000000  0.92400000  0.20800000  1.0 0.2651974019
H  H17  1  0.21400000  0.39000000  0.79350000  1.0 0.3009956013
H  H18  1  0.39000000  0.21400000  0.70650000  1.0 0.3009956013
H  H19  1  0.78600000  0.61000000  0.20650000  1.0 0.3009956013
H  H20  1  0.61000000  0.78600000  0.29350000  1.0 0.3009956013
H  H21  1  0.34420000  0.50180000  0.74480000  1.0 0.3308886532
H  H22  1  0.50180000  0.34420000  0.75520000  1.0 0.3308886532
H  H23  1  0.65580000  0.49820000  0.25520000  1.0 0.3308886532
H  H24  1  0.49820000  0.65580000  0.24480000  1.0 0.3308886532
H  H25  1  0.36580000  0.79080000  0.57880000  1.0 0.1459782477
H  H26  1  0.79080000  0.36580000  0.92120000  1.0 0.1459782477
H  H27  1  0.63420000  0.20920000  0.42120000  1.0 0.1459782477
H  H28  1  0.20920000  0.63420000  0.07880000  1.0 0.1459782477
H  H29  1  0.06200000  0.68360000  0.35520000  1.0 0.1296539512
H  H30  1  0.68360000  0.06200000  0.14480000  1.0 0.1296539512
H  H31  1  0.93800000  0.31640000  0.64480000  1.0 0.1296539512
H  H32  1  0.31640000  0.93800000  0.85520000  1.0 0.1296539512
H  H33  1  0.19420000  0.55900000  0.36650000  1.0 0.115662178
H  H34  1  0.55900000  0.19420000  0.13350000  1.0 0.115662178
H  H35  1  0.80580000  0.44100000  0.63350000  1.0 0.115662178
H  H36  1  0.44100000  0.80580000  0.86650000  1.0 0.115662178
C  C1  1  0.40431000  0.67029000  0.53703000  1.0 0.1048823744
C  C2  1  0.67029000  0.40431000  0.96297000  1.0 0.1048823744
C  C3  1  0.59569000  0.32971000  0.46297000  1.0 0.1048823744
C  C4  1  0.32971000  0.59569000  0.03703000  1.0 0.1048823744
C  C5  1  0.32931000  0.74509000  0.53474000  1.0 -0.1310862396
C  C6  1  0.74509000  0.32931000  0.96526000  1.0 -0.1310862396
C  C7  1  0.67069000  0.25491000  0.46526000  1.0 -0.1310862396
C  C8  1  0.25491000  0.67069000  0.03474000  1.0 -0.1310862396
C  C9  1  0.19840000  0.75160000  0.46590000  1.0 0.0295052361
C  C10  1  0.75160000  0.19840000  0.03410000  1.0 0.0295052361
C  C11  1  0.80160000  0.24840000  0.53410000  1.0 0.0295052361
C  C12  1  0.24840000  0.80160000  0.96590000  1.0 0.0295052361
C  C13  1  0.14869000  0.68111000  0.40231000  1.0 -0.1579480861
C  C14  1  0.68111000  0.14869000  0.09769000  1.0 -0.1579480861
C  C15  1  0.85131000  0.31889000  0.59769000  1.0 -0.1579480861
C  C16  1  0.31889000  0.85131000  0.90231000  1.0 -0.1579480861
C  C17  1  0.22925000  0.60675000  0.40960000  1.0 0.1076634806
C  C18  1  0.60675000  0.22925000  0.09040000  1.0 0.1076634806
C  C19  1  0.77075000  0.39325000  0.59040000  1.0 0.1076634806
C  C20  1  0.39325000  0.77075000  0.90960000  1.0 0.1076634806
C  C21  1  0.55597000  0.67043000  0.60847000  1.0 0.5548061188
C  C22  1  0.67043000  0.55597000  0.89153000  1.0 0.5548061188
C  C23  1  0.44403000  0.32957000  0.39153000  1.0 0.5548061188
C  C24  1  0.32957000  0.44403000  0.10847000  1.0 0.5548061188
C  C25  1  0.11464000  0.83456000  0.46210000  1.0 0.5622623619
C  C26  1  0.83456000  0.11464000  0.03790000  1.0 0.5622623619
C  C27  1  0.88536000  0.16544000  0.53790000  1.0 0.5622623619
C  C28  1  0.16544000  0.88536000  0.96210000  1.0 0.5622623619
N  N1  1  0.35455000  0.60005000  0.47544000  1.0 -0.2531675566
N  N2  1  0.60005000  0.35455000  0.02456000  1.0 -0.2531675566
N  N3  1  0.64545000  0.39995000  0.52456000  1.0 -0.2531675566
N  N4  1  0.39995000  0.64545000  0.97544000  1.0 -0.2531675566
O  O1  1  0.62209000  0.60521000  0.60360000  1.0 -0.5497545544
O  O2  1  0.60521000  0.62209000  0.89640000  1.0 -0.5497545544
O  O3  1  0.37791000  0.39479000  0.39640000  1.0 -0.5497545544
O  O4  1  0.39479000  0.37791000  0.10360000  1.0 -0.5497545544
O  O5  1  0.60938000  0.73622000  0.66616000  1.0 -0.5579681341
O  O6  1  0.73622000  0.60938000  0.83384000  1.0 -0.5579681341
O  O7  1  0.39062000  0.26378000  0.33384000  1.0 -0.5579681341
O  O8  1  0.26378000  0.39062000  0.16616000  1.0 -0.5579681341
O  O9  1  0.99812000  0.83848000  0.39840000  1.0 -0.6142050568
O  O10  1  0.83848000  0.99812000  0.10160000  1.0 -0.6142050568
O  O11  1  0.00188000  0.16152000  0.60160000  1.0 -0.6142050568
O  O12  1  0.16152000  0.00188000  0.89840000  1.0 -0.6142050568
O  O13  1  0.16613000  0.89187000  0.52284000  1.0 -0.5231249277
O  O14  1  0.89187000  0.16613000  0.97716000  1.0 -0.5231249277
O  O15  1  0.83387000  0.10813000  0.47716000  1.0 -0.5231249277
O  O16  1  0.10813000  0.83387000  0.02284000  1.0 -0.5231249277
O  O17  1  0.25873000  0.19707000  0.55723000  1.0 -0.6259337161
O  O18  1  0.19707000  0.25873000  0.94277000  1.0 -0.6259337161
O  O19  1  0.74127000  0.80293000  0.44277000  1.0 -0.6259337161
O  O20  1  0.80293000  0.74127000  0.05723000  1.0 -0.6259337161
O  O21  1  0.98651000  0.75569000  0.71897000  1.0 -0.6506083552
O  O22  1  0.75569000  0.98651000  0.78103000  1.0 -0.6506083552
O  O23  1  0.01349000  0.24431000  0.28103000  1.0 -0.6506083552
O  O24  1  0.24431000  0.01349000  0.21897000  1.0 -0.6506083552
O  O25  1  0.22700000  0.38300000  0.75862000  1.0 -0.6779937092
O  O26  1  0.38300000  0.22700000  0.74138000  1.0 -0.6779937092
O  O27  1  0.77300000  0.61700000  0.24138000  1.0 -0.6779937092
O  O28  1  0.61700000  0.77300000  0.25862000  1.0 -0.6779937092
