# DDEC6 charges by PACMAN v1.1 (https://github.com/mtap-research/PACMAN-charge/)
data_JUQDOR_FSR_pacman
_chemical_formula_sum              "Si96 Al96 O384 Na32 Ni32"
_cell_length_a       24.8629
_cell_length_b       24.8629
_cell_length_c       24.8629
_cell_angle_alpha    90
_cell_angle_beta     90
_cell_angle_gamma    90

_symmetry_space_group_name_H-M    "P 1"
_symmetry_Int_Tables_number       1

loop_
  _symmetry_equiv_pos_as_xyz
  'x, y, z'

loop_
  _atom_site_type_symbol
  _atom_site_label
  _atom_site_symmetry_multiplicity
  _atom_site_fract_x
  _atom_site_fract_y
  _atom_site_fract_z
  _atom_site_occupancy
 _atom_site_charge
Si  Si1       1.0  0.94810  0.12380  0.04080  1.0000 1.7238435134
Al  Al1       1.0  0.87620  0.05190  0.95920  1.0000 1.7627361528
Si  Si2       1.0  0.94810  0.62380  0.54080  1.0000 1.7238435134
Al  Al2       1.0  0.87620  0.55190  0.45920  1.0000 1.7627361528
Si  Si3       1.0  0.44810  0.12380  0.54080  1.0000 1.7253650358
Al  Al3       1.0  0.37620  0.05190  0.45920  1.0000 1.7627361528
Si  Si4       1.0  0.44810  0.62380  0.04080  1.0000 1.7253650358
Al  Al4       1.0  0.37620  0.55190  0.95920  1.0000 1.7627361528
Si  Si5       1.0  0.80190  0.12620  0.54080  1.0000 1.7238435134
Al  Al5       1.0  0.87380  0.19810  0.45920  1.0000 1.7627361528
Si  Si6       1.0  0.80190  0.62620  0.04080  1.0000 1.7238435134
Al  Al6       1.0  0.87380  0.69810  0.95920  1.0000 1.7627361528
Si  Si7       1.0  0.30190  0.12620  0.04080  1.0000 1.7253650358
Al  Al7       1.0  0.37380  0.19810  0.95920  1.0000 1.7627361528
Si  Si8       1.0  0.30190  0.62620  0.54080  1.0000 1.7253650358
Al  Al8       1.0  0.37380  0.69810  0.45920  1.0000 1.7627361528
Si  Si9       1.0  0.30190  0.62380  0.70920  1.0000 1.7253650358
Al  Al9       1.0  0.37380  0.55190  0.79080  1.0000 1.7627361528
Si  Si10      1.0  0.30190  0.12380  0.20920  1.0000 1.7253650358
Al  Al10      1.0  0.37380  0.05190  0.29080  1.0000 1.7627361528
Si  Si11      1.0  0.80190  0.62380  0.20920  1.0000 1.7238435134
Al  Al11      1.0  0.87380  0.55190  0.29080  1.0000 1.7627361528
Si  Si12      1.0  0.80190  0.12380  0.70920  1.0000 1.7238435134
Al  Al12      1.0  0.87380  0.05190  0.79080  1.0000 1.7627361528
Si  Si13      1.0  0.44810  0.62620  0.20920  1.0000 1.7253650358
Al  Al13      1.0  0.37620  0.69810  0.29080  1.0000 1.7627361528
Si  Si14      1.0  0.44810  0.12620  0.70920  1.0000 1.7253650358
Al  Al14      1.0  0.37620  0.19810  0.79080  1.0000 1.7627361528
Si  Si15      1.0  0.94810  0.62620  0.70920  1.0000 1.7238435134
Al  Al15      1.0  0.87620  0.69810  0.79080  1.0000 1.7627361528
Si  Si16      1.0  0.94810  0.12620  0.20920  1.0000 1.7238435134
Al  Al16      1.0  0.87620  0.19810  0.29080  1.0000 1.7627361528
Si  Si17      1.0  0.04080  0.94810  0.12380  1.0000 1.7253650358
Al  Al17      1.0  0.95920  0.87620  0.05190  1.0000 1.7627361528
Si  Si18      1.0  0.04080  0.44810  0.62380  1.0000 1.7253650358
Al  Al18      1.0  0.95920  0.37620  0.55190  1.0000 1.7627361528
Si  Si19      1.0  0.54080  0.94810  0.62380  1.0000 1.7253650358
Al  Al19      1.0  0.45920  0.87620  0.55190  1.0000 1.7627361528
Si  Si20      1.0  0.54080  0.44810  0.12380  1.0000 1.7253650358
Al  Al20      1.0  0.45920  0.37620  0.05190  1.0000 1.7627361528
Si  Si21      1.0  0.54080  0.80190  0.12620  1.0000 1.7253650358
Al  Al21      1.0  0.45920  0.87380  0.19810  1.0000 1.7627361528
Si  Si22      1.0  0.54080  0.30190  0.62620  1.0000 1.7253650358
Al  Al22      1.0  0.45920  0.37380  0.69810  1.0000 1.7627361528
Si  Si23      1.0  0.04080  0.80190  0.62620  1.0000 1.7253650358
Al  Al23      1.0  0.95920  0.87380  0.69810  1.0000 1.7627361528
Si  Si24      1.0  0.04080  0.30190  0.12620  1.0000 1.7253650358
Al  Al24      1.0  0.95920  0.37380  0.19810  1.0000 1.7627361528
Si  Si25      1.0  0.70920  0.30190  0.62380  1.0000 1.7238435134
Al  Al25      1.0  0.79080  0.37380  0.55190  1.0000 1.7627361528
Si  Si26      1.0  0.70920  0.80190  0.12380  1.0000 1.7253650358
Al  Al26      1.0  0.79080  0.87380  0.05190  1.0000 1.7627361528
Si  Si27      1.0  0.20920  0.30190  0.12380  1.0000 1.7253650358
Al  Al27      1.0  0.29080  0.37380  0.05190  1.0000 1.7627361528
Si  Si28      1.0  0.20920  0.80190  0.62380  1.0000 1.7253650358
Al  Al28      1.0  0.29080  0.87380  0.55190  1.0000 1.7627361528
Si  Si29      1.0  0.20920  0.44810  0.62620  1.0000 1.7253650358
Al  Al29      1.0  0.29080  0.37620  0.69810  1.0000 1.7627361528
Si  Si30      1.0  0.20920  0.94810  0.12620  1.0000 1.7253650358
Al  Al30      1.0  0.29080  0.87620  0.19810  1.0000 1.7627361528
Si  Si31      1.0  0.70920  0.44810  0.12620  1.0000 1.7238435134
Al  Al31      1.0  0.79080  0.37620  0.19810  1.0000 1.7627361528
Si  Si32      1.0  0.70920  0.94810  0.62620  1.0000 1.7253650358
Al  Al32      1.0  0.79080  0.87620  0.69810  1.0000 1.7627361528
Si  Si33      1.0  0.12380  0.04080  0.94810  1.0000 1.7253650358
Al  Al33      1.0  0.05190  0.95920  0.87620  1.0000 1.7627361528
Si  Si34      1.0  0.12380  0.54080  0.44810  1.0000 1.7253650358
Al  Al34      1.0  0.05190  0.45920  0.37620  1.0000 1.7627361528
Si  Si35      1.0  0.62380  0.04080  0.44810  1.0000 1.7238435134
Al  Al35      1.0  0.55190  0.95920  0.37620  1.0000 1.7627361528
Si  Si36      1.0  0.62380  0.54080  0.94810  1.0000 1.7238435134
Al  Al36      1.0  0.55190  0.45920  0.87620  1.0000 1.7627361528
Si  Si37      1.0  0.12620  0.54080  0.80190  1.0000 1.7253650358
Al  Al37      1.0  0.19810  0.45920  0.87380  1.0000 1.7627361528
Si  Si38      1.0  0.12620  0.04080  0.30190  1.0000 1.7253650358
Al  Al38      1.0  0.19810  0.95920  0.37380  1.0000 1.7627361528
Si  Si39      1.0  0.62620  0.54080  0.30190  1.0000 1.7253650358
Al  Al39      1.0  0.69810  0.45920  0.37380  1.0000 1.7627361528
Si  Si40      1.0  0.62620  0.04080  0.80190  1.0000 1.7238435134
Al  Al40      1.0  0.69810  0.95920  0.87380  1.0000 1.7627361528
Si  Si41      1.0  0.62380  0.70920  0.30190  1.0000 1.7238435134
Al  Al41      1.0  0.55190  0.79080  0.37380  1.0000 1.7627361528
Si  Si42      1.0  0.62380  0.20920  0.80190  1.0000 1.7238435134
Al  Al42      1.0  0.55190  0.29080  0.87380  1.0000 1.7627361528
Si  Si43      1.0  0.12380  0.70920  0.80190  1.0000 1.7253650358
Al  Al43      1.0  0.05190  0.79080  0.87380  1.0000 1.7627361528
Si  Si44      1.0  0.12380  0.20920  0.30190  1.0000 1.7253650358
Al  Al44      1.0  0.05190  0.29080  0.37380  1.0000 1.7627361528
Si  Si45      1.0  0.62620  0.20920  0.44810  1.0000 1.7238435134
Al  Al45      1.0  0.69810  0.29080  0.37620  1.0000 1.7627361528
Si  Si46      1.0  0.62620  0.70920  0.94810  1.0000 1.7253650358
Al  Al46      1.0  0.69810  0.79080  0.87620  1.0000 1.7627361528
Si  Si47      1.0  0.12620  0.20920  0.94810  1.0000 1.7253650358
Al  Al47      1.0  0.19810  0.29080  0.87620  1.0000 1.7627361528
Si  Si48      1.0  0.12620  0.70920  0.44810  1.0000 1.7253650358
Al  Al48      1.0  0.19810  0.79080  0.37620  1.0000 1.7627361528
Si  Si49      1.0  0.05190  0.87620  0.95920  1.0000 1.7253650358
Al  Al49      1.0  0.12380  0.94810  0.04080  1.0000 1.7627361528
Si  Si50      1.0  0.05190  0.37620  0.45920  1.0000 1.7253650358
Al  Al50      1.0  0.12380  0.44810  0.54080  1.0000 1.7627361528
Si  Si51      1.0  0.55190  0.87620  0.45920  1.0000 1.7253650358
Al  Al51      1.0  0.62380  0.94810  0.54080  1.0000 1.7627361528
Si  Si52      1.0  0.55190  0.37620  0.95920  1.0000 1.7253650358
Al  Al52      1.0  0.62380  0.44810  0.04080  1.0000 1.7627361528
Si  Si53      1.0  0.19810  0.87380  0.45920  1.0000 1.7253650358
Al  Al53      1.0  0.12620  0.80190  0.54080  1.0000 1.7627361528
Si  Si54      1.0  0.19810  0.37380  0.95920  1.0000 1.7253650358
Al  Al54      1.0  0.12620  0.30190  0.04080  1.0000 1.7627361528
Si  Si55      1.0  0.69810  0.87380  0.95920  1.0000 1.7253650358
Al  Al55      1.0  0.62620  0.80190  0.04080  1.0000 1.7627361528
Si  Si56      1.0  0.69810  0.37380  0.45920  1.0000 1.7238435134
Al  Al56      1.0  0.62620  0.30190  0.54080  1.0000 1.7627361528
Si  Si57      1.0  0.69810  0.37620  0.29080  1.0000 1.7238435134
Al  Al57      1.0  0.62620  0.44810  0.20920  1.0000 1.7627361528
Si  Si58      1.0  0.69810  0.87620  0.79080  1.0000 1.7253650358
Al  Al58      1.0  0.62620  0.94810  0.70920  1.0000 1.7627361528
Si  Si59      1.0  0.19810  0.37620  0.79080  1.0000 1.7253650358
Al  Al59      1.0  0.12620  0.44810  0.70920  1.0000 1.7627361528
Si  Si60      1.0  0.19810  0.87620  0.29080  1.0000 1.7253650358
Al  Al60      1.0  0.12620  0.94810  0.20920  1.0000 1.7627361528
Si  Si61      1.0  0.55190  0.37380  0.79080  1.0000 1.7253650358
Al  Al61      1.0  0.62380  0.30190  0.70920  1.0000 1.7627361528
Si  Si62      1.0  0.55190  0.87380  0.29080  1.0000 1.7253650358
Al  Al62      1.0  0.62380  0.80190  0.20920  1.0000 1.7627361528
Si  Si63      1.0  0.05190  0.37380  0.29080  1.0000 1.7253650358
Al  Al63      1.0  0.12380  0.30190  0.20920  1.0000 1.7627361528
Si  Si64      1.0  0.05190  0.87380  0.79080  1.0000 1.7253650358
Al  Al64      1.0  0.12380  0.80190  0.70920  1.0000 1.7627361528
Si  Si65      1.0  0.95920  0.05190  0.87620  1.0000 1.7238435134
Al  Al65      1.0  0.04080  0.12380  0.94810  1.0000 1.7627361528
Si  Si66      1.0  0.95920  0.55190  0.37620  1.0000 1.7238435134
Al  Al66      1.0  0.04080  0.62380  0.44810  1.0000 1.7627361528
Si  Si67      1.0  0.45920  0.05190  0.37620  1.0000 1.7253650358
Al  Al67      1.0  0.54080  0.12380  0.44810  1.0000 1.7627361528
Si  Si68      1.0  0.45920  0.55190  0.87620  1.0000 1.7253650358
Al  Al68      1.0  0.54080  0.62380  0.94810  1.0000 1.7627361528
Si  Si69      1.0  0.45920  0.19810  0.87380  1.0000 1.7253650358
Al  Al69      1.0  0.54080  0.12620  0.80190  1.0000 1.7627361528
Si  Si70      1.0  0.45920  0.69810  0.37380  1.0000 1.7253650358
Al  Al70      1.0  0.54080  0.62620  0.30190  1.0000 1.7627361528
Si  Si71      1.0  0.95920  0.19810  0.37380  1.0000 1.7238435134
Al  Al71      1.0  0.04080  0.12620  0.30190  1.0000 1.7627361528
Si  Si72      1.0  0.95920  0.69810  0.87380  1.0000 1.7238435134
Al  Al72      1.0  0.04080  0.62620  0.80190  1.0000 1.7627361528
Si  Si73      1.0  0.29080  0.69810  0.37620  1.0000 1.7253650358
Al  Al73      1.0  0.20920  0.62620  0.44810  1.0000 1.7627361528
Si  Si74      1.0  0.29080  0.19810  0.87620  1.0000 1.7253650358
Al  Al74      1.0  0.20920  0.12620  0.94810  1.0000 1.7627361528
Si  Si75      1.0  0.79080  0.69810  0.87620  1.0000 1.7238435134
Al  Al75      1.0  0.70920  0.62620  0.94810  1.0000 1.7627361528
Si  Si76      1.0  0.79080  0.19810  0.37620  1.0000 1.7238435134
Al  Al76      1.0  0.70920  0.12620  0.44810  1.0000 1.7627361528
Si  Si77      1.0  0.79080  0.55190  0.37380  1.0000 1.7238435134
Al  Al77      1.0  0.70920  0.62380  0.30190  1.0000 1.7627361528
Si  Si78      1.0  0.79080  0.05190  0.87380  1.0000 1.7238435134
Al  Al78      1.0  0.70920  0.12380  0.80190  1.0000 1.7627361528
Si  Si79      1.0  0.29080  0.55190  0.87380  1.0000 1.7253650358
Al  Al79      1.0  0.20920  0.62380  0.80190  1.0000 1.7627361528
Si  Si80      1.0  0.29080  0.05190  0.37380  1.0000 1.7253650358
Al  Al80      1.0  0.20920  0.12380  0.30190  1.0000 1.7627361528
Si  Si81      1.0  0.87620  0.95920  0.05190  1.0000 1.7238435134
Al  Al81      1.0  0.94810  0.04080  0.12380  1.0000 1.7627361528
Si  Si82      1.0  0.87620  0.45920  0.55190  1.0000 1.7238435134
Al  Al82      1.0  0.94810  0.54080  0.62380  1.0000 1.7627361528
Si  Si83      1.0  0.37620  0.95920  0.55190  1.0000 1.7253650358
Al  Al83      1.0  0.44810  0.04080  0.62380  1.0000 1.7627361528
Si  Si84      1.0  0.37620  0.45920  0.05190  1.0000 1.7253650358
Al  Al84      1.0  0.44810  0.54080  0.12380  1.0000 1.7627361528
Si  Si85      1.0  0.87380  0.45920  0.19810  1.0000 1.7238435134
Al  Al85      1.0  0.80190  0.54080  0.12620  1.0000 1.7627361528
Si  Si86      1.0  0.87380  0.95920  0.69810  1.0000 1.7238435134
Al  Al86      1.0  0.80190  0.04080  0.62620  1.0000 1.7627361528
Si  Si87      1.0  0.37380  0.45920  0.69810  1.0000 1.7253650358
Al  Al87      1.0  0.30190  0.54080  0.62620  1.0000 1.7627361528
Si  Si88      1.0  0.37380  0.95920  0.19810  1.0000 1.7253650358
Al  Al88      1.0  0.30190  0.04080  0.12620  1.0000 1.7627361528
Si  Si89      1.0  0.37620  0.29080  0.69810  1.0000 1.7253650358
Al  Al89      1.0  0.44810  0.20920  0.62620  1.0000 1.7627361528
Si  Si90      1.0  0.37620  0.79080  0.19810  1.0000 1.7253650358
Al  Al90      1.0  0.44810  0.70920  0.12620  1.0000 1.7627361528
Si  Si91      1.0  0.87620  0.29080  0.19810  1.0000 1.7238435134
Al  Al91      1.0  0.94810  0.20920  0.12620  1.0000 1.7627361528
Si  Si92      1.0  0.87620  0.79080  0.69810  1.0000 1.7238435134
Al  Al92      1.0  0.94810  0.70920  0.62620  1.0000 1.7627361528
Si  Si93      1.0  0.37380  0.79080  0.55190  1.0000 1.7253650358
Al  Al93      1.0  0.30190  0.70920  0.62380  1.0000 1.7627361528
Si  Si94      1.0  0.37380  0.29080  0.05190  1.0000 1.7253650358
Al  Al94      1.0  0.30190  0.20920  0.12380  1.0000 1.7627361528
Si  Si95      1.0  0.87380  0.79080  0.05190  1.0000 1.7238435134
Al  Al95      1.0  0.80190  0.70920  0.12380  1.0000 1.7627361528
Si  Si96      1.0  0.87380  0.29080  0.55190  1.0000 1.7238435134
Al  Al96      1.0  0.80190  0.20920  0.62380  1.0000 1.7627361528
O   O1        1.0  0.89479  0.10521  0.00000  1.0000 -0.991676035
O   O2        1.0  0.89479  0.60521  0.50000  1.0000 -0.991676035
O   O3        1.0  0.39479  0.10521  0.50000  1.0000 -0.991676035
O   O4        1.0  0.39479  0.60521  0.00000  1.0000 -0.991676035
O   O5        1.0  0.85521  0.14479  0.50000  1.0000 -0.991676035
O   O6        1.0  0.85521  0.64479  0.00000  1.0000 -0.991676035
O   O7        1.0  0.35521  0.14479  0.00000  1.0000 -0.991676035
O   O8        1.0  0.35521  0.64479  0.50000  1.0000 -0.991676035
O   O9        1.0  0.35521  0.60521  0.75000  1.0000 -0.991676035
O   O10       1.0  0.35521  0.10521  0.25000  1.0000 -0.991676035
O   O11       1.0  0.85521  0.60521  0.25000  1.0000 -0.991676035
O   O12       1.0  0.85521  0.10521  0.75000  1.0000 -0.991676035
O   O13       1.0  0.39479  0.64479  0.25000  1.0000 -0.991676035
O   O14       1.0  0.39479  0.14479  0.75000  1.0000 -0.991676035
O   O15       1.0  0.89479  0.64479  0.75000  1.0000 -0.991676035
O   O16       1.0  0.89479  0.14479  0.25000  1.0000 -0.991676035
O   O17       1.0  0.00000  0.89479  0.10521  1.0000 -0.991676035
O   O18       1.0  0.00000  0.39479  0.60521  1.0000 -0.991676035
O   O19       1.0  0.50000  0.89479  0.60521  1.0000 -0.991676035
O   O20       1.0  0.50000  0.39479  0.10521  1.0000 -0.991676035
O   O21       1.0  0.50000  0.85521  0.14479  1.0000 -0.991676035
O   O22       1.0  0.50000  0.35521  0.64479  1.0000 -0.991676035
O   O23       1.0  0.00000  0.85521  0.64479  1.0000 -0.991676035
O   O24       1.0  0.00000  0.35521  0.14479  1.0000 -0.991676035
O   O25       1.0  0.75000  0.35521  0.60521  1.0000 -0.991676035
O   O26       1.0  0.75000  0.85521  0.10521  1.0000 -0.991676035
O   O27       1.0  0.25000  0.35521  0.10521  1.0000 -0.991676035
O   O28       1.0  0.25000  0.85521  0.60521  1.0000 -0.991676035
O   O29       1.0  0.25000  0.39479  0.64479  1.0000 -0.991676035
O   O30       1.0  0.25000  0.89479  0.14479  1.0000 -0.991676035
O   O31       1.0  0.75000  0.39479  0.14479  1.0000 -0.991676035
O   O32       1.0  0.75000  0.89479  0.64479  1.0000 -0.991676035
O   O33       1.0  0.10521  0.00000  0.89479  1.0000 -0.991676035
O   O34       1.0  0.10521  0.50000  0.39479  1.0000 -0.991676035
O   O35       1.0  0.60521  0.00000  0.39479  1.0000 -0.991676035
O   O36       1.0  0.60521  0.50000  0.89479  1.0000 -0.991676035
O   O37       1.0  0.14479  0.50000  0.85521  1.0000 -0.991676035
O   O38       1.0  0.14479  0.00000  0.35521  1.0000 -0.991676035
O   O39       1.0  0.64479  0.50000  0.35521  1.0000 -0.991676035
O   O40       1.0  0.64479  0.00000  0.85521  1.0000 -0.991676035
O   O41       1.0  0.60521  0.75000  0.35521  1.0000 -0.991676035
O   O42       1.0  0.60521  0.25000  0.85521  1.0000 -0.991676035
O   O43       1.0  0.10521  0.75000  0.85521  1.0000 -0.991676035
O   O44       1.0  0.10521  0.25000  0.35521  1.0000 -0.991676035
O   O45       1.0  0.64479  0.25000  0.39479  1.0000 -0.991676035
O   O46       1.0  0.64479  0.75000  0.89479  1.0000 -0.991676035
O   O47       1.0  0.14479  0.25000  0.89479  1.0000 -0.991676035
O   O48       1.0  0.14479  0.75000  0.39479  1.0000 -0.991676035
O   O49       1.0  0.10521  0.89479  0.00000  1.0000 -0.991676035
O   O50       1.0  0.10521  0.39479  0.50000  1.0000 -0.991676035
O   O51       1.0  0.60521  0.89479  0.50000  1.0000 -0.991676035
O   O52       1.0  0.60521  0.39479  0.00000  1.0000 -0.991676035
O   O53       1.0  0.14479  0.85521  0.50000  1.0000 -0.991676035
O   O54       1.0  0.14479  0.35521  0.00000  1.0000 -0.991676035
O   O55       1.0  0.64479  0.85521  0.00000  1.0000 -0.991676035
O   O56       1.0  0.64479  0.35521  0.50000  1.0000 -0.991676035
O   O57       1.0  0.64479  0.39479  0.25000  1.0000 -0.991676035
O   O58       1.0  0.64479  0.89479  0.75000  1.0000 -0.991676035
O   O59       1.0  0.14479  0.39479  0.75000  1.0000 -0.991676035
O   O60       1.0  0.14479  0.89479  0.25000  1.0000 -0.991676035
O   O61       1.0  0.60521  0.35521  0.75000  1.0000 -0.991676035
O   O62       1.0  0.60521  0.85521  0.25000  1.0000 -0.991676035
O   O63       1.0  0.10521  0.35521  0.25000  1.0000 -0.991676035
O   O64       1.0  0.10521  0.85521  0.75000  1.0000 -0.991676035
O   O65       1.0  0.00000  0.10521  0.89479  1.0000 -0.991676035
O   O66       1.0  0.00000  0.60521  0.39479  1.0000 -0.991676035
O   O67       1.0  0.50000  0.10521  0.39479  1.0000 -0.991676035
O   O68       1.0  0.50000  0.60521  0.89479  1.0000 -0.991676035
O   O69       1.0  0.50000  0.14479  0.85521  1.0000 -0.991676035
O   O70       1.0  0.50000  0.64479  0.35521  1.0000 -0.991676035
O   O71       1.0  0.00000  0.14479  0.35521  1.0000 -0.991676035
O   O72       1.0  0.00000  0.64479  0.85521  1.0000 -0.991676035
O   O73       1.0  0.25000  0.64479  0.39479  1.0000 -0.991676035
O   O74       1.0  0.25000  0.14479  0.89479  1.0000 -0.991676035
O   O75       1.0  0.75000  0.64479  0.89479  1.0000 -0.991676035
O   O76       1.0  0.75000  0.14479  0.39479  1.0000 -0.991676035
O   O77       1.0  0.75000  0.60521  0.35521  1.0000 -0.991676035
O   O78       1.0  0.75000  0.10521  0.85521  1.0000 -0.991676035
O   O79       1.0  0.25000  0.60521  0.85521  1.0000 -0.991676035
O   O80       1.0  0.25000  0.10521  0.35521  1.0000 -0.991676035
O   O81       1.0  0.89479  0.00000  0.10521  1.0000 -0.991676035
O   O82       1.0  0.89479  0.50000  0.60521  1.0000 -0.991676035
O   O83       1.0  0.39479  0.00000  0.60521  1.0000 -0.991676035
O   O84       1.0  0.39479  0.50000  0.10521  1.0000 -0.991676035
O   O85       1.0  0.85521  0.50000  0.14479  1.0000 -0.991676035
O   O86       1.0  0.85521  0.00000  0.64479  1.0000 -0.991676035
O   O87       1.0  0.35521  0.50000  0.64479  1.0000 -0.991676035
O   O88       1.0  0.35521  0.00000  0.14479  1.0000 -0.991676035
O   O89       1.0  0.39479  0.25000  0.64479  1.0000 -0.991676035
O   O90       1.0  0.39479  0.75000  0.14479  1.0000 -0.991676035
O   O91       1.0  0.89479  0.25000  0.14479  1.0000 -0.991676035
O   O92       1.0  0.89479  0.75000  0.64479  1.0000 -0.991676035
O   O93       1.0  0.35521  0.75000  0.60521  1.0000 -0.991676035
O   O94       1.0  0.35521  0.25000  0.10521  1.0000 -0.991676035
O   O95       1.0  0.85521  0.75000  0.10521  1.0000 -0.991676035
O   O96       1.0  0.85521  0.25000  0.60521  1.0000 -0.991676035
O   O97       1.0  0.96760  0.07008  0.07008  1.0000 -0.8957238843
O   O98       1.0  0.96760  0.57008  0.57008  1.0000 -0.8941595072
O   O99       1.0  0.46760  0.07008  0.57008  1.0000 -0.8941595072
O   O100      1.0  0.46760  0.57008  0.07008  1.0000 -0.8941595072
O   O101      1.0  0.78240  0.17992  0.57008  1.0000 -0.8941595072
O   O102      1.0  0.78240  0.67992  0.07008  1.0000 -0.8941595072
O   O103      1.0  0.28240  0.57008  0.67992  1.0000 -0.8941595072
O   O104      1.0  0.28240  0.07008  0.17992  1.0000 -0.8941595072
O   O105      1.0  0.78240  0.07008  0.67992  1.0000 -0.8941595072
O   O106      1.0  0.46760  0.67992  0.17992  1.0000 -0.8941595072
O   O107      1.0  0.96760  0.67992  0.67992  1.0000 -0.8941595072
O   O108      1.0  0.07008  0.96760  0.07008  1.0000 -0.8941595072
O   O109      1.0  0.07008  0.46760  0.57008  1.0000 -0.8941595072
O   O110      1.0  0.57008  0.96760  0.57008  1.0000 -0.8941595072
O   O111      1.0  0.57008  0.46760  0.07008  1.0000 -0.8941595072
O   O112      1.0  0.57008  0.78240  0.17992  1.0000 -0.8941595072
O   O113      1.0  0.07008  0.78240  0.67992  1.0000 -0.8941595072
O   O114      1.0  0.67992  0.28240  0.57008  1.0000 -0.8941595072
O   O115      1.0  0.67992  0.78240  0.07008  1.0000 -0.8941595072
O   O116      1.0  0.17992  0.46760  0.67992  1.0000 -0.8941595072
O   O117      1.0  0.17992  0.96760  0.17992  1.0000 -0.8941595072
O   O118      1.0  0.67992  0.96760  0.67992  1.0000 -0.8941595072
O   O119      1.0  0.07008  0.07008  0.96760  1.0000 -0.8941595072
O   O120      1.0  0.07008  0.57008  0.46760  1.0000 -0.8941595072
O   O121      1.0  0.57008  0.07008  0.46760  1.0000 -0.8941595072
O   O122      1.0  0.57008  0.57008  0.96760  1.0000 -0.8941595072
O   O123      1.0  0.17992  0.57008  0.78240  1.0000 -0.8941595072
O   O124      1.0  0.17992  0.07008  0.28240  1.0000 -0.8941595072
O   O125      1.0  0.67992  0.07008  0.78240  1.0000 -0.8941595072
O   O126      1.0  0.57008  0.67992  0.28240  1.0000 -0.8941595072
O   O127      1.0  0.07008  0.67992  0.78240  1.0000 -0.8941595072
O   O128      1.0  0.67992  0.17992  0.46760  1.0000 -0.8941595072
O   O129      1.0  0.67992  0.67992  0.96760  1.0000 -0.8941595072
O   O130      1.0  0.82008  0.21760  0.42992  1.0000 -0.8941595072
O   O131      1.0  0.82008  0.71760  0.92992  1.0000 -0.8941595072
O   O132      1.0  0.92992  0.03240  0.92992  1.0000 -0.8941595072
O   O133      1.0  0.92992  0.53240  0.42992  1.0000 -0.8941595072
O   O134      1.0  0.42992  0.03240  0.42992  1.0000 -0.8941595072
O   O135      1.0  0.42992  0.53240  0.92992  1.0000 -0.8941595072
O   O136      1.0  0.32008  0.53240  0.82008  1.0000 -0.8941595072
O   O137      1.0  0.32008  0.03240  0.32008  1.0000 -0.8941595072
O   O138      1.0  0.82008  0.03240  0.82008  1.0000 -0.8941595072
O   O139      1.0  0.42992  0.71760  0.32008  1.0000 -0.8941595072
O   O140      1.0  0.92992  0.71760  0.82008  1.0000 -0.8941595072
O   O141      1.0  0.71760  0.32008  0.42992  1.0000 -0.8941595072
O   O142      1.0  0.71760  0.82008  0.92992  1.0000 -0.8941595072
O   O143      1.0  0.53240  0.82008  0.32008  1.0000 -0.8941595072
O   O144      1.0  0.03240  0.82008  0.82008  1.0000 -0.8941595072
O   O145      1.0  0.03240  0.92992  0.92992  1.0000 -0.8941595072
O   O146      1.0  0.03240  0.42992  0.42992  1.0000 -0.8941595072
O   O147      1.0  0.53240  0.92992  0.42992  1.0000 -0.8941595072
O   O148      1.0  0.53240  0.42992  0.92992  1.0000 -0.8941595072
O   O149      1.0  0.21760  0.42992  0.82008  1.0000 -0.8941595072
O   O150      1.0  0.21760  0.92992  0.32008  1.0000 -0.8941595072
O   O151      1.0  0.71760  0.92992  0.82008  1.0000 -0.8941595072
O   O152      1.0  0.82008  0.32008  0.53240  1.0000 -0.8941595072
O   O153      1.0  0.82008  0.82008  0.03240  1.0000 -0.8941595072
O   O154      1.0  0.32008  0.42992  0.71760  1.0000 -0.8941595072
O   O155      1.0  0.32008  0.92992  0.21760  1.0000 -0.8941595072
O   O156      1.0  0.82008  0.92992  0.71760  1.0000 -0.8941595072
O   O157      1.0  0.42992  0.82008  0.21760  1.0000 -0.8941595072
O   O158      1.0  0.92992  0.82008  0.71760  1.0000 -0.8941595072
O   O159      1.0  0.92992  0.92992  0.03240  1.0000 -0.8941595072
O   O160      1.0  0.92992  0.42992  0.53240  1.0000 -0.8941595072
O   O161      1.0  0.42992  0.92992  0.53240  1.0000 -0.8941595072
O   O162      1.0  0.42992  0.42992  0.03240  1.0000 -0.8941595072
O   O163      1.0  0.21760  0.82008  0.42992  1.0000 -0.8941595072
O   O164      1.0  0.21760  0.32008  0.92992  1.0000 -0.8941595072
O   O165      1.0  0.71760  0.42992  0.32008  1.0000 -0.8941595072
O   O166      1.0  0.53240  0.32008  0.82008  1.0000 -0.8941595072
O   O167      1.0  0.03240  0.32008  0.32008  1.0000 -0.8941595072
O   O168      1.0  0.42992  0.21760  0.82008  1.0000 -0.8941595072
O   O169      1.0  0.92992  0.21760  0.32008  1.0000 -0.8941595072
O   O170      1.0  0.32008  0.71760  0.42992  1.0000 -0.8941595072
O   O171      1.0  0.32008  0.21760  0.92992  1.0000 -0.8941595072
O   O172      1.0  0.82008  0.53240  0.32008  1.0000 -0.8941595072
O   O173      1.0  0.82008  0.42992  0.21760  1.0000 -0.8941595072
O   O174      1.0  0.42992  0.32008  0.71760  1.0000 -0.8941595072
O   O175      1.0  0.92992  0.32008  0.21760  1.0000 -0.8957238843
O   O176      1.0  0.32008  0.82008  0.53240  1.0000 -0.8941595072
O   O177      1.0  0.32008  0.32008  0.03240  1.0000 -0.8941595072
O   O178      1.0  0.17992  0.78240  0.57008  1.0000 -0.8941595072
O   O179      1.0  0.17992  0.28240  0.07008  1.0000 -0.8941595072
O   O180      1.0  0.67992  0.46760  0.17992  1.0000 -0.8941595072
O   O181      1.0  0.57008  0.28240  0.67992  1.0000 -0.8941595072
O   O182      1.0  0.07008  0.28240  0.17992  1.0000 -0.8941595072
O   O183      1.0  0.28240  0.67992  0.57008  1.0000 -0.8941595072
O   O184      1.0  0.28240  0.17992  0.07008  1.0000 -0.8941595072
O   O185      1.0  0.46760  0.17992  0.67992  1.0000 -0.8941595072
O   O186      1.0  0.96760  0.17992  0.17992  1.0000 -0.8957238843
O   O187      1.0  0.78240  0.57008  0.17992  1.0000 -0.8941595072
O   O188      1.0  0.17992  0.67992  0.46760  1.0000 -0.8941595072
O   O189      1.0  0.17992  0.17992  0.96760  1.0000 -0.8941595072
O   O190      1.0  0.67992  0.57008  0.28240  1.0000 -0.8941595072
O   O191      1.0  0.57008  0.17992  0.78240  1.0000 -0.8941595072
O   O192      1.0  0.07008  0.17992  0.28240  1.0000 -0.8941595072
O   O193      1.0  0.99805  0.14284  0.99805  1.0000 -0.991676035
O   O194      1.0  0.99805  0.64284  0.49805  1.0000 -0.991676035
O   O195      1.0  0.49805  0.14284  0.49805  1.0000 -0.991676035
O   O196      1.0  0.49805  0.64284  0.99805  1.0000 -0.991676035
O   O197      1.0  0.75195  0.10716  0.49805  1.0000 -0.991676035
O   O198      1.0  0.75195  0.60716  0.99805  1.0000 -0.991676035
O   O199      1.0  0.25195  0.64284  0.75195  1.0000 -0.991676035
O   O200      1.0  0.25195  0.14284  0.25195  1.0000 -0.991676035
O   O201      1.0  0.49805  0.60716  0.25195  1.0000 -0.991676035
O   O202      1.0  0.99805  0.60716  0.75195  1.0000 -0.991676035
O   O203      1.0  0.99805  0.99805  0.14284  1.0000 -0.991676035
O   O204      1.0  0.99805  0.49805  0.64284  1.0000 -0.991676035
O   O205      1.0  0.49805  0.99805  0.64284  1.0000 -0.991676035
O   O206      1.0  0.49805  0.49805  0.14284  1.0000 -0.991676035
O   O207      1.0  0.49805  0.75195  0.10716  1.0000 -0.991676035
O   O208      1.0  0.99805  0.75195  0.60716  1.0000 -0.991676035
O   O209      1.0  0.75195  0.25195  0.64284  1.0000 -0.991676035
O   O210      1.0  0.75195  0.75195  0.14284  1.0000 -0.991676035
O   O211      1.0  0.25195  0.49805  0.60716  1.0000 -0.991676035
O   O212      1.0  0.25195  0.99805  0.10716  1.0000 -0.991676035
O   O213      1.0  0.14284  0.99805  0.99805  1.0000 -0.991676035
O   O214      1.0  0.14284  0.49805  0.49805  1.0000 -0.991676035
O   O215      1.0  0.64284  0.99805  0.49805  1.0000 -0.991676035
O   O216      1.0  0.64284  0.49805  0.99805  1.0000 -0.991676035
O   O217      1.0  0.10716  0.49805  0.75195  1.0000 -0.991676035
O   O218      1.0  0.10716  0.99805  0.25195  1.0000 -0.991676035
O   O219      1.0  0.64284  0.75195  0.25195  1.0000 -0.991676035
O   O220      1.0  0.14284  0.75195  0.75195  1.0000 -0.991676035
O   O221      1.0  0.60716  0.25195  0.49805  1.0000 -0.991676035
O   O222      1.0  0.60716  0.75195  0.99805  1.0000 -0.991676035
O   O223      1.0  0.89284  0.24805  0.50195  1.0000 -0.991676035
O   O224      1.0  0.89284  0.74805  0.00195  1.0000 -0.991676035
O   O225      1.0  0.85716  0.00195  0.00195  1.0000 -0.991676035
O   O226      1.0  0.85716  0.50195  0.50195  1.0000 -0.991676035
O   O227      1.0  0.35716  0.00195  0.50195  1.0000 -0.991676035
O   O228      1.0  0.35716  0.50195  0.00195  1.0000 -0.991676035
O   O229      1.0  0.39284  0.50195  0.74805  1.0000 -0.991676035
O   O230      1.0  0.39284  0.00195  0.24805  1.0000 -0.991676035
O   O231      1.0  0.35716  0.74805  0.24805  1.0000 -0.991676035
O   O232      1.0  0.85716  0.74805  0.74805  1.0000 -0.991676035
O   O233      1.0  0.74805  0.24805  0.35716  1.0000 -0.991676035
O   O234      1.0  0.74805  0.74805  0.85716  1.0000 -0.991676035
O   O235      1.0  0.50195  0.74805  0.39284  1.0000 -0.991676035
O   O236      1.0  0.00195  0.74805  0.89284  1.0000 -0.991676035
O   O237      1.0  0.00195  0.00195  0.85716  1.0000 -0.991676035
O   O238      1.0  0.00195  0.50195  0.35716  1.0000 -0.991676035
O   O239      1.0  0.50195  0.00195  0.35716  1.0000 -0.991676035
O   O240      1.0  0.50195  0.50195  0.85716  1.0000 -0.991676035
O   O241      1.0  0.24805  0.50195  0.89284  1.0000 -0.991676035
O   O242      1.0  0.24805  0.00195  0.39284  1.0000 -0.991676035
O   O243      1.0  0.74805  0.39284  0.50195  1.0000 -0.991676035
O   O244      1.0  0.74805  0.89284  0.00195  1.0000 -0.991676035
O   O245      1.0  0.24805  0.35716  0.74805  1.0000 -0.991676035
O   O246      1.0  0.24805  0.85716  0.24805  1.0000 -0.991676035
O   O247      1.0  0.50195  0.89284  0.24805  1.0000 -0.991676035
O   O248      1.0  0.00195  0.89284  0.74805  1.0000 -0.991676035
O   O249      1.0  0.00195  0.85716  0.00195  1.0000 -0.991676035
O   O250      1.0  0.00195  0.35716  0.50195  1.0000 -0.991676035
O   O251      1.0  0.50195  0.85716  0.50195  1.0000 -0.991676035
O   O252      1.0  0.50195  0.35716  0.00195  1.0000 -0.991676035
O   O253      1.0  0.24805  0.89284  0.50195  1.0000 -0.991676035
O   O254      1.0  0.24805  0.39284  0.00195  1.0000 -0.991676035
O   O255      1.0  0.74805  0.35716  0.24805  1.0000 -0.991676035
O   O256      1.0  0.74805  0.85716  0.74805  1.0000 -0.991676035
O   O257      1.0  0.50195  0.39284  0.74805  1.0000 -0.991676035
O   O258      1.0  0.00195  0.39284  0.24805  1.0000 -0.991676035
O   O259      1.0  0.50195  0.24805  0.89284  1.0000 -0.991676035
O   O260      1.0  0.00195  0.24805  0.39284  1.0000 -0.991676035
O   O261      1.0  0.24805  0.74805  0.35716  1.0000 -0.991676035
O   O262      1.0  0.24805  0.24805  0.85716  1.0000 -0.991676035
O   O263      1.0  0.74805  0.50195  0.39284  1.0000 -0.991676035
O   O264      1.0  0.74805  0.00195  0.89284  1.0000 -0.991676035
O   O265      1.0  0.89284  0.50195  0.24805  1.0000 -0.991676035
O   O266      1.0  0.89284  0.00195  0.74805  1.0000 -0.991676035
O   O267      1.0  0.35716  0.24805  0.74805  1.0000 -0.991676035
O   O268      1.0  0.85716  0.24805  0.24805  1.0000 -0.991676035
O   O269      1.0  0.39284  0.74805  0.50195  1.0000 -0.991676035
O   O270      1.0  0.39284  0.24805  0.00195  1.0000 -0.991676035
O   O271      1.0  0.10716  0.75195  0.49805  1.0000 -0.991676035
O   O272      1.0  0.10716  0.25195  0.99805  1.0000 -0.991676035
O   O273      1.0  0.60716  0.49805  0.25195  1.0000 -0.991676035
O   O274      1.0  0.60716  0.99805  0.75195  1.0000 -0.991676035
O   O275      1.0  0.64284  0.25195  0.75195  1.0000 -0.991676035
O   O276      1.0  0.14284  0.25195  0.25195  1.0000 -0.991676035
O   O277      1.0  0.25195  0.75195  0.64284  1.0000 -0.991676035
O   O278      1.0  0.25195  0.25195  0.14284  1.0000 -0.991676035
O   O279      1.0  0.49805  0.25195  0.60716  1.0000 -0.991676035
O   O280      1.0  0.99805  0.25195  0.10716  1.0000 -0.991676035
O   O281      1.0  0.75195  0.49805  0.10716  1.0000 -0.991676035
O   O282      1.0  0.75195  0.99805  0.60716  1.0000 -0.991676035
O   O283      1.0  0.25195  0.60716  0.49805  1.0000 -0.991676035
O   O284      1.0  0.25195  0.10716  0.99805  1.0000 -0.991676035
O   O285      1.0  0.75195  0.64284  0.25195  1.0000 -0.991676035
O   O286      1.0  0.75195  0.14284  0.75195  1.0000 -0.991676035
O   O287      1.0  0.49805  0.10716  0.75195  1.0000 -0.991676035
O   O288      1.0  0.99805  0.10716  0.25195  1.0000 -0.991676035
O   O289      1.0  0.93065  0.18065  0.06935  1.0000 -0.9754910519
O   O290      1.0  0.93065  0.68065  0.56935  1.0000 -0.974865183
O   O291      1.0  0.43065  0.18065  0.56935  1.0000 -0.974865183
O   O292      1.0  0.81935  0.06935  0.56935  1.0000 -0.974865183
O   O293      1.0  0.31935  0.06935  0.06935  1.0000 -0.974865183
O   O294      1.0  0.31935  0.56935  0.56935  1.0000 -0.974865183
O   O295      1.0  0.31935  0.68065  0.68065  1.0000 -0.974865183
O   O296      1.0  0.31935  0.18065  0.18065  1.0000 -0.974865183
O   O297      1.0  0.81935  0.68065  0.18065  1.0000 -0.974865183
O   O298      1.0  0.81935  0.18065  0.68065  1.0000 -0.974865183
O   O299      1.0  0.43065  0.56935  0.18065  1.0000 -0.974865183
O   O300      1.0  0.43065  0.06935  0.68065  1.0000 -0.974865183
O   O301      1.0  0.06935  0.93065  0.18065  1.0000 -0.974865183
O   O302      1.0  0.06935  0.43065  0.68065  1.0000 -0.974865183
O   O303      1.0  0.56935  0.43065  0.18065  1.0000 -0.974865183
O   O304      1.0  0.56935  0.81935  0.06935  1.0000 -0.974865183
O   O305      1.0  0.56935  0.31935  0.56935  1.0000 -0.974865183
O   O306      1.0  0.68065  0.31935  0.68065  1.0000 -0.974865183
O   O307      1.0  0.68065  0.81935  0.18065  1.0000 -0.974865183
O   O308      1.0  0.18065  0.31935  0.18065  1.0000 -0.974865183
O   O309      1.0  0.18065  0.81935  0.68065  1.0000 -0.974865183
O   O310      1.0  0.18065  0.43065  0.56935  1.0000 -0.974865183
O   O311      1.0  0.68065  0.43065  0.06935  1.0000 -0.974865183
O   O312      1.0  0.18065  0.06935  0.93065  1.0000 -0.974865183
O   O313      1.0  0.18065  0.56935  0.43065  1.0000 -0.974865183
O   O314      1.0  0.68065  0.06935  0.43065  1.0000 -0.974865183
O   O315      1.0  0.06935  0.56935  0.81935  1.0000 -0.974865183
O   O316      1.0  0.06935  0.06935  0.31935  1.0000 -0.974865183
O   O317      1.0  0.56935  0.56935  0.31935  1.0000 -0.974865183
O   O318      1.0  0.68065  0.68065  0.31935  1.0000 -0.974865183
O   O319      1.0  0.68065  0.18065  0.81935  1.0000 -0.974865183
O   O320      1.0  0.18065  0.68065  0.81935  1.0000 -0.974865183
O   O321      1.0  0.18065  0.18065  0.31935  1.0000 -0.974865183
O   O322      1.0  0.56935  0.18065  0.43065  1.0000 -0.974865183
O   O323      1.0  0.56935  0.68065  0.93065  1.0000 -0.974865183
O   O324      1.0  0.93065  0.18065  0.43065  1.0000 -0.9754910519
O   O325      1.0  0.93065  0.68065  0.93065  1.0000 -0.974865183
O   O326      1.0  0.81935  0.06935  0.93065  1.0000 -0.974865183
O   O327      1.0  0.31935  0.06935  0.43065  1.0000 -0.974865183
O   O328      1.0  0.43065  0.56935  0.81935  1.0000 -0.974865183
O   O329      1.0  0.43065  0.06935  0.31935  1.0000 -0.974865183
O   O330      1.0  0.31935  0.68065  0.31935  1.0000 -0.974865183
O   O331      1.0  0.31935  0.18065  0.81935  1.0000 -0.974865183
O   O332      1.0  0.81935  0.68065  0.81935  1.0000 -0.974865183
O   O333      1.0  0.81935  0.18065  0.31935  1.0000 -0.9754910519
O   O334      1.0  0.68065  0.31935  0.31935  1.0000 -0.974865183
O   O335      1.0  0.68065  0.81935  0.81935  1.0000 -0.974865183
O   O336      1.0  0.18065  0.31935  0.81935  1.0000 -0.974865183
O   O337      1.0  0.18065  0.81935  0.31935  1.0000 -0.974865183
O   O338      1.0  0.56935  0.81935  0.43065  1.0000 -0.974865183
O   O339      1.0  0.56935  0.31935  0.93065  1.0000 -0.974865183
O   O340      1.0  0.06935  0.93065  0.81935  1.0000 -0.974865183
O   O341      1.0  0.06935  0.43065  0.31935  1.0000 -0.974865183
O   O342      1.0  0.18065  0.43065  0.93065  1.0000 -0.974865183
O   O343      1.0  0.68065  0.43065  0.43065  1.0000 -0.974865183
O   O344      1.0  0.68065  0.93065  0.93065  1.0000 -0.974865183
O   O345      1.0  0.81935  0.43065  0.56935  1.0000 -0.974865183
O   O346      1.0  0.31935  0.43065  0.06935  1.0000 -0.974865183
O   O347      1.0  0.31935  0.31935  0.68065  1.0000 -0.974865183
O   O348      1.0  0.31935  0.81935  0.18065  1.0000 -0.974865183
O   O349      1.0  0.81935  0.31935  0.18065  1.0000 -0.974865183
O   O350      1.0  0.81935  0.81935  0.68065  1.0000 -0.974865183
O   O351      1.0  0.43065  0.93065  0.18065  1.0000 -0.974865183
O   O352      1.0  0.43065  0.43065  0.68065  1.0000 -0.974865183
O   O353      1.0  0.93065  0.93065  0.68065  1.0000 -0.974865183
O   O354      1.0  0.93065  0.81935  0.06935  1.0000 -0.974865183
O   O355      1.0  0.93065  0.31935  0.56935  1.0000 -0.9754910519
O   O356      1.0  0.06935  0.81935  0.93065  1.0000 -0.974865183
O   O357      1.0  0.06935  0.31935  0.43065  1.0000 -0.974865183
O   O358      1.0  0.18065  0.93065  0.43065  1.0000 -0.974865183
O   O359      1.0  0.56935  0.43065  0.81935  1.0000 -0.974865183
O   O360      1.0  0.56935  0.93065  0.31935  1.0000 -0.974865183
O   O361      1.0  0.93065  0.06935  0.81935  1.0000 -0.974865183
O   O362      1.0  0.93065  0.56935  0.31935  1.0000 -0.974865183
O   O363      1.0  0.43065  0.18065  0.93065  1.0000 -0.974865183
O   O364      1.0  0.43065  0.68065  0.43065  1.0000 -0.974865183
O   O365      1.0  0.81935  0.56935  0.43065  1.0000 -0.974865183
O   O366      1.0  0.31935  0.56935  0.93065  1.0000 -0.974865183
O   O367      1.0  0.81935  0.93065  0.06935  1.0000 -0.974865183
O   O368      1.0  0.31935  0.93065  0.56935  1.0000 -0.974865183
O   O369      1.0  0.93065  0.43065  0.18065  1.0000 -0.974865183
O   O370      1.0  0.43065  0.81935  0.56935  1.0000 -0.974865183
O   O371      1.0  0.43065  0.31935  0.06935  1.0000 -0.974865183
O   O372      1.0  0.06935  0.81935  0.56935  1.0000 -0.974865183
O   O373      1.0  0.06935  0.31935  0.06935  1.0000 -0.974865183
O   O374      1.0  0.18065  0.93065  0.06935  1.0000 -0.974865183
O   O375      1.0  0.68065  0.93065  0.56935  1.0000 -0.974865183
O   O376      1.0  0.56935  0.93065  0.68065  1.0000 -0.974865183
O   O377      1.0  0.43065  0.68065  0.06935  1.0000 -0.974865183
O   O378      1.0  0.93065  0.06935  0.18065  1.0000 -0.974865183
O   O379      1.0  0.93065  0.56935  0.68065  1.0000 -0.974865183
O   O380      1.0  0.81935  0.56935  0.06935  1.0000 -0.974865183
O   O381      1.0  0.68065  0.56935  0.93065  1.0000 -0.974865183
O   O382      1.0  0.56935  0.06935  0.81935  1.0000 -0.974865183
O   O383      1.0  0.06935  0.18065  0.93065  1.0000 -0.974865183
O   O384      1.0  0.06935  0.68065  0.43065  1.0000 -0.974865183
Na  Na1       1.0  0.33750  0.83750  0.33750  1.0000 0.3815286631
Na  Na2       1.0  0.83750  0.83750  0.83750  1.0000 0.3815286631
Na  Na3       1.0  0.41250  0.41250  0.83750  1.0000 0.3815286631
Na  Na4       1.0  0.41250  0.91250  0.33750  1.0000 0.3815286631
Na  Na5       1.0  0.91250  0.33750  0.41250  1.0000 0.3815286631
Na  Na6       1.0  0.83750  0.91250  0.91250  1.0000 0.3815286631
Na  Na7       1.0  0.33750  0.91250  0.41250  1.0000 0.3815286631
Na  Na8       1.0  0.33750  0.41250  0.91250  1.0000 0.3815286631
Na  Na9       1.0  0.33750  0.33750  0.83750  1.0000 0.3815286631
Na  Na10      1.0  0.83750  0.41250  0.41250  1.0000 0.3850638519
Na  Na11      1.0  0.91250  0.83750  0.91250  1.0000 0.3815286631
Na  Na12      1.0  0.41250  0.33750  0.91250  1.0000 0.3815286631
Na  Na13      1.0  0.83750  0.33750  0.33750  1.0000 0.3850638519
Na  Na14      1.0  0.41250  0.83750  0.41250  1.0000 0.3815286631
Na  Na15      1.0  0.91250  0.91250  0.83750  1.0000 0.3815286631
Na  Na16      1.0  0.91250  0.41250  0.33750  1.0000 0.3815286631
Na  Na17      1.0  0.58750  0.58750  0.16250  1.0000 0.3815286631
Na  Na18      1.0  0.16250  0.66250  0.66250  1.0000 0.3815286631
Na  Na19      1.0  0.16250  0.16250  0.16250  1.0000 0.3815286631
Na  Na20      1.0  0.08750  0.16250  0.08750  1.0000 0.3815286631
Na  Na21      1.0  0.66250  0.08750  0.58750  1.0000 0.3815286631
Na  Na22      1.0  0.16250  0.08750  0.08750  1.0000 0.3815286631
Na  Na23      1.0  0.16250  0.58750  0.58750  1.0000 0.3815286631
Na  Na24      1.0  0.08750  0.58750  0.66250  1.0000 0.3815286631
Na  Na25      1.0  0.08750  0.08750  0.16250  1.0000 0.3815286631
Na  Na26      1.0  0.66250  0.66250  0.16250  1.0000 0.3850638519
Na  Na27      1.0  0.58750  0.16250  0.58750  1.0000 0.3815286631
Na  Na28      1.0  0.58750  0.66250  0.08750  1.0000 0.3815286631
Na  Na29      1.0  0.66250  0.16250  0.66250  1.0000 0.3815286631
Na  Na30      1.0  0.08750  0.66250  0.58750  1.0000 0.3815286631
Na  Na31      1.0  0.58750  0.08750  0.66250  1.0000 0.3815286631
Na  Na32      1.0  0.66250  0.58750  0.08750  1.0000 0.3850638519
Ni  Ni1       1.0  0.01920  0.23080  0.01920  1.0000 0.7126976649
Ni  Ni2       1.0  0.73080  0.01920  0.51920  1.0000 0.7126976649
Ni  Ni3       1.0  0.23080  0.01920  0.01920  1.0000 0.7126976649
Ni  Ni4       1.0  0.23080  0.73080  0.73080  1.0000 0.7126976649
Ni  Ni5       1.0  0.23080  0.23080  0.23080  1.0000 0.7126976649
Ni  Ni6       1.0  0.51920  0.51920  0.23080  1.0000 0.7126976649
Ni  Ni7       1.0  0.01920  0.01920  0.23080  1.0000 0.7126976649
Ni  Ni8       1.0  0.51920  0.73080  0.01920  1.0000 0.7126976649
Ni  Ni9       1.0  0.73080  0.23080  0.73080  1.0000 0.7126976649
Ni  Ni10      1.0  0.23080  0.51920  0.51920  1.0000 0.7126976649
Ni  Ni11      1.0  0.01920  0.51920  0.73080  1.0000 0.7126976649
Ni  Ni12      1.0  0.73080  0.73080  0.23080  1.0000 0.7126976649
Ni  Ni13      1.0  0.51920  0.23080  0.51920  1.0000 0.7126976649
Ni  Ni14      1.0  0.98080  0.26920  0.48080  1.0000 0.7126976649
Ni  Ni15      1.0  0.76920  0.98080  0.98080  1.0000 0.7126976649
Ni  Ni16      1.0  0.48080  0.48080  0.76920  1.0000 0.7126976649
Ni  Ni17      1.0  0.26920  0.76920  0.26920  1.0000 0.7126976649
Ni  Ni18      1.0  0.76920  0.26920  0.26920  1.0000 0.7126976649
Ni  Ni19      1.0  0.76920  0.76920  0.76920  1.0000 0.7126976649
Ni  Ni20      1.0  0.48080  0.76920  0.48080  1.0000 0.7126976649
Ni  Ni21      1.0  0.98080  0.98080  0.76920  1.0000 0.7126976649
Ni  Ni22      1.0  0.26920  0.48080  0.98080  1.0000 0.7126976649
Ni  Ni23      1.0  0.76920  0.48080  0.48080  1.0000 0.7126976649
Ni  Ni24      1.0  0.26920  0.26920  0.76920  1.0000 0.7126976649
Ni  Ni25      1.0  0.48080  0.98080  0.26920  1.0000 0.7126976649
Ni  Ni26      1.0  0.98080  0.76920  0.98080  1.0000 0.7126976649
Ni  Ni27      1.0  0.26920  0.98080  0.48080  1.0000 0.7126976649
Ni  Ni28      1.0  0.48080  0.26920  0.98080  1.0000 0.7126976649
Ni  Ni29      1.0  0.98080  0.48080  0.26920  1.0000 0.7126976649
Ni  Ni30      1.0  0.01920  0.73080  0.51920  1.0000 0.7126976649
Ni  Ni31      1.0  0.73080  0.51920  0.01920  1.0000 0.7126976649
Ni  Ni32      1.0  0.51920  0.01920  0.73080  1.0000 0.7126976649
  Al  Al97      1.0  0.94810  0.12380  0.04080  1.0000
  Si  Si97      1.0  0.87620  0.05190  0.95920  1.0000
  Al  Al98      1.0  0.94810  0.62380  0.54080  1.0000
  Si  Si98      1.0  0.87620  0.55190  0.45920  1.0000
  Al  Al99      1.0  0.44810  0.12380  0.54080  1.0000
  Si  Si99      1.0  0.37620  0.05190  0.45920  1.0000
  Al  Al100     1.0  0.44810  0.62380  0.04080  1.0000
  Si  Si100     1.0  0.37620  0.55190  0.95920  1.0000
  Al  Al101     1.0  0.80190  0.12620  0.54080  1.0000
  Si  Si101     1.0  0.87380  0.19810  0.45920  1.0000
  Al  Al102     1.0  0.80190  0.62620  0.04080  1.0000
  Si  Si102     1.0  0.87380  0.69810  0.95920  1.0000
  Al  Al103     1.0  0.30190  0.12620  0.04080  1.0000
  Si  Si103     1.0  0.37380  0.19810  0.95920  1.0000
  Al  Al104     1.0  0.30190  0.62620  0.54080  1.0000
  Si  Si104     1.0  0.37380  0.69810  0.45920  1.0000
  Al  Al105     1.0  0.30190  0.62380  0.70920  1.0000
  Si  Si105     1.0  0.37380  0.55190  0.79080  1.0000
  Al  Al106     1.0  0.30190  0.12380  0.20920  1.0000
  Si  Si106     1.0  0.37380  0.05190  0.29080  1.0000
  Al  Al107     1.0  0.80190  0.62380  0.20920  1.0000
  Si  Si107     1.0  0.87380  0.55190  0.29080  1.0000
  Al  Al108     1.0  0.80190  0.12380  0.70920  1.0000
  Si  Si108     1.0  0.87380  0.05190  0.79080  1.0000
  Al  Al109     1.0  0.44810  0.62620  0.20920  1.0000
  Si  Si109     1.0  0.37620  0.69810  0.29080  1.0000
  Al  Al110     1.0  0.44810  0.12620  0.70920  1.0000
  Si  Si110     1.0  0.37620  0.19810  0.79080  1.0000
  Al  Al111     1.0  0.94810  0.62620  0.70920  1.0000
  Si  Si111     1.0  0.87620  0.69810  0.79080  1.0000
  Al  Al112     1.0  0.94810  0.12620  0.20920  1.0000
  Si  Si112     1.0  0.87620  0.19810  0.29080  1.0000
  Al  Al113     1.0  0.04080  0.94810  0.12380  1.0000
  Si  Si113     1.0  0.95920  0.87620  0.05190  1.0000
  Al  Al114     1.0  0.04080  0.44810  0.62380  1.0000
  Si  Si114     1.0  0.95920  0.37620  0.55190  1.0000
  Al  Al115     1.0  0.54080  0.94810  0.62380  1.0000
  Si  Si115     1.0  0.45920  0.87620  0.55190  1.0000
  Al  Al116     1.0  0.54080  0.44810  0.12380  1.0000
  Si  Si116     1.0  0.45920  0.37620  0.05190  1.0000
  Al  Al117     1.0  0.54080  0.80190  0.12620  1.0000
  Si  Si117     1.0  0.45920  0.87380  0.19810  1.0000
  Al  Al118     1.0  0.54080  0.30190  0.62620  1.0000
  Si  Si118     1.0  0.45920  0.37380  0.69810  1.0000
  Al  Al119     1.0  0.04080  0.80190  0.62620  1.0000
  Si  Si119     1.0  0.95920  0.87380  0.69810  1.0000
  Al  Al120     1.0  0.04080  0.30190  0.12620  1.0000
  Si  Si120     1.0  0.95920  0.37380  0.19810  1.0000
  Al  Al121     1.0  0.70920  0.30190  0.62380  1.0000
  Si  Si121     1.0  0.79080  0.37380  0.55190  1.0000
  Al  Al122     1.0  0.70920  0.80190  0.12380  1.0000
  Si  Si122     1.0  0.79080  0.87380  0.05190  1.0000
  Al  Al123     1.0  0.20920  0.30190  0.12380  1.0000
  Si  Si123     1.0  0.29080  0.37380  0.05190  1.0000
  Al  Al124     1.0  0.20920  0.80190  0.62380  1.0000
  Si  Si124     1.0  0.29080  0.87380  0.55190  1.0000
  Al  Al125     1.0  0.20920  0.44810  0.62620  1.0000
  Si  Si125     1.0  0.29080  0.37620  0.69810  1.0000
  Al  Al126     1.0  0.20920  0.94810  0.12620  1.0000
  Si  Si126     1.0  0.29080  0.87620  0.19810  1.0000
  Al  Al127     1.0  0.70920  0.44810  0.12620  1.0000
  Si  Si127     1.0  0.79080  0.37620  0.19810  1.0000
  Al  Al128     1.0  0.70920  0.94810  0.62620  1.0000
  Si  Si128     1.0  0.79080  0.87620  0.69810  1.0000
  Al  Al129     1.0  0.12380  0.04080  0.94810  1.0000
  Si  Si129     1.0  0.05190  0.95920  0.87620  1.0000
  Al  Al130     1.0  0.12380  0.54080  0.44810  1.0000
  Si  Si130     1.0  0.05190  0.45920  0.37620  1.0000
  Al  Al131     1.0  0.62380  0.04080  0.44810  1.0000
  Si  Si131     1.0  0.55190  0.95920  0.37620  1.0000
  Al  Al132     1.0  0.62380  0.54080  0.94810  1.0000
  Si  Si132     1.0  0.55190  0.45920  0.87620  1.0000
  Al  Al133     1.0  0.12620  0.54080  0.80190  1.0000
  Si  Si133     1.0  0.19810  0.45920  0.87380  1.0000
  Al  Al134     1.0  0.12620  0.04080  0.30190  1.0000
  Si  Si134     1.0  0.19810  0.95920  0.37380  1.0000
  Al  Al135     1.0  0.62620  0.54080  0.30190  1.0000
  Si  Si135     1.0  0.69810  0.45920  0.37380  1.0000
  Al  Al136     1.0  0.62620  0.04080  0.80190  1.0000
  Si  Si136     1.0  0.69810  0.95920  0.87380  1.0000
  Al  Al137     1.0  0.62380  0.70920  0.30190  1.0000
  Si  Si137     1.0  0.55190  0.79080  0.37380  1.0000
  Al  Al138     1.0  0.62380  0.20920  0.80190  1.0000
  Si  Si138     1.0  0.55190  0.29080  0.87380  1.0000
  Al  Al139     1.0  0.12380  0.70920  0.80190  1.0000
  Si  Si139     1.0  0.05190  0.79080  0.87380  1.0000
  Al  Al140     1.0  0.12380  0.20920  0.30190  1.0000
  Si  Si140     1.0  0.05190  0.29080  0.37380  1.0000
  Al  Al141     1.0  0.62620  0.20920  0.44810  1.0000
  Si  Si141     1.0  0.69810  0.29080  0.37620  1.0000
  Al  Al142     1.0  0.62620  0.70920  0.94810  1.0000
  Si  Si142     1.0  0.69810  0.79080  0.87620  1.0000
  Al  Al143     1.0  0.12620  0.20920  0.94810  1.0000
  Si  Si143     1.0  0.19810  0.29080  0.87620  1.0000
  Al  Al144     1.0  0.12620  0.70920  0.44810  1.0000
  Si  Si144     1.0  0.19810  0.79080  0.37620  1.0000
  Al  Al145     1.0  0.05190  0.87620  0.95920  1.0000
  Si  Si145     1.0  0.12380  0.94810  0.04080  1.0000
  Al  Al146     1.0  0.05190  0.37620  0.45920  1.0000
  Si  Si146     1.0  0.12380  0.44810  0.54080  1.0000
  Al  Al147     1.0  0.55190  0.87620  0.45920  1.0000
  Si  Si147     1.0  0.62380  0.94810  0.54080  1.0000
  Al  Al148     1.0  0.55190  0.37620  0.95920  1.0000
  Si  Si148     1.0  0.62380  0.44810  0.04080  1.0000
  Al  Al149     1.0  0.19810  0.87380  0.45920  1.0000
  Si  Si149     1.0  0.12620  0.80190  0.54080  1.0000
  Al  Al150     1.0  0.19810  0.37380  0.95920  1.0000
  Si  Si150     1.0  0.12620  0.30190  0.04080  1.0000
  Al  Al151     1.0  0.69810  0.87380  0.95920  1.0000
  Si  Si151     1.0  0.62620  0.80190  0.04080  1.0000
  Al  Al152     1.0  0.69810  0.37380  0.45920  1.0000
  Si  Si152     1.0  0.62620  0.30190  0.54080  1.0000
  Al  Al153     1.0  0.69810  0.37620  0.29080  1.0000
  Si  Si153     1.0  0.62620  0.44810  0.20920  1.0000
  Al  Al154     1.0  0.69810  0.87620  0.79080  1.0000
  Si  Si154     1.0  0.62620  0.94810  0.70920  1.0000
  Al  Al155     1.0  0.19810  0.37620  0.79080  1.0000
  Si  Si155     1.0  0.12620  0.44810  0.70920  1.0000
  Al  Al156     1.0  0.19810  0.87620  0.29080  1.0000
  Si  Si156     1.0  0.12620  0.94810  0.20920  1.0000
  Al  Al157     1.0  0.55190  0.37380  0.79080  1.0000
  Si  Si157     1.0  0.62380  0.30190  0.70920  1.0000
  Al  Al158     1.0  0.55190  0.87380  0.29080  1.0000
  Si  Si158     1.0  0.62380  0.80190  0.20920  1.0000
  Al  Al159     1.0  0.05190  0.37380  0.29080  1.0000
  Si  Si159     1.0  0.12380  0.30190  0.20920  1.0000
  Al  Al160     1.0  0.05190  0.87380  0.79080  1.0000
  Si  Si160     1.0  0.12380  0.80190  0.70920  1.0000
  Al  Al161     1.0  0.95920  0.05190  0.87620  1.0000
  Si  Si161     1.0  0.04080  0.12380  0.94810  1.0000
  Al  Al162     1.0  0.95920  0.55190  0.37620  1.0000
  Si  Si162     1.0  0.04080  0.62380  0.44810  1.0000
  Al  Al163     1.0  0.45920  0.05190  0.37620  1.0000
  Si  Si163     1.0  0.54080  0.12380  0.44810  1.0000
  Al  Al164     1.0  0.45920  0.55190  0.87620  1.0000
  Si  Si164     1.0  0.54080  0.62380  0.94810  1.0000
  Al  Al165     1.0  0.45920  0.19810  0.87380  1.0000
  Si  Si165     1.0  0.54080  0.12620  0.80190  1.0000
  Al  Al166     1.0  0.45920  0.69810  0.37380  1.0000
  Si  Si166     1.0  0.54080  0.62620  0.30190  1.0000
  Al  Al167     1.0  0.95920  0.19810  0.37380  1.0000
  Si  Si167     1.0  0.04080  0.12620  0.30190  1.0000
  Al  Al168     1.0  0.95920  0.69810  0.87380  1.0000
  Si  Si168     1.0  0.04080  0.62620  0.80190  1.0000
  Al  Al169     1.0  0.29080  0.69810  0.37620  1.0000
  Si  Si169     1.0  0.20920  0.62620  0.44810  1.0000
  Al  Al170     1.0  0.29080  0.19810  0.87620  1.0000
  Si  Si170     1.0  0.20920  0.12620  0.94810  1.0000
  Al  Al171     1.0  0.79080  0.69810  0.87620  1.0000
  Si  Si171     1.0  0.70920  0.62620  0.94810  1.0000
  Al  Al172     1.0  0.79080  0.19810  0.37620  1.0000
  Si  Si172     1.0  0.70920  0.12620  0.44810  1.0000
  Al  Al173     1.0  0.79080  0.55190  0.37380  1.0000
  Si  Si173     1.0  0.70920  0.62380  0.30190  1.0000
  Al  Al174     1.0  0.79080  0.05190  0.87380  1.0000
  Si  Si174     1.0  0.70920  0.12380  0.80190  1.0000
  Al  Al175     1.0  0.29080  0.55190  0.87380  1.0000
  Si  Si175     1.0  0.20920  0.62380  0.80190  1.0000
  Al  Al176     1.0  0.29080  0.05190  0.37380  1.0000
  Si  Si176     1.0  0.20920  0.12380  0.30190  1.0000
  Al  Al177     1.0  0.87620  0.95920  0.05190  1.0000
  Si  Si177     1.0  0.94810  0.04080  0.12380  1.0000
  Al  Al178     1.0  0.87620  0.45920  0.55190  1.0000
  Si  Si178     1.0  0.94810  0.54080  0.62380  1.0000
  Al  Al179     1.0  0.37620  0.95920  0.55190  1.0000
  Si  Si179     1.0  0.44810  0.04080  0.62380  1.0000
  Al  Al180     1.0  0.37620  0.45920  0.05190  1.0000
  Si  Si180     1.0  0.44810  0.54080  0.12380  1.0000
  Al  Al181     1.0  0.87380  0.45920  0.19810  1.0000
  Si  Si181     1.0  0.80190  0.54080  0.12620  1.0000
  Al  Al182     1.0  0.87380  0.95920  0.69810  1.0000
  Si  Si182     1.0  0.80190  0.04080  0.62620  1.0000
  Al  Al183     1.0  0.37380  0.45920  0.69810  1.0000
  Si  Si183     1.0  0.30190  0.54080  0.62620  1.0000
  Al  Al184     1.0  0.37380  0.95920  0.19810  1.0000
  Si  Si184     1.0  0.30190  0.04080  0.12620  1.0000
  Al  Al185     1.0  0.37620  0.29080  0.69810  1.0000
  Si  Si185     1.0  0.44810  0.20920  0.62620  1.0000
  Al  Al186     1.0  0.37620  0.79080  0.19810  1.0000
  Si  Si186     1.0  0.44810  0.70920  0.12620  1.0000
  Al  Al187     1.0  0.87620  0.29080  0.19810  1.0000
  Si  Si187     1.0  0.94810  0.20920  0.12620  1.0000
  Al  Al188     1.0  0.87620  0.79080  0.69810  1.0000
  Si  Si188     1.0  0.94810  0.70920  0.62620  1.0000
  Al  Al189     1.0  0.37380  0.79080  0.55190  1.0000
  Si  Si189     1.0  0.30190  0.70920  0.62380  1.0000
  Al  Al190     1.0  0.37380  0.29080  0.05190  1.0000
  Si  Si190     1.0  0.30190  0.20920  0.12380  1.0000
  Al  Al191     1.0  0.87380  0.79080  0.05190  1.0000
  Si  Si191     1.0  0.80190  0.70920  0.12380  1.0000
  Al  Al192     1.0  0.87380  0.29080  0.55190  1.0000
  Si  Si192     1.0  0.80190  0.20920  0.62380  1.0000
