# DDEC6 charges by PACMAN v1.1 (https://github.com/mtap-research/PACMAN-charge/)
data_JUQDUX_FSR_pacman
_chemical_formula_sum              "Al96 Si96 O384 Na32 Ni32"
_cell_length_a       24.8071
_cell_length_b       24.8071
_cell_length_c       24.8071
_cell_angle_alpha    90
_cell_angle_beta     90
_cell_angle_gamma    90

_symmetry_space_group_name_H-M    "P 1"
_symmetry_Int_Tables_number       1

loop_
  _symmetry_equiv_pos_as_xyz
  'x, y, z'

loop_
  _atom_site_type_symbol
  _atom_site_label
  _atom_site_symmetry_multiplicity
  _atom_site_fract_x
  _atom_site_fract_y
  _atom_site_fract_z
  _atom_site_occupancy
 _atom_site_charge
Al  Al1       1.0  0.94470  0.12410  0.03160  1.0000 1.7675773691
Si  Si1       1.0  0.87590  0.05530  0.96840  1.0000 1.7091651959
Al  Al2       1.0  0.94470  0.62410  0.53160  1.0000 1.7675773691
Si  Si2       1.0  0.87590  0.55530  0.46840  1.0000 1.7091651959
Al  Al3       1.0  0.44470  0.12410  0.53160  1.0000 1.7675773691
Si  Si3       1.0  0.37590  0.05530  0.46840  1.0000 1.7091651959
Al  Al4       1.0  0.44470  0.62410  0.03160  1.0000 1.7675773691
Si  Si4       1.0  0.37590  0.55530  0.96840  1.0000 1.7091651959
Al  Al5       1.0  0.80530  0.12590  0.53160  1.0000 1.7675773691
Si  Si5       1.0  0.87410  0.19470  0.46840  1.0000 1.7091651959
Al  Al6       1.0  0.80530  0.62590  0.03160  1.0000 1.7675773691
Si  Si6       1.0  0.87410  0.69470  0.96840  1.0000 1.7091651959
Al  Al7       1.0  0.30530  0.12590  0.03160  1.0000 1.7675773691
Si  Si7       1.0  0.37410  0.19470  0.96840  1.0000 1.7091651959
Al  Al8       1.0  0.30530  0.62590  0.53160  1.0000 1.7675773691
Si  Si8       1.0  0.37410  0.69470  0.46840  1.0000 1.7091651959
Al  Al9       1.0  0.30530  0.62410  0.71840  1.0000 1.7675773691
Si  Si9       1.0  0.37410  0.55530  0.78160  1.0000 1.7091651959
Al  Al10      1.0  0.30530  0.12410  0.21840  1.0000 1.7675773691
Si  Si10      1.0  0.37410  0.05530  0.28160  1.0000 1.7091651959
Al  Al11      1.0  0.80530  0.62410  0.21840  1.0000 1.7675773691
Si  Si11      1.0  0.87410  0.55530  0.28160  1.0000 1.7091651959
Al  Al12      1.0  0.80530  0.12410  0.71840  1.0000 1.7675773691
Si  Si12      1.0  0.87410  0.05530  0.78160  1.0000 1.7091651959
Al  Al13      1.0  0.44470  0.62590  0.21840  1.0000 1.7675773691
Si  Si13      1.0  0.37590  0.69470  0.28160  1.0000 1.7091651959
Al  Al14      1.0  0.44470  0.12590  0.71840  1.0000 1.7675773691
Si  Si14      1.0  0.37590  0.19470  0.78160  1.0000 1.7091651959
Al  Al15      1.0  0.94470  0.62590  0.71840  1.0000 1.7675773691
Si  Si15      1.0  0.87590  0.69470  0.78160  1.0000 1.7091651959
Al  Al16      1.0  0.94470  0.12590  0.21840  1.0000 1.7675773691
Si  Si16      1.0  0.87590  0.19470  0.28160  1.0000 1.7091651959
Al  Al17      1.0  0.03160  0.94470  0.12410  1.0000 1.7675773691
Si  Si17      1.0  0.96840  0.87590  0.05530  1.0000 1.7091651959
Al  Al18      1.0  0.03160  0.44470  0.62410  1.0000 1.7675773691
Si  Si18      1.0  0.96840  0.37590  0.55530  1.0000 1.7091651959
Al  Al19      1.0  0.53160  0.94470  0.62410  1.0000 1.7675773691
Si  Si19      1.0  0.46840  0.87590  0.55530  1.0000 1.7091651959
Al  Al20      1.0  0.53160  0.44470  0.12410  1.0000 1.7675773691
Si  Si20      1.0  0.46840  0.37590  0.05530  1.0000 1.7091651959
Al  Al21      1.0  0.53160  0.80530  0.12590  1.0000 1.7675773691
Si  Si21      1.0  0.46840  0.87410  0.19470  1.0000 1.7091651959
Al  Al22      1.0  0.53160  0.30530  0.62590  1.0000 1.7675773691
Si  Si22      1.0  0.46840  0.37410  0.69470  1.0000 1.7091651959
Al  Al23      1.0  0.03160  0.80530  0.62590  1.0000 1.7675773691
Si  Si23      1.0  0.96840  0.87410  0.69470  1.0000 1.7091651959
Al  Al24      1.0  0.03160  0.30530  0.12590  1.0000 1.7675773691
Si  Si24      1.0  0.96840  0.37410  0.19470  1.0000 1.7091651959
Al  Al25      1.0  0.71840  0.30530  0.62410  1.0000 1.7675773691
Si  Si25      1.0  0.78160  0.37410  0.55530  1.0000 1.7091651959
Al  Al26      1.0  0.71840  0.80530  0.12410  1.0000 1.7675773691
Si  Si26      1.0  0.78160  0.87410  0.05530  1.0000 1.7091651959
Al  Al27      1.0  0.21840  0.30530  0.12410  1.0000 1.7675773691
Si  Si27      1.0  0.28160  0.37410  0.05530  1.0000 1.7091651959
Al  Al28      1.0  0.21840  0.80530  0.62410  1.0000 1.7675773691
Si  Si28      1.0  0.28160  0.87410  0.55530  1.0000 1.7091651959
Al  Al29      1.0  0.21840  0.44470  0.62590  1.0000 1.7675773691
Si  Si29      1.0  0.28160  0.37590  0.69470  1.0000 1.7091651959
Al  Al30      1.0  0.21840  0.94470  0.12590  1.0000 1.7675773691
Si  Si30      1.0  0.28160  0.87590  0.19470  1.0000 1.7091651959
Al  Al31      1.0  0.71840  0.44470  0.12590  1.0000 1.7675773691
Si  Si31      1.0  0.78160  0.37590  0.19470  1.0000 1.7091651959
Al  Al32      1.0  0.71840  0.94470  0.62590  1.0000 1.7675773691
Si  Si32      1.0  0.78160  0.87590  0.69470  1.0000 1.7091651959
Al  Al33      1.0  0.12410  0.03160  0.94470  1.0000 1.7675773691
Si  Si33      1.0  0.05530  0.96840  0.87590  1.0000 1.7091651959
Al  Al34      1.0  0.12410  0.53160  0.44470  1.0000 1.7675773691
Si  Si34      1.0  0.05530  0.46840  0.37590  1.0000 1.7091651959
Al  Al35      1.0  0.62410  0.03160  0.44470  1.0000 1.7675773691
Si  Si35      1.0  0.55530  0.96840  0.37590  1.0000 1.7091651959
Al  Al36      1.0  0.62410  0.53160  0.94470  1.0000 1.7675773691
Si  Si36      1.0  0.55530  0.46840  0.87590  1.0000 1.7091651959
Al  Al37      1.0  0.12590  0.53160  0.80530  1.0000 1.7675773691
Si  Si37      1.0  0.19470  0.46840  0.87410  1.0000 1.7091651959
Al  Al38      1.0  0.12590  0.03160  0.30530  1.0000 1.7675773691
Si  Si38      1.0  0.19470  0.96840  0.37410  1.0000 1.7091651959
Al  Al39      1.0  0.62590  0.53160  0.30530  1.0000 1.7675773691
Si  Si39      1.0  0.69470  0.46840  0.37410  1.0000 1.7091651959
Al  Al40      1.0  0.62590  0.03160  0.80530  1.0000 1.7675773691
Si  Si40      1.0  0.69470  0.96840  0.87410  1.0000 1.7091651959
Al  Al41      1.0  0.62410  0.71840  0.30530  1.0000 1.7675773691
Si  Si41      1.0  0.55530  0.78160  0.37410  1.0000 1.7091651959
Al  Al42      1.0  0.62410  0.21840  0.80530  1.0000 1.7675773691
Si  Si42      1.0  0.55530  0.28160  0.87410  1.0000 1.7091651959
Al  Al43      1.0  0.12410  0.71840  0.80530  1.0000 1.7675773691
Si  Si43      1.0  0.05530  0.78160  0.87410  1.0000 1.7091651959
Al  Al44      1.0  0.12410  0.21840  0.30530  1.0000 1.7675773691
Si  Si44      1.0  0.05530  0.28160  0.37410  1.0000 1.7091651959
Al  Al45      1.0  0.62590  0.21840  0.44470  1.0000 1.7675773691
Si  Si45      1.0  0.69470  0.28160  0.37590  1.0000 1.7091651959
Al  Al46      1.0  0.62590  0.71840  0.94470  1.0000 1.7675773691
Si  Si46      1.0  0.69470  0.78160  0.87590  1.0000 1.7091651959
Al  Al47      1.0  0.12590  0.21840  0.94470  1.0000 1.7675773691
Si  Si47      1.0  0.19470  0.28160  0.87590  1.0000 1.7091651959
Al  Al48      1.0  0.12590  0.71840  0.44470  1.0000 1.7675773691
Si  Si48      1.0  0.19470  0.78160  0.37590  1.0000 1.7091651959
Al  Al49      1.0  0.05530  0.87590  0.96840  1.0000 1.7675773691
Si  Si49      1.0  0.12410  0.94470  0.03160  1.0000 1.7091651959
Al  Al50      1.0  0.05530  0.37590  0.46840  1.0000 1.7675773691
Si  Si50      1.0  0.12410  0.44470  0.53160  1.0000 1.7091651959
Al  Al51      1.0  0.55530  0.87590  0.46840  1.0000 1.7675773691
Si  Si51      1.0  0.62410  0.94470  0.53160  1.0000 1.7091651959
Al  Al52      1.0  0.55530  0.37590  0.96840  1.0000 1.7675773691
Si  Si52      1.0  0.62410  0.44470  0.03160  1.0000 1.7091651959
Al  Al53      1.0  0.19470  0.87410  0.46840  1.0000 1.7675773691
Si  Si53      1.0  0.12590  0.80530  0.53160  1.0000 1.7091651959
Al  Al54      1.0  0.19470  0.37410  0.96840  1.0000 1.7675773691
Si  Si54      1.0  0.12590  0.30530  0.03160  1.0000 1.7091651959
Al  Al55      1.0  0.69470  0.87410  0.96840  1.0000 1.7675773691
Si  Si55      1.0  0.62590  0.80530  0.03160  1.0000 1.7091651959
Al  Al56      1.0  0.69470  0.37410  0.46840  1.0000 1.7675773691
Si  Si56      1.0  0.62590  0.30530  0.53160  1.0000 1.7091651959
Al  Al57      1.0  0.69470  0.37590  0.28160  1.0000 1.7675773691
Si  Si57      1.0  0.62590  0.44470  0.21840  1.0000 1.7091651959
Al  Al58      1.0  0.69470  0.87590  0.78160  1.0000 1.7675773691
Si  Si58      1.0  0.62590  0.94470  0.71840  1.0000 1.7091651959
Al  Al59      1.0  0.19470  0.37590  0.78160  1.0000 1.7675773691
Si  Si59      1.0  0.12590  0.44470  0.71840  1.0000 1.7091651959
Al  Al60      1.0  0.19470  0.87590  0.28160  1.0000 1.7675773691
Si  Si60      1.0  0.12590  0.94470  0.21840  1.0000 1.7091651959
Al  Al61      1.0  0.55530  0.37410  0.78160  1.0000 1.7675773691
Si  Si61      1.0  0.62410  0.30530  0.71840  1.0000 1.7091651959
Al  Al62      1.0  0.55530  0.87410  0.28160  1.0000 1.7675773691
Si  Si62      1.0  0.62410  0.80530  0.21840  1.0000 1.7091651959
Al  Al63      1.0  0.05530  0.37410  0.28160  1.0000 1.7675773691
Si  Si63      1.0  0.12410  0.30530  0.21840  1.0000 1.7091651959
Al  Al64      1.0  0.05530  0.87410  0.78160  1.0000 1.7675773691
Si  Si64      1.0  0.12410  0.80530  0.71840  1.0000 1.7091651959
Al  Al65      1.0  0.96840  0.05530  0.87590  1.0000 1.7675773691
Si  Si65      1.0  0.03160  0.12410  0.94470  1.0000 1.7091651959
Al  Al66      1.0  0.96840  0.55530  0.37590  1.0000 1.7675773691
Si  Si66      1.0  0.03160  0.62410  0.44470  1.0000 1.7091651959
Al  Al67      1.0  0.46840  0.05530  0.37590  1.0000 1.7675773691
Si  Si67      1.0  0.53160  0.12410  0.44470  1.0000 1.7091651959
Al  Al68      1.0  0.46840  0.55530  0.87590  1.0000 1.7675773691
Si  Si68      1.0  0.53160  0.62410  0.94470  1.0000 1.7091651959
Al  Al69      1.0  0.46840  0.19470  0.87410  1.0000 1.7675773691
Si  Si69      1.0  0.53160  0.12590  0.80530  1.0000 1.7091651959
Al  Al70      1.0  0.46840  0.69470  0.37410  1.0000 1.7675773691
Si  Si70      1.0  0.53160  0.62590  0.30530  1.0000 1.7091651959
Al  Al71      1.0  0.96840  0.19470  0.37410  1.0000 1.7675773691
Si  Si71      1.0  0.03160  0.12590  0.30530  1.0000 1.7091651959
Al  Al72      1.0  0.96840  0.69470  0.87410  1.0000 1.7675773691
Si  Si72      1.0  0.03160  0.62590  0.80530  1.0000 1.7091651959
Al  Al73      1.0  0.28160  0.69470  0.37590  1.0000 1.7675773691
Si  Si73      1.0  0.21840  0.62590  0.44470  1.0000 1.7091651959
Al  Al74      1.0  0.28160  0.19470  0.87590  1.0000 1.7675773691
Si  Si74      1.0  0.21840  0.12590  0.94470  1.0000 1.7091651959
Al  Al75      1.0  0.78160  0.69470  0.87590  1.0000 1.7675773691
Si  Si75      1.0  0.71840  0.62590  0.94470  1.0000 1.7091651959
Al  Al76      1.0  0.78160  0.19470  0.37590  1.0000 1.7675773691
Si  Si76      1.0  0.71840  0.12590  0.44470  1.0000 1.7091651959
Al  Al77      1.0  0.78160  0.55530  0.37410  1.0000 1.7675773691
Si  Si77      1.0  0.71840  0.62410  0.30530  1.0000 1.7091651959
Al  Al78      1.0  0.78160  0.05530  0.87410  1.0000 1.7675773691
Si  Si78      1.0  0.71840  0.12410  0.80530  1.0000 1.7091651959
Al  Al79      1.0  0.28160  0.55530  0.87410  1.0000 1.7675773691
Si  Si79      1.0  0.21840  0.62410  0.80530  1.0000 1.7091651959
Al  Al80      1.0  0.28160  0.05530  0.37410  1.0000 1.7675773691
Si  Si80      1.0  0.21840  0.12410  0.30530  1.0000 1.7091651959
Al  Al81      1.0  0.87590  0.96840  0.05530  1.0000 1.7675773691
Si  Si81      1.0  0.94470  0.03160  0.12410  1.0000 1.7091651959
Al  Al82      1.0  0.87590  0.46840  0.55530  1.0000 1.7675773691
Si  Si82      1.0  0.94470  0.53160  0.62410  1.0000 1.7091651959
Al  Al83      1.0  0.37590  0.96840  0.55530  1.0000 1.7675773691
Si  Si83      1.0  0.44470  0.03160  0.62410  1.0000 1.7091651959
Al  Al84      1.0  0.37590  0.46840  0.05530  1.0000 1.7675773691
Si  Si84      1.0  0.44470  0.53160  0.12410  1.0000 1.7091651959
Al  Al85      1.0  0.87410  0.46840  0.19470  1.0000 1.7675773691
Si  Si85      1.0  0.80530  0.53160  0.12590  1.0000 1.7091651959
Al  Al86      1.0  0.87410  0.96840  0.69470  1.0000 1.7675773691
Si  Si86      1.0  0.80530  0.03160  0.62590  1.0000 1.7091651959
Al  Al87      1.0  0.37410  0.46840  0.69470  1.0000 1.7675773691
Si  Si87      1.0  0.30530  0.53160  0.62590  1.0000 1.7091651959
Al  Al88      1.0  0.37410  0.96840  0.19470  1.0000 1.7675773691
Si  Si88      1.0  0.30530  0.03160  0.12590  1.0000 1.7091651959
Al  Al89      1.0  0.37590  0.28160  0.69470  1.0000 1.7675773691
Si  Si89      1.0  0.44470  0.21840  0.62590  1.0000 1.7091651959
Al  Al90      1.0  0.37590  0.78160  0.19470  1.0000 1.7675773691
Si  Si90      1.0  0.44470  0.71840  0.12590  1.0000 1.7091651959
Al  Al91      1.0  0.87590  0.28160  0.19470  1.0000 1.7675773691
Si  Si91      1.0  0.94470  0.21840  0.12590  1.0000 1.7091651959
Al  Al92      1.0  0.87590  0.78160  0.69470  1.0000 1.7675773691
Si  Si92      1.0  0.94470  0.71840  0.62590  1.0000 1.7091651959
Al  Al93      1.0  0.37410  0.78160  0.55530  1.0000 1.7675773691
Si  Si93      1.0  0.30530  0.71840  0.62410  1.0000 1.7091651959
Al  Al94      1.0  0.37410  0.28160  0.05530  1.0000 1.7675773691
Si  Si94      1.0  0.30530  0.21840  0.12410  1.0000 1.7091651959
Al  Al95      1.0  0.87410  0.78160  0.05530  1.0000 1.7675773691
Si  Si95      1.0  0.80530  0.71840  0.12410  1.0000 1.7091651959
Al  Al96      1.0  0.87410  0.28160  0.55530  1.0000 1.7675773691
Si  Si96      1.0  0.80530  0.21840  0.62410  1.0000 1.7091651959
O   O1        1.0  0.89357  0.10643  0.00000  1.0000 -0.8934341871
O   O2        1.0  0.89357  0.60643  0.50000  1.0000 -0.8934341871
O   O3        1.0  0.39357  0.10643  0.50000  1.0000 -0.8934341871
O   O4        1.0  0.39357  0.60643  0.00000  1.0000 -0.8934341871
O   O5        1.0  0.85643  0.14357  0.50000  1.0000 -0.8934341871
O   O6        1.0  0.85643  0.64357  0.00000  1.0000 -0.8934341871
O   O7        1.0  0.35643  0.14357  0.00000  1.0000 -0.8934341871
O   O8        1.0  0.35643  0.64357  0.50000  1.0000 -0.8934341871
O   O9        1.0  0.35643  0.60643  0.75000  1.0000 -0.8934341871
O   O10       1.0  0.35643  0.10643  0.25000  1.0000 -0.8934341871
O   O11       1.0  0.85643  0.60643  0.25000  1.0000 -0.8934341871
O   O12       1.0  0.85643  0.10643  0.75000  1.0000 -0.8934341871
O   O13       1.0  0.39357  0.64357  0.25000  1.0000 -0.8934341871
O   O14       1.0  0.39357  0.14357  0.75000  1.0000 -0.8934341871
O   O15       1.0  0.89357  0.64357  0.75000  1.0000 -0.8934341871
O   O16       1.0  0.89357  0.14357  0.25000  1.0000 -0.8934341871
O   O17       1.0  0.00000  0.89357  0.10643  1.0000 -0.8934341871
O   O18       1.0  0.00000  0.39357  0.60643  1.0000 -0.8934341871
O   O19       1.0  0.50000  0.89357  0.60643  1.0000 -0.8934341871
O   O20       1.0  0.50000  0.39357  0.10643  1.0000 -0.8934341871
O   O21       1.0  0.50000  0.85643  0.14357  1.0000 -0.8934341871
O   O22       1.0  0.50000  0.35643  0.64357  1.0000 -0.8934341871
O   O23       1.0  0.00000  0.85643  0.64357  1.0000 -0.8934341871
O   O24       1.0  0.00000  0.35643  0.14357  1.0000 -0.8934341871
O   O25       1.0  0.75000  0.35643  0.60643  1.0000 -0.8934341871
O   O26       1.0  0.75000  0.85643  0.10643  1.0000 -0.8934341871
O   O27       1.0  0.25000  0.35643  0.10643  1.0000 -0.8934341871
O   O28       1.0  0.25000  0.85643  0.60643  1.0000 -0.8934341871
O   O29       1.0  0.25000  0.39357  0.64357  1.0000 -0.8934341871
O   O30       1.0  0.25000  0.89357  0.14357  1.0000 -0.8934341871
O   O31       1.0  0.75000  0.39357  0.14357  1.0000 -0.8934341871
O   O32       1.0  0.75000  0.89357  0.64357  1.0000 -0.8934341871
O   O33       1.0  0.10643  0.00000  0.89357  1.0000 -0.8934341871
O   O34       1.0  0.10643  0.50000  0.39357  1.0000 -0.8934341871
O   O35       1.0  0.60643  0.00000  0.39357  1.0000 -0.8934341871
O   O36       1.0  0.60643  0.50000  0.89357  1.0000 -0.8934341871
O   O37       1.0  0.14357  0.50000  0.85643  1.0000 -0.8934341871
O   O38       1.0  0.14357  0.00000  0.35643  1.0000 -0.8934341871
O   O39       1.0  0.64357  0.50000  0.35643  1.0000 -0.8934341871
O   O40       1.0  0.64357  0.00000  0.85643  1.0000 -0.8934341871
O   O41       1.0  0.60643  0.75000  0.35643  1.0000 -0.8934341871
O   O42       1.0  0.60643  0.25000  0.85643  1.0000 -0.8934341871
O   O43       1.0  0.10643  0.75000  0.85643  1.0000 -0.8934341871
O   O44       1.0  0.10643  0.25000  0.35643  1.0000 -0.8934341871
O   O45       1.0  0.64357  0.25000  0.39357  1.0000 -0.8934341871
O   O46       1.0  0.64357  0.75000  0.89357  1.0000 -0.8934341871
O   O47       1.0  0.14357  0.25000  0.89357  1.0000 -0.8934341871
O   O48       1.0  0.14357  0.75000  0.39357  1.0000 -0.8934341871
O   O49       1.0  0.10643  0.89357  0.00000  1.0000 -0.8934341871
O   O50       1.0  0.10643  0.39357  0.50000  1.0000 -0.8934341871
O   O51       1.0  0.60643  0.89357  0.50000  1.0000 -0.8934341871
O   O52       1.0  0.60643  0.39357  0.00000  1.0000 -0.8934341871
O   O53       1.0  0.14357  0.85643  0.50000  1.0000 -0.8934341871
O   O54       1.0  0.14357  0.35643  0.00000  1.0000 -0.8934341871
O   O55       1.0  0.64357  0.85643  0.00000  1.0000 -0.8934341871
O   O56       1.0  0.64357  0.35643  0.50000  1.0000 -0.8934341871
O   O57       1.0  0.64357  0.39357  0.25000  1.0000 -0.8934341871
O   O58       1.0  0.64357  0.89357  0.75000  1.0000 -0.8934341871
O   O59       1.0  0.14357  0.39357  0.75000  1.0000 -0.8934341871
O   O60       1.0  0.14357  0.89357  0.25000  1.0000 -0.8934341871
O   O61       1.0  0.60643  0.35643  0.75000  1.0000 -0.8934341871
O   O62       1.0  0.60643  0.85643  0.25000  1.0000 -0.8934341871
O   O63       1.0  0.10643  0.35643  0.25000  1.0000 -0.8934341871
O   O64       1.0  0.10643  0.85643  0.75000  1.0000 -0.8934341871
O   O65       1.0  0.00000  0.10643  0.89357  1.0000 -0.8934341871
O   O66       1.0  0.00000  0.60643  0.39357  1.0000 -0.8934341871
O   O67       1.0  0.50000  0.10643  0.39357  1.0000 -0.8934341871
O   O68       1.0  0.50000  0.60643  0.89357  1.0000 -0.8934341871
O   O69       1.0  0.50000  0.14357  0.85643  1.0000 -0.8934341871
O   O70       1.0  0.50000  0.64357  0.35643  1.0000 -0.8934341871
O   O71       1.0  0.00000  0.14357  0.35643  1.0000 -0.8934341871
O   O72       1.0  0.00000  0.64357  0.85643  1.0000 -0.8934341871
O   O73       1.0  0.25000  0.64357  0.39357  1.0000 -0.8934341871
O   O74       1.0  0.25000  0.14357  0.89357  1.0000 -0.8934341871
O   O75       1.0  0.75000  0.64357  0.89357  1.0000 -0.8934341871
O   O76       1.0  0.75000  0.14357  0.39357  1.0000 -0.8934341871
O   O77       1.0  0.75000  0.60643  0.35643  1.0000 -0.8934341871
O   O78       1.0  0.75000  0.10643  0.85643  1.0000 -0.8934341871
O   O79       1.0  0.25000  0.60643  0.85643  1.0000 -0.8934341871
O   O80       1.0  0.25000  0.10643  0.35643  1.0000 -0.8934341871
O   O81       1.0  0.89357  0.00000  0.10643  1.0000 -0.8934341871
O   O82       1.0  0.89357  0.50000  0.60643  1.0000 -0.8934341871
O   O83       1.0  0.39357  0.00000  0.60643  1.0000 -0.8934341871
O   O84       1.0  0.39357  0.50000  0.10643  1.0000 -0.8934341871
O   O85       1.0  0.85643  0.50000  0.14357  1.0000 -0.8934341871
O   O86       1.0  0.85643  0.00000  0.64357  1.0000 -0.8934341871
O   O87       1.0  0.35643  0.50000  0.64357  1.0000 -0.8934341871
O   O88       1.0  0.35643  0.00000  0.14357  1.0000 -0.8934341871
O   O89       1.0  0.39357  0.25000  0.64357  1.0000 -0.8934341871
O   O90       1.0  0.39357  0.75000  0.14357  1.0000 -0.8934341871
O   O91       1.0  0.89357  0.25000  0.14357  1.0000 -0.8934341871
O   O92       1.0  0.89357  0.75000  0.64357  1.0000 -0.8934341871
O   O93       1.0  0.35643  0.75000  0.60643  1.0000 -0.8934341871
O   O94       1.0  0.35643  0.25000  0.10643  1.0000 -0.8934341871
O   O95       1.0  0.85643  0.75000  0.10643  1.0000 -0.8934341871
O   O96       1.0  0.85643  0.25000  0.60643  1.0000 -0.8934341871
O   O97       1.0  0.96580  0.07409  0.07409  1.0000 -0.9354006148
O   O98       1.0  0.96580  0.57409  0.57409  1.0000 -0.9354006148
O   O99       1.0  0.46580  0.07409  0.57409  1.0000 -0.9354006148
O   O100      1.0  0.46580  0.57409  0.07409  1.0000 -0.9354006148
O   O101      1.0  0.78420  0.17591  0.57409  1.0000 -0.9354006148
O   O102      1.0  0.78420  0.67591  0.07409  1.0000 -0.9354006148
O   O103      1.0  0.28420  0.57409  0.67591  1.0000 -0.9354006148
O   O104      1.0  0.28420  0.07409  0.17591  1.0000 -0.9354006148
O   O105      1.0  0.78420  0.07409  0.67591  1.0000 -0.9354006148
O   O106      1.0  0.46580  0.67591  0.17591  1.0000 -0.9354006148
O   O107      1.0  0.96580  0.67591  0.67591  1.0000 -0.9354006148
O   O108      1.0  0.07409  0.96580  0.07409  1.0000 -0.9354006148
O   O109      1.0  0.07409  0.46580  0.57409  1.0000 -0.9354006148
O   O110      1.0  0.57409  0.96580  0.57409  1.0000 -0.9354006148
O   O111      1.0  0.57409  0.46580  0.07409  1.0000 -0.9354006148
O   O112      1.0  0.57409  0.78420  0.17591  1.0000 -0.9354006148
O   O113      1.0  0.07409  0.78420  0.67591  1.0000 -0.9354006148
O   O114      1.0  0.67591  0.28420  0.57409  1.0000 -0.9354006148
O   O115      1.0  0.67591  0.78420  0.07409  1.0000 -0.9354006148
O   O116      1.0  0.17591  0.46580  0.67591  1.0000 -0.9354006148
O   O117      1.0  0.17591  0.96580  0.17591  1.0000 -0.9354006148
O   O118      1.0  0.67591  0.96580  0.67591  1.0000 -0.9354006148
O   O119      1.0  0.07409  0.07409  0.96580  1.0000 -0.9354006148
O   O120      1.0  0.07409  0.57409  0.46580  1.0000 -0.9354006148
O   O121      1.0  0.57409  0.07409  0.46580  1.0000 -0.9354006148
O   O122      1.0  0.57409  0.57409  0.96580  1.0000 -0.9354006148
O   O123      1.0  0.17591  0.57409  0.78420  1.0000 -0.9354006148
O   O124      1.0  0.17591  0.07409  0.28420  1.0000 -0.9354006148
O   O125      1.0  0.67591  0.07409  0.78420  1.0000 -0.9354006148
O   O126      1.0  0.57409  0.67591  0.28420  1.0000 -0.9354006148
O   O127      1.0  0.07409  0.67591  0.78420  1.0000 -0.9354006148
O   O128      1.0  0.67591  0.17591  0.46580  1.0000 -0.9354006148
O   O129      1.0  0.67591  0.67591  0.96580  1.0000 -0.9354006148
O   O130      1.0  0.82409  0.21580  0.42591  1.0000 -0.9354006148
O   O131      1.0  0.82409  0.71580  0.92591  1.0000 -0.9354006148
O   O132      1.0  0.92591  0.03420  0.92591  1.0000 -0.9354006148
O   O133      1.0  0.92591  0.53420  0.42591  1.0000 -0.9354006148
O   O134      1.0  0.42591  0.03420  0.42591  1.0000 -0.9354006148
O   O135      1.0  0.42591  0.53420  0.92591  1.0000 -0.9354006148
O   O136      1.0  0.32409  0.53420  0.82409  1.0000 -0.9354006148
O   O137      1.0  0.32409  0.03420  0.32409  1.0000 -0.9354006148
O   O138      1.0  0.82409  0.03420  0.82409  1.0000 -0.9354006148
O   O139      1.0  0.42591  0.71580  0.32409  1.0000 -0.9354006148
O   O140      1.0  0.92591  0.71580  0.82409  1.0000 -0.9354006148
O   O141      1.0  0.71580  0.32409  0.42591  1.0000 -0.9354006148
O   O142      1.0  0.71580  0.82409  0.92591  1.0000 -0.9354006148
O   O143      1.0  0.53420  0.82409  0.32409  1.0000 -0.9354006148
O   O144      1.0  0.03420  0.82409  0.82409  1.0000 -0.9354006148
O   O145      1.0  0.03420  0.92591  0.92591  1.0000 -0.9354006148
O   O146      1.0  0.03420  0.42591  0.42591  1.0000 -0.9354006148
O   O147      1.0  0.53420  0.92591  0.42591  1.0000 -0.9354006148
O   O148      1.0  0.53420  0.42591  0.92591  1.0000 -0.9354006148
O   O149      1.0  0.21580  0.42591  0.82409  1.0000 -0.9354006148
O   O150      1.0  0.21580  0.92591  0.32409  1.0000 -0.9354006148
O   O151      1.0  0.71580  0.92591  0.82409  1.0000 -0.9354006148
O   O152      1.0  0.82409  0.32409  0.53420  1.0000 -0.9354006148
O   O153      1.0  0.82409  0.82409  0.03420  1.0000 -0.9354006148
O   O154      1.0  0.32409  0.42591  0.71580  1.0000 -0.9354006148
O   O155      1.0  0.32409  0.92591  0.21580  1.0000 -0.9354006148
O   O156      1.0  0.82409  0.92591  0.71580  1.0000 -0.9354006148
O   O157      1.0  0.42591  0.82409  0.21580  1.0000 -0.9354006148
O   O158      1.0  0.92591  0.82409  0.71580  1.0000 -0.9354006148
O   O159      1.0  0.92591  0.92591  0.03420  1.0000 -0.9354006148
O   O160      1.0  0.92591  0.42591  0.53420  1.0000 -0.9354006148
O   O161      1.0  0.42591  0.92591  0.53420  1.0000 -0.9354006148
O   O162      1.0  0.42591  0.42591  0.03420  1.0000 -0.9354006148
O   O163      1.0  0.21580  0.82409  0.42591  1.0000 -0.9354006148
O   O164      1.0  0.21580  0.32409  0.92591  1.0000 -0.9354006148
O   O165      1.0  0.71580  0.42591  0.32409  1.0000 -0.9354006148
O   O166      1.0  0.53420  0.32409  0.82409  1.0000 -0.9354006148
O   O167      1.0  0.03420  0.32409  0.32409  1.0000 -0.9354006148
O   O168      1.0  0.42591  0.21580  0.82409  1.0000 -0.9354006148
O   O169      1.0  0.92591  0.21580  0.32409  1.0000 -0.9354006148
O   O170      1.0  0.32409  0.71580  0.42591  1.0000 -0.9354006148
O   O171      1.0  0.32409  0.21580  0.92591  1.0000 -0.9354006148
O   O172      1.0  0.82409  0.53420  0.32409  1.0000 -0.9354006148
O   O173      1.0  0.82409  0.42591  0.21580  1.0000 -0.9354006148
O   O174      1.0  0.42591  0.32409  0.71580  1.0000 -0.9354006148
O   O175      1.0  0.92591  0.32409  0.21580  1.0000 -0.9354006148
O   O176      1.0  0.32409  0.82409  0.53420  1.0000 -0.9354006148
O   O177      1.0  0.32409  0.32409  0.03420  1.0000 -0.9354006148
O   O178      1.0  0.17591  0.78420  0.57409  1.0000 -0.9354006148
O   O179      1.0  0.17591  0.28420  0.07409  1.0000 -0.9354006148
O   O180      1.0  0.67591  0.46580  0.17591  1.0000 -0.9354006148
O   O181      1.0  0.57409  0.28420  0.67591  1.0000 -0.9354006148
O   O182      1.0  0.07409  0.28420  0.17591  1.0000 -0.9354006148
O   O183      1.0  0.28420  0.67591  0.57409  1.0000 -0.9354006148
O   O184      1.0  0.28420  0.17591  0.07409  1.0000 -0.9354006148
O   O185      1.0  0.46580  0.17591  0.67591  1.0000 -0.9354006148
O   O186      1.0  0.96580  0.17591  0.17591  1.0000 -0.9354006148
O   O187      1.0  0.78420  0.57409  0.17591  1.0000 -0.9354006148
O   O188      1.0  0.17591  0.67591  0.46580  1.0000 -0.9354006148
O   O189      1.0  0.17591  0.17591  0.96580  1.0000 -0.9354006148
O   O190      1.0  0.67591  0.57409  0.28420  1.0000 -0.9354006148
O   O191      1.0  0.57409  0.17591  0.78420  1.0000 -0.9354006148
O   O192      1.0  0.07409  0.17591  0.28420  1.0000 -0.9354006148
O   O193      1.0  0.99697  0.13875  0.99697  1.0000 -0.8958224769
O   O194      1.0  0.99697  0.63875  0.49697  1.0000 -0.8958224769
O   O195      1.0  0.49697  0.13875  0.49697  1.0000 -0.8958224769
O   O196      1.0  0.49697  0.63875  0.99697  1.0000 -0.8958224769
O   O197      1.0  0.75303  0.11125  0.49697  1.0000 -0.8958224769
O   O198      1.0  0.75303  0.61125  0.99697  1.0000 -0.8958224769
O   O199      1.0  0.25303  0.63875  0.75303  1.0000 -0.8958224769
O   O200      1.0  0.25303  0.13875  0.25303  1.0000 -0.8958224769
O   O201      1.0  0.49697  0.61125  0.25303  1.0000 -0.8958224769
O   O202      1.0  0.99697  0.61125  0.75303  1.0000 -0.8958224769
O   O203      1.0  0.99697  0.99697  0.13875  1.0000 -0.8958224769
O   O204      1.0  0.99697  0.49697  0.63875  1.0000 -0.8958224769
O   O205      1.0  0.49697  0.99697  0.63875  1.0000 -0.8958224769
O   O206      1.0  0.49697  0.49697  0.13875  1.0000 -0.8958224769
O   O207      1.0  0.49697  0.75303  0.11125  1.0000 -0.8958224769
O   O208      1.0  0.99697  0.75303  0.61125  1.0000 -0.8958224769
O   O209      1.0  0.75303  0.25303  0.63875  1.0000 -0.8958224769
O   O210      1.0  0.75303  0.75303  0.13875  1.0000 -0.8958224769
O   O211      1.0  0.25303  0.49697  0.61125  1.0000 -0.8958224769
O   O212      1.0  0.25303  0.99697  0.11125  1.0000 -0.8958224769
O   O213      1.0  0.13875  0.99697  0.99697  1.0000 -0.8958224769
O   O214      1.0  0.13875  0.49697  0.49697  1.0000 -0.8958224769
O   O215      1.0  0.63875  0.99697  0.49697  1.0000 -0.8958224769
O   O216      1.0  0.63875  0.49697  0.99697  1.0000 -0.8958224769
O   O217      1.0  0.11125  0.49697  0.75303  1.0000 -0.8958224769
O   O218      1.0  0.11125  0.99697  0.25303  1.0000 -0.8958224769
O   O219      1.0  0.63875  0.75303  0.25303  1.0000 -0.8958224769
O   O220      1.0  0.13875  0.75303  0.75303  1.0000 -0.8958224769
O   O221      1.0  0.61125  0.25303  0.49697  1.0000 -0.8958224769
O   O222      1.0  0.61125  0.75303  0.99697  1.0000 -0.8958224769
O   O223      1.0  0.88875  0.24697  0.50303  1.0000 -0.8958224769
O   O224      1.0  0.88875  0.74697  0.00303  1.0000 -0.8958224769
O   O225      1.0  0.86125  0.00303  0.00303  1.0000 -0.8958224769
O   O226      1.0  0.86125  0.50303  0.50303  1.0000 -0.8958224769
O   O227      1.0  0.36125  0.00303  0.50303  1.0000 -0.8958224769
O   O228      1.0  0.36125  0.50303  0.00303  1.0000 -0.8958224769
O   O229      1.0  0.38875  0.50303  0.74697  1.0000 -0.8958224769
O   O230      1.0  0.38875  0.00303  0.24697  1.0000 -0.8958224769
O   O231      1.0  0.36125  0.74697  0.24697  1.0000 -0.8958224769
O   O232      1.0  0.86125  0.74697  0.74697  1.0000 -0.8958224769
O   O233      1.0  0.74697  0.24697  0.36125  1.0000 -0.8958224769
O   O234      1.0  0.74697  0.74697  0.86125  1.0000 -0.8958224769
O   O235      1.0  0.50303  0.74697  0.38875  1.0000 -0.8958224769
O   O236      1.0  0.00303  0.74697  0.88875  1.0000 -0.8958224769
O   O237      1.0  0.00303  0.00303  0.86125  1.0000 -0.8958224769
O   O238      1.0  0.00303  0.50303  0.36125  1.0000 -0.8958224769
O   O239      1.0  0.50303  0.00303  0.36125  1.0000 -0.8958224769
O   O240      1.0  0.50303  0.50303  0.86125  1.0000 -0.8958224769
O   O241      1.0  0.24697  0.50303  0.88875  1.0000 -0.8958224769
O   O242      1.0  0.24697  0.00303  0.38875  1.0000 -0.8958224769
O   O243      1.0  0.74697  0.38875  0.50303  1.0000 -0.8958224769
O   O244      1.0  0.74697  0.88875  0.00303  1.0000 -0.8958224769
O   O245      1.0  0.24697  0.36125  0.74697  1.0000 -0.8958224769
O   O246      1.0  0.24697  0.86125  0.24697  1.0000 -0.8958224769
O   O247      1.0  0.50303  0.88875  0.24697  1.0000 -0.8958224769
O   O248      1.0  0.00303  0.88875  0.74697  1.0000 -0.8958224769
O   O249      1.0  0.00303  0.86125  0.00303  1.0000 -0.8958224769
O   O250      1.0  0.00303  0.36125  0.50303  1.0000 -0.8958224769
O   O251      1.0  0.50303  0.86125  0.50303  1.0000 -0.8958224769
O   O252      1.0  0.50303  0.36125  0.00303  1.0000 -0.8958224769
O   O253      1.0  0.24697  0.88875  0.50303  1.0000 -0.8958224769
O   O254      1.0  0.24697  0.38875  0.00303  1.0000 -0.8958224769
O   O255      1.0  0.74697  0.36125  0.24697  1.0000 -0.8958224769
O   O256      1.0  0.74697  0.86125  0.74697  1.0000 -0.8958224769
O   O257      1.0  0.50303  0.38875  0.74697  1.0000 -0.8958224769
O   O258      1.0  0.00303  0.38875  0.24697  1.0000 -0.8958224769
O   O259      1.0  0.50303  0.24697  0.88875  1.0000 -0.8958224769
O   O260      1.0  0.00303  0.24697  0.38875  1.0000 -0.8958224769
O   O261      1.0  0.24697  0.74697  0.36125  1.0000 -0.8958224769
O   O262      1.0  0.24697  0.24697  0.86125  1.0000 -0.8958224769
O   O263      1.0  0.74697  0.50303  0.38875  1.0000 -0.8958224769
O   O264      1.0  0.74697  0.00303  0.88875  1.0000 -0.8958224769
O   O265      1.0  0.88875  0.50303  0.24697  1.0000 -0.8958224769
O   O266      1.0  0.88875  0.00303  0.74697  1.0000 -0.8958224769
O   O267      1.0  0.36125  0.24697  0.74697  1.0000 -0.8958224769
O   O268      1.0  0.86125  0.24697  0.24697  1.0000 -0.8958224769
O   O269      1.0  0.38875  0.74697  0.50303  1.0000 -0.8958224769
O   O270      1.0  0.38875  0.24697  0.00303  1.0000 -0.8958224769
O   O271      1.0  0.11125  0.75303  0.49697  1.0000 -0.8958224769
O   O272      1.0  0.11125  0.25303  0.99697  1.0000 -0.8958224769
O   O273      1.0  0.61125  0.49697  0.25303  1.0000 -0.8958224769
O   O274      1.0  0.61125  0.99697  0.75303  1.0000 -0.8958224769
O   O275      1.0  0.63875  0.25303  0.75303  1.0000 -0.8958224769
O   O276      1.0  0.13875  0.25303  0.25303  1.0000 -0.8958224769
O   O277      1.0  0.25303  0.75303  0.63875  1.0000 -0.8958224769
O   O278      1.0  0.25303  0.25303  0.13875  1.0000 -0.8958224769
O   O279      1.0  0.49697  0.25303  0.61125  1.0000 -0.8958224769
O   O280      1.0  0.99697  0.25303  0.11125  1.0000 -0.8958224769
O   O281      1.0  0.75303  0.49697  0.11125  1.0000 -0.8958224769
O   O282      1.0  0.75303  0.99697  0.61125  1.0000 -0.8958224769
O   O283      1.0  0.25303  0.61125  0.49697  1.0000 -0.8958224769
O   O284      1.0  0.25303  0.11125  0.99697  1.0000 -0.8958224769
O   O285      1.0  0.75303  0.63875  0.25303  1.0000 -0.8958224769
O   O286      1.0  0.75303  0.13875  0.75303  1.0000 -0.8958224769
O   O287      1.0  0.49697  0.11125  0.75303  1.0000 -0.8958224769
O   O288      1.0  0.99697  0.11125  0.25303  1.0000 -0.8958224769
O   O289      1.0  0.92753  0.17753  0.07247  1.0000 -0.9587659566
O   O290      1.0  0.92753  0.67753  0.57247  1.0000 -0.9587659566
O   O291      1.0  0.42753  0.17753  0.57247  1.0000 -0.9587659566
O   O292      1.0  0.82247  0.07247  0.57247  1.0000 -0.9587659566
O   O293      1.0  0.32247  0.07247  0.07247  1.0000 -0.9587659566
O   O294      1.0  0.32247  0.57247  0.57247  1.0000 -0.9587659566
O   O295      1.0  0.32247  0.67753  0.67753  1.0000 -0.9587659566
O   O296      1.0  0.32247  0.17753  0.17753  1.0000 -0.9587659566
O   O297      1.0  0.82247  0.67753  0.17753  1.0000 -0.9587659566
O   O298      1.0  0.82247  0.17753  0.67753  1.0000 -0.9587659566
O   O299      1.0  0.42753  0.57247  0.17753  1.0000 -0.9587659566
O   O300      1.0  0.42753  0.07247  0.67753  1.0000 -0.9587659566
O   O301      1.0  0.07247  0.92753  0.17753  1.0000 -0.9587659566
O   O302      1.0  0.07247  0.42753  0.67753  1.0000 -0.9587659566
O   O303      1.0  0.57247  0.42753  0.17753  1.0000 -0.9587659566
O   O304      1.0  0.57247  0.82247  0.07247  1.0000 -0.9587659566
O   O305      1.0  0.57247  0.32247  0.57247  1.0000 -0.9587659566
O   O306      1.0  0.67753  0.32247  0.67753  1.0000 -0.9587659566
O   O307      1.0  0.67753  0.82247  0.17753  1.0000 -0.9587659566
O   O308      1.0  0.17753  0.32247  0.17753  1.0000 -0.9587659566
O   O309      1.0  0.17753  0.82247  0.67753  1.0000 -0.9587659566
O   O310      1.0  0.17753  0.42753  0.57247  1.0000 -0.9587659566
O   O311      1.0  0.67753  0.42753  0.07247  1.0000 -0.9587659566
O   O312      1.0  0.17753  0.07247  0.92753  1.0000 -0.9587659566
O   O313      1.0  0.17753  0.57247  0.42753  1.0000 -0.9587659566
O   O314      1.0  0.67753  0.07247  0.42753  1.0000 -0.9587659566
O   O315      1.0  0.07247  0.57247  0.82247  1.0000 -0.9587659566
O   O316      1.0  0.07247  0.07247  0.32247  1.0000 -0.9587659566
O   O317      1.0  0.57247  0.57247  0.32247  1.0000 -0.9587659566
O   O318      1.0  0.67753  0.67753  0.32247  1.0000 -0.9587659566
O   O319      1.0  0.67753  0.17753  0.82247  1.0000 -0.9587659566
O   O320      1.0  0.17753  0.67753  0.82247  1.0000 -0.9587659566
O   O321      1.0  0.17753  0.17753  0.32247  1.0000 -0.9587659566
O   O322      1.0  0.57247  0.17753  0.42753  1.0000 -0.9587659566
O   O323      1.0  0.57247  0.67753  0.92753  1.0000 -0.9587659566
O   O324      1.0  0.92753  0.17753  0.42753  1.0000 -0.9587659566
O   O325      1.0  0.92753  0.67753  0.92753  1.0000 -0.9587659566
O   O326      1.0  0.82247  0.07247  0.92753  1.0000 -0.9587659566
O   O327      1.0  0.32247  0.07247  0.42753  1.0000 -0.9587659566
O   O328      1.0  0.42753  0.57247  0.82247  1.0000 -0.9587659566
O   O329      1.0  0.42753  0.07247  0.32247  1.0000 -0.9587659566
O   O330      1.0  0.32247  0.67753  0.32247  1.0000 -0.9587659566
O   O331      1.0  0.32247  0.17753  0.82247  1.0000 -0.9587659566
O   O332      1.0  0.82247  0.67753  0.82247  1.0000 -0.9587659566
O   O333      1.0  0.82247  0.17753  0.32247  1.0000 -0.9587659566
O   O334      1.0  0.67753  0.32247  0.32247  1.0000 -0.9587659566
O   O335      1.0  0.67753  0.82247  0.82247  1.0000 -0.9587659566
O   O336      1.0  0.17753  0.32247  0.82247  1.0000 -0.9587659566
O   O337      1.0  0.17753  0.82247  0.32247  1.0000 -0.9587659566
O   O338      1.0  0.57247  0.82247  0.42753  1.0000 -0.9587659566
O   O339      1.0  0.57247  0.32247  0.92753  1.0000 -0.9587659566
O   O340      1.0  0.07247  0.92753  0.82247  1.0000 -0.9587659566
O   O341      1.0  0.07247  0.42753  0.32247  1.0000 -0.9587659566
O   O342      1.0  0.17753  0.42753  0.92753  1.0000 -0.9587659566
O   O343      1.0  0.67753  0.42753  0.42753  1.0000 -0.9587659566
O   O344      1.0  0.67753  0.92753  0.92753  1.0000 -0.9587659566
O   O345      1.0  0.82247  0.42753  0.57247  1.0000 -0.9587659566
O   O346      1.0  0.32247  0.42753  0.07247  1.0000 -0.9587659566
O   O347      1.0  0.32247  0.32247  0.67753  1.0000 -0.9587659566
O   O348      1.0  0.32247  0.82247  0.17753  1.0000 -0.9587659566
O   O349      1.0  0.82247  0.32247  0.17753  1.0000 -0.9587659566
O   O350      1.0  0.82247  0.82247  0.67753  1.0000 -0.9587659566
O   O351      1.0  0.42753  0.92753  0.17753  1.0000 -0.9587659566
O   O352      1.0  0.42753  0.42753  0.67753  1.0000 -0.9587659566
O   O353      1.0  0.92753  0.92753  0.67753  1.0000 -0.9587659566
O   O354      1.0  0.92753  0.82247  0.07247  1.0000 -0.9587659566
O   O355      1.0  0.92753  0.32247  0.57247  1.0000 -0.9587659566
O   O356      1.0  0.07247  0.82247  0.92753  1.0000 -0.9587659566
O   O357      1.0  0.07247  0.32247  0.42753  1.0000 -0.9587659566
O   O358      1.0  0.17753  0.92753  0.42753  1.0000 -0.9587659566
O   O359      1.0  0.57247  0.42753  0.82247  1.0000 -0.9587659566
O   O360      1.0  0.57247  0.92753  0.32247  1.0000 -0.9587659566
O   O361      1.0  0.92753  0.07247  0.82247  1.0000 -0.9587659566
O   O362      1.0  0.92753  0.57247  0.32247  1.0000 -0.9587659566
O   O363      1.0  0.42753  0.17753  0.92753  1.0000 -0.9587659566
O   O364      1.0  0.42753  0.67753  0.42753  1.0000 -0.9587659566
O   O365      1.0  0.82247  0.57247  0.42753  1.0000 -0.9587659566
O   O366      1.0  0.32247  0.57247  0.92753  1.0000 -0.9587659566
O   O367      1.0  0.82247  0.92753  0.07247  1.0000 -0.9587659566
O   O368      1.0  0.32247  0.92753  0.57247  1.0000 -0.9587659566
O   O369      1.0  0.92753  0.42753  0.17753  1.0000 -0.9587659566
O   O370      1.0  0.42753  0.82247  0.57247  1.0000 -0.9587659566
O   O371      1.0  0.42753  0.32247  0.07247  1.0000 -0.9587659566
O   O372      1.0  0.07247  0.82247  0.57247  1.0000 -0.9587659566
O   O373      1.0  0.07247  0.32247  0.07247  1.0000 -0.9587659566
O   O374      1.0  0.17753  0.92753  0.07247  1.0000 -0.9587659566
O   O375      1.0  0.67753  0.92753  0.57247  1.0000 -0.9587659566
O   O376      1.0  0.57247  0.92753  0.67753  1.0000 -0.9587659566
O   O377      1.0  0.42753  0.67753  0.07247  1.0000 -0.9587659566
O   O378      1.0  0.92753  0.07247  0.17753  1.0000 -0.9587659566
O   O379      1.0  0.92753  0.57247  0.67753  1.0000 -0.9587659566
O   O380      1.0  0.82247  0.57247  0.07247  1.0000 -0.9587659566
O   O381      1.0  0.67753  0.57247  0.92753  1.0000 -0.9587659566
O   O382      1.0  0.57247  0.07247  0.82247  1.0000 -0.9587659566
O   O383      1.0  0.07247  0.17753  0.92753  1.0000 -0.9587659566
O   O384      1.0  0.07247  0.67753  0.42753  1.0000 -0.9587659566
Na  Na1       1.0  0.35370  0.85370  0.35370  1.0000 -0.1194497727
Na  Na2       1.0  0.85370  0.85370  0.85370  1.0000 -0.1194497727
Na  Na3       1.0  0.39630  0.39630  0.85370  1.0000 -0.1194497727
Na  Na4       1.0  0.39630  0.89630  0.35370  1.0000 -0.1194497727
Na  Na5       1.0  0.89630  0.35370  0.39630  1.0000 -0.1194497727
Na  Na6       1.0  0.85370  0.89630  0.89630  1.0000 -0.1194497727
Na  Na7       1.0  0.35370  0.89630  0.39630  1.0000 -0.1194497727
Na  Na8       1.0  0.35370  0.39630  0.89630  1.0000 -0.1194497727
Na  Na9       1.0  0.35370  0.35370  0.85370  1.0000 -0.1194497727
Na  Na10      1.0  0.85370  0.39630  0.39630  1.0000 -0.1194497727
Na  Na11      1.0  0.89630  0.85370  0.89630  1.0000 -0.1194497727
Na  Na12      1.0  0.39630  0.35370  0.89630  1.0000 -0.1194497727
Na  Na13      1.0  0.85370  0.35370  0.35370  1.0000 -0.1194497727
Na  Na14      1.0  0.39630  0.85370  0.39630  1.0000 -0.1194497727
Na  Na15      1.0  0.89630  0.89630  0.85370  1.0000 -0.1194497727
Na  Na16      1.0  0.89630  0.39630  0.35370  1.0000 -0.1194497727
Na  Na17      1.0  0.60370  0.60370  0.14630  1.0000 -0.1194497727
Na  Na18      1.0  0.14630  0.64630  0.64630  1.0000 -0.1194497727
Na  Na19      1.0  0.14630  0.14630  0.14630  1.0000 -0.1194497727
Na  Na20      1.0  0.10370  0.14630  0.10370  1.0000 -0.1194497727
Na  Na21      1.0  0.64630  0.10370  0.60370  1.0000 -0.1194497727
Na  Na22      1.0  0.14630  0.10370  0.10370  1.0000 -0.1194497727
Na  Na23      1.0  0.14630  0.60370  0.60370  1.0000 -0.1194497727
Na  Na24      1.0  0.10370  0.60370  0.64630  1.0000 -0.1194497727
Na  Na25      1.0  0.10370  0.10370  0.14630  1.0000 -0.1194497727
Na  Na26      1.0  0.64630  0.64630  0.14630  1.0000 -0.1194497727
Na  Na27      1.0  0.60370  0.14630  0.60370  1.0000 -0.1194497727
Na  Na28      1.0  0.60370  0.64630  0.10370  1.0000 -0.1194497727
Na  Na29      1.0  0.64630  0.14630  0.64630  1.0000 -0.1194497727
Na  Na30      1.0  0.10370  0.64630  0.60370  1.0000 -0.1194497727
Na  Na31      1.0  0.60370  0.10370  0.64630  1.0000 -0.1194497727
Na  Na32      1.0  0.64630  0.60370  0.10370  1.0000 -0.1194497727
Ni  Ni1       1.0  0.02530  0.22470  0.02530  1.0000 0.739491784
Ni  Ni2       1.0  0.72470  0.02530  0.52530  1.0000 0.739491784
Ni  Ni3       1.0  0.22470  0.02530  0.02530  1.0000 0.739491784
Ni  Ni4       1.0  0.22470  0.72470  0.72470  1.0000 0.739491784
Ni  Ni5       1.0  0.22470  0.22470  0.22470  1.0000 0.739491784
Ni  Ni6       1.0  0.52530  0.52530  0.22470  1.0000 0.739491784
Ni  Ni7       1.0  0.02530  0.02530  0.22470  1.0000 0.739491784
Ni  Ni8       1.0  0.52530  0.72470  0.02530  1.0000 0.739491784
Ni  Ni9       1.0  0.72470  0.22470  0.72470  1.0000 0.739491784
Ni  Ni10      1.0  0.22470  0.52530  0.52530  1.0000 0.739491784
Ni  Ni11      1.0  0.02530  0.52530  0.72470  1.0000 0.739491784
Ni  Ni12      1.0  0.72470  0.72470  0.22470  1.0000 0.739491784
Ni  Ni13      1.0  0.52530  0.22470  0.52530  1.0000 0.739491784
Ni  Ni14      1.0  0.97470  0.27530  0.47470  1.0000 0.739491784
Ni  Ni15      1.0  0.77530  0.97470  0.97470  1.0000 0.739491784
Ni  Ni16      1.0  0.47470  0.47470  0.77530  1.0000 0.739491784
Ni  Ni17      1.0  0.27530  0.77530  0.27530  1.0000 0.739491784
Ni  Ni18      1.0  0.77530  0.27530  0.27530  1.0000 0.739491784
Ni  Ni19      1.0  0.77530  0.77530  0.77530  1.0000 0.739491784
Ni  Ni20      1.0  0.47470  0.77530  0.47470  1.0000 0.739491784
Ni  Ni21      1.0  0.97470  0.97470  0.77530  1.0000 0.739491784
Ni  Ni22      1.0  0.27530  0.47470  0.97470  1.0000 0.739491784
Ni  Ni23      1.0  0.77530  0.47470  0.47470  1.0000 0.739491784
Ni  Ni24      1.0  0.27530  0.27530  0.77530  1.0000 0.739491784
Ni  Ni25      1.0  0.47470  0.97470  0.27530  1.0000 0.739491784
Ni  Ni26      1.0  0.97470  0.77530  0.97470  1.0000 0.739491784
Ni  Ni27      1.0  0.27530  0.97470  0.47470  1.0000 0.739491784
Ni  Ni28      1.0  0.47470  0.27530  0.97470  1.0000 0.739491784
Ni  Ni29      1.0  0.97470  0.47470  0.27530  1.0000 0.739491784
Ni  Ni30      1.0  0.02530  0.72470  0.52530  1.0000 0.739491784
Ni  Ni31      1.0  0.72470  0.52530  0.02530  1.0000 0.739491784
Ni  Ni32      1.0  0.52530  0.02530  0.72470  1.0000 0.739491784
  Si  Si97      1.0  0.94470  0.12410  0.03160  1.0000
  Al  Al97      1.0  0.87590  0.05530  0.96840  1.0000
  Si  Si98      1.0  0.94470  0.62410  0.53160  1.0000
  Al  Al98      1.0  0.87590  0.55530  0.46840  1.0000
  Si  Si99      1.0  0.44470  0.12410  0.53160  1.0000
  Al  Al99      1.0  0.37590  0.05530  0.46840  1.0000
  Si  Si100     1.0  0.44470  0.62410  0.03160  1.0000
  Al  Al100     1.0  0.37590  0.55530  0.96840  1.0000
  Si  Si101     1.0  0.80530  0.12590  0.53160  1.0000
  Al  Al101     1.0  0.87410  0.19470  0.46840  1.0000
  Si  Si102     1.0  0.80530  0.62590  0.03160  1.0000
  Al  Al102     1.0  0.87410  0.69470  0.96840  1.0000
  Si  Si103     1.0  0.30530  0.12590  0.03160  1.0000
  Al  Al103     1.0  0.37410  0.19470  0.96840  1.0000
  Si  Si104     1.0  0.30530  0.62590  0.53160  1.0000
  Al  Al104     1.0  0.37410  0.69470  0.46840  1.0000
  Si  Si105     1.0  0.30530  0.62410  0.71840  1.0000
  Al  Al105     1.0  0.37410  0.55530  0.78160  1.0000
  Si  Si106     1.0  0.30530  0.12410  0.21840  1.0000
  Al  Al106     1.0  0.37410  0.05530  0.28160  1.0000
  Si  Si107     1.0  0.80530  0.62410  0.21840  1.0000
  Al  Al107     1.0  0.87410  0.55530  0.28160  1.0000
  Si  Si108     1.0  0.80530  0.12410  0.71840  1.0000
  Al  Al108     1.0  0.87410  0.05530  0.78160  1.0000
  Si  Si109     1.0  0.44470  0.62590  0.21840  1.0000
  Al  Al109     1.0  0.37590  0.69470  0.28160  1.0000
  Si  Si110     1.0  0.44470  0.12590  0.71840  1.0000
  Al  Al110     1.0  0.37590  0.19470  0.78160  1.0000
  Si  Si111     1.0  0.94470  0.62590  0.71840  1.0000
  Al  Al111     1.0  0.87590  0.69470  0.78160  1.0000
  Si  Si112     1.0  0.94470  0.12590  0.21840  1.0000
  Al  Al112     1.0  0.87590  0.19470  0.28160  1.0000
  Si  Si113     1.0  0.03160  0.94470  0.12410  1.0000
  Al  Al113     1.0  0.96840  0.87590  0.05530  1.0000
  Si  Si114     1.0  0.03160  0.44470  0.62410  1.0000
  Al  Al114     1.0  0.96840  0.37590  0.55530  1.0000
  Si  Si115     1.0  0.53160  0.94470  0.62410  1.0000
  Al  Al115     1.0  0.46840  0.87590  0.55530  1.0000
  Si  Si116     1.0  0.53160  0.44470  0.12410  1.0000
  Al  Al116     1.0  0.46840  0.37590  0.05530  1.0000
  Si  Si117     1.0  0.53160  0.80530  0.12590  1.0000
  Al  Al117     1.0  0.46840  0.87410  0.19470  1.0000
  Si  Si118     1.0  0.53160  0.30530  0.62590  1.0000
  Al  Al118     1.0  0.46840  0.37410  0.69470  1.0000
  Si  Si119     1.0  0.03160  0.80530  0.62590  1.0000
  Al  Al119     1.0  0.96840  0.87410  0.69470  1.0000
  Si  Si120     1.0  0.03160  0.30530  0.12590  1.0000
  Al  Al120     1.0  0.96840  0.37410  0.19470  1.0000
  Si  Si121     1.0  0.71840  0.30530  0.62410  1.0000
  Al  Al121     1.0  0.78160  0.37410  0.55530  1.0000
  Si  Si122     1.0  0.71840  0.80530  0.12410  1.0000
  Al  Al122     1.0  0.78160  0.87410  0.05530  1.0000
  Si  Si123     1.0  0.21840  0.30530  0.12410  1.0000
  Al  Al123     1.0  0.28160  0.37410  0.05530  1.0000
  Si  Si124     1.0  0.21840  0.80530  0.62410  1.0000
  Al  Al124     1.0  0.28160  0.87410  0.55530  1.0000
  Si  Si125     1.0  0.21840  0.44470  0.62590  1.0000
  Al  Al125     1.0  0.28160  0.37590  0.69470  1.0000
  Si  Si126     1.0  0.21840  0.94470  0.12590  1.0000
  Al  Al126     1.0  0.28160  0.87590  0.19470  1.0000
  Si  Si127     1.0  0.71840  0.44470  0.12590  1.0000
  Al  Al127     1.0  0.78160  0.37590  0.19470  1.0000
  Si  Si128     1.0  0.71840  0.94470  0.62590  1.0000
  Al  Al128     1.0  0.78160  0.87590  0.69470  1.0000
  Si  Si129     1.0  0.12410  0.03160  0.94470  1.0000
  Al  Al129     1.0  0.05530  0.96840  0.87590  1.0000
  Si  Si130     1.0  0.12410  0.53160  0.44470  1.0000
  Al  Al130     1.0  0.05530  0.46840  0.37590  1.0000
  Si  Si131     1.0  0.62410  0.03160  0.44470  1.0000
  Al  Al131     1.0  0.55530  0.96840  0.37590  1.0000
  Si  Si132     1.0  0.62410  0.53160  0.94470  1.0000
  Al  Al132     1.0  0.55530  0.46840  0.87590  1.0000
  Si  Si133     1.0  0.12590  0.53160  0.80530  1.0000
  Al  Al133     1.0  0.19470  0.46840  0.87410  1.0000
  Si  Si134     1.0  0.12590  0.03160  0.30530  1.0000
  Al  Al134     1.0  0.19470  0.96840  0.37410  1.0000
  Si  Si135     1.0  0.62590  0.53160  0.30530  1.0000
  Al  Al135     1.0  0.69470  0.46840  0.37410  1.0000
  Si  Si136     1.0  0.62590  0.03160  0.80530  1.0000
  Al  Al136     1.0  0.69470  0.96840  0.87410  1.0000
  Si  Si137     1.0  0.62410  0.71840  0.30530  1.0000
  Al  Al137     1.0  0.55530  0.78160  0.37410  1.0000
  Si  Si138     1.0  0.62410  0.21840  0.80530  1.0000
  Al  Al138     1.0  0.55530  0.28160  0.87410  1.0000
  Si  Si139     1.0  0.12410  0.71840  0.80530  1.0000
  Al  Al139     1.0  0.05530  0.78160  0.87410  1.0000
  Si  Si140     1.0  0.12410  0.21840  0.30530  1.0000
  Al  Al140     1.0  0.05530  0.28160  0.37410  1.0000
  Si  Si141     1.0  0.62590  0.21840  0.44470  1.0000
  Al  Al141     1.0  0.69470  0.28160  0.37590  1.0000
  Si  Si142     1.0  0.62590  0.71840  0.94470  1.0000
  Al  Al142     1.0  0.69470  0.78160  0.87590  1.0000
  Si  Si143     1.0  0.12590  0.21840  0.94470  1.0000
  Al  Al143     1.0  0.19470  0.28160  0.87590  1.0000
  Si  Si144     1.0  0.12590  0.71840  0.44470  1.0000
  Al  Al144     1.0  0.19470  0.78160  0.37590  1.0000
  Si  Si145     1.0  0.05530  0.87590  0.96840  1.0000
  Al  Al145     1.0  0.12410  0.94470  0.03160  1.0000
  Si  Si146     1.0  0.05530  0.37590  0.46840  1.0000
  Al  Al146     1.0  0.12410  0.44470  0.53160  1.0000
  Si  Si147     1.0  0.55530  0.87590  0.46840  1.0000
  Al  Al147     1.0  0.62410  0.94470  0.53160  1.0000
  Si  Si148     1.0  0.55530  0.37590  0.96840  1.0000
  Al  Al148     1.0  0.62410  0.44470  0.03160  1.0000
  Si  Si149     1.0  0.19470  0.87410  0.46840  1.0000
  Al  Al149     1.0  0.12590  0.80530  0.53160  1.0000
  Si  Si150     1.0  0.19470  0.37410  0.96840  1.0000
  Al  Al150     1.0  0.12590  0.30530  0.03160  1.0000
  Si  Si151     1.0  0.69470  0.87410  0.96840  1.0000
  Al  Al151     1.0  0.62590  0.80530  0.03160  1.0000
  Si  Si152     1.0  0.69470  0.37410  0.46840  1.0000
  Al  Al152     1.0  0.62590  0.30530  0.53160  1.0000
  Si  Si153     1.0  0.69470  0.37590  0.28160  1.0000
  Al  Al153     1.0  0.62590  0.44470  0.21840  1.0000
  Si  Si154     1.0  0.69470  0.87590  0.78160  1.0000
  Al  Al154     1.0  0.62590  0.94470  0.71840  1.0000
  Si  Si155     1.0  0.19470  0.37590  0.78160  1.0000
  Al  Al155     1.0  0.12590  0.44470  0.71840  1.0000
  Si  Si156     1.0  0.19470  0.87590  0.28160  1.0000
  Al  Al156     1.0  0.12590  0.94470  0.21840  1.0000
  Si  Si157     1.0  0.55530  0.37410  0.78160  1.0000
  Al  Al157     1.0  0.62410  0.30530  0.71840  1.0000
  Si  Si158     1.0  0.55530  0.87410  0.28160  1.0000
  Al  Al158     1.0  0.62410  0.80530  0.21840  1.0000
  Si  Si159     1.0  0.05530  0.37410  0.28160  1.0000
  Al  Al159     1.0  0.12410  0.30530  0.21840  1.0000
  Si  Si160     1.0  0.05530  0.87410  0.78160  1.0000
  Al  Al160     1.0  0.12410  0.80530  0.71840  1.0000
  Si  Si161     1.0  0.96840  0.05530  0.87590  1.0000
  Al  Al161     1.0  0.03160  0.12410  0.94470  1.0000
  Si  Si162     1.0  0.96840  0.55530  0.37590  1.0000
  Al  Al162     1.0  0.03160  0.62410  0.44470  1.0000
  Si  Si163     1.0  0.46840  0.05530  0.37590  1.0000
  Al  Al163     1.0  0.53160  0.12410  0.44470  1.0000
  Si  Si164     1.0  0.46840  0.55530  0.87590  1.0000
  Al  Al164     1.0  0.53160  0.62410  0.94470  1.0000
  Si  Si165     1.0  0.46840  0.19470  0.87410  1.0000
  Al  Al165     1.0  0.53160  0.12590  0.80530  1.0000
  Si  Si166     1.0  0.46840  0.69470  0.37410  1.0000
  Al  Al166     1.0  0.53160  0.62590  0.30530  1.0000
  Si  Si167     1.0  0.96840  0.19470  0.37410  1.0000
  Al  Al167     1.0  0.03160  0.12590  0.30530  1.0000
  Si  Si168     1.0  0.96840  0.69470  0.87410  1.0000
  Al  Al168     1.0  0.03160  0.62590  0.80530  1.0000
  Si  Si169     1.0  0.28160  0.69470  0.37590  1.0000
  Al  Al169     1.0  0.21840  0.62590  0.44470  1.0000
  Si  Si170     1.0  0.28160  0.19470  0.87590  1.0000
  Al  Al170     1.0  0.21840  0.12590  0.94470  1.0000
  Si  Si171     1.0  0.78160  0.69470  0.87590  1.0000
  Al  Al171     1.0  0.71840  0.62590  0.94470  1.0000
  Si  Si172     1.0  0.78160  0.19470  0.37590  1.0000
  Al  Al172     1.0  0.71840  0.12590  0.44470  1.0000
  Si  Si173     1.0  0.78160  0.55530  0.37410  1.0000
  Al  Al173     1.0  0.71840  0.62410  0.30530  1.0000
  Si  Si174     1.0  0.78160  0.05530  0.87410  1.0000
  Al  Al174     1.0  0.71840  0.12410  0.80530  1.0000
  Si  Si175     1.0  0.28160  0.55530  0.87410  1.0000
  Al  Al175     1.0  0.21840  0.62410  0.80530  1.0000
  Si  Si176     1.0  0.28160  0.05530  0.37410  1.0000
  Al  Al176     1.0  0.21840  0.12410  0.30530  1.0000
  Si  Si177     1.0  0.87590  0.96840  0.05530  1.0000
  Al  Al177     1.0  0.94470  0.03160  0.12410  1.0000
  Si  Si178     1.0  0.87590  0.46840  0.55530  1.0000
  Al  Al178     1.0  0.94470  0.53160  0.62410  1.0000
  Si  Si179     1.0  0.37590  0.96840  0.55530  1.0000
  Al  Al179     1.0  0.44470  0.03160  0.62410  1.0000
  Si  Si180     1.0  0.37590  0.46840  0.05530  1.0000
  Al  Al180     1.0  0.44470  0.53160  0.12410  1.0000
  Si  Si181     1.0  0.87410  0.46840  0.19470  1.0000
  Al  Al181     1.0  0.80530  0.53160  0.12590  1.0000
  Si  Si182     1.0  0.87410  0.96840  0.69470  1.0000
  Al  Al182     1.0  0.80530  0.03160  0.62590  1.0000
  Si  Si183     1.0  0.37410  0.46840  0.69470  1.0000
  Al  Al183     1.0  0.30530  0.53160  0.62590  1.0000
  Si  Si184     1.0  0.37410  0.96840  0.19470  1.0000
  Al  Al184     1.0  0.30530  0.03160  0.12590  1.0000
  Si  Si185     1.0  0.37590  0.28160  0.69470  1.0000
  Al  Al185     1.0  0.44470  0.21840  0.62590  1.0000
  Si  Si186     1.0  0.37590  0.78160  0.19470  1.0000
  Al  Al186     1.0  0.44470  0.71840  0.12590  1.0000
  Si  Si187     1.0  0.87590  0.28160  0.19470  1.0000
  Al  Al187     1.0  0.94470  0.21840  0.12590  1.0000
  Si  Si188     1.0  0.87590  0.78160  0.69470  1.0000
  Al  Al188     1.0  0.94470  0.71840  0.62590  1.0000
  Si  Si189     1.0  0.37410  0.78160  0.55530  1.0000
  Al  Al189     1.0  0.30530  0.71840  0.62410  1.0000
  Si  Si190     1.0  0.37410  0.28160  0.05530  1.0000
  Al  Al190     1.0  0.30530  0.21840  0.12410  1.0000
  Si  Si191     1.0  0.87410  0.78160  0.05530  1.0000
  Al  Al191     1.0  0.80530  0.71840  0.12410  1.0000
  Si  Si192     1.0  0.87410  0.28160  0.55530  1.0000
  Al  Al192     1.0  0.80530  0.21840  0.62410  1.0000
