# DDEC6 charges by PACMAN v1.1 (https://github.com/mtap-research/PACMAN-charge/)
data_JUQDIL_ASR_pacman
_chemical_formula_sum              "Si96 Al96 O384 Ni32"
_cell_length_a       24.8347
_cell_length_b       24.8347
_cell_length_c       24.8347
_cell_angle_alpha    90
_cell_angle_beta     90
_cell_angle_gamma    90

_symmetry_space_group_name_H-M    "P 1"
_symmetry_Int_Tables_number       1

loop_
  _symmetry_equiv_pos_as_xyz
  'x, y, z'

loop_
  _atom_site_type_symbol
  _atom_site_label
  _atom_site_symmetry_multiplicity
  _atom_site_fract_x
  _atom_site_fract_y
  _atom_site_fract_z
  _atom_site_occupancy
 _atom_site_charge
Si  Si1       1.0  0.94590  0.12340  0.03440  1.0000 1.7244665394
Al  Al1       1.0  0.87660  0.05410  0.96560  1.0000 1.7942054043
Si  Si2       1.0  0.94590  0.62340  0.53440  1.0000 1.7279007871
Al  Al2       1.0  0.87660  0.55410  0.46560  1.0000 1.7960336163
Si  Si3       1.0  0.44590  0.12340  0.53440  1.0000 1.7279007871
Al  Al3       1.0  0.37660  0.05410  0.46560  1.0000 1.7960336163
Si  Si4       1.0  0.44590  0.62340  0.03440  1.0000 1.7279007871
Al  Al4       1.0  0.37660  0.55410  0.96560  1.0000 1.7960336163
Si  Si5       1.0  0.80410  0.12660  0.53440  1.0000 1.7279007871
Al  Al5       1.0  0.87340  0.19590  0.46560  1.0000 1.7960336163
Si  Si6       1.0  0.80410  0.62660  0.03440  1.0000 1.7279007871
Al  Al6       1.0  0.87340  0.69590  0.96560  1.0000 1.7960336163
Si  Si7       1.0  0.30410  0.12660  0.03440  1.0000 1.7279007871
Al  Al7       1.0  0.37340  0.19590  0.96560  1.0000 1.7960336163
Si  Si8       1.0  0.30410  0.62660  0.53440  1.0000 1.7279007871
Al  Al8       1.0  0.37340  0.69590  0.46560  1.0000 1.7960336163
Si  Si9       1.0  0.30410  0.62340  0.71560  1.0000 1.7279007871
Al  Al9       1.0  0.37340  0.55410  0.78440  1.0000 1.7960336163
Si  Si10      1.0  0.30410  0.12340  0.21560  1.0000 1.7279007871
Al  Al10      1.0  0.37340  0.05410  0.28440  1.0000 1.7960336163
Si  Si11      1.0  0.80410  0.62340  0.21560  1.0000 1.7279007871
Al  Al11      1.0  0.87340  0.55410  0.28440  1.0000 1.7960336163
Si  Si12      1.0  0.80410  0.12340  0.71560  1.0000 1.7279007871
Al  Al12      1.0  0.87340  0.05410  0.78440  1.0000 1.7960336163
Si  Si13      1.0  0.44590  0.62660  0.21560  1.0000 1.7279007871
Al  Al13      1.0  0.37660  0.69590  0.28440  1.0000 1.7960336163
Si  Si14      1.0  0.44590  0.12660  0.71560  1.0000 1.7279007871
Al  Al14      1.0  0.37660  0.19590  0.78440  1.0000 1.7960336163
Si  Si15      1.0  0.94590  0.62660  0.71560  1.0000 1.7279007871
Al  Al15      1.0  0.87660  0.69590  0.78440  1.0000 1.7960336163
Si  Si16      1.0  0.94590  0.12660  0.21560  1.0000 1.7279007871
Al  Al16      1.0  0.87660  0.19590  0.28440  1.0000 1.7960336163
Si  Si17      1.0  0.03440  0.94590  0.12340  1.0000 1.7279007871
Al  Al17      1.0  0.96560  0.87660  0.05410  1.0000 1.7942054043
Si  Si18      1.0  0.03440  0.44590  0.62340  1.0000 1.7279007871
Al  Al18      1.0  0.96560  0.37660  0.55410  1.0000 1.7960336163
Si  Si19      1.0  0.53440  0.94590  0.62340  1.0000 1.7279007871
Al  Al19      1.0  0.46560  0.87660  0.55410  1.0000 1.7960336163
Si  Si20      1.0  0.53440  0.44590  0.12340  1.0000 1.7279007871
Al  Al20      1.0  0.46560  0.37660  0.05410  1.0000 1.7960336163
Si  Si21      1.0  0.53440  0.80410  0.12660  1.0000 1.7279007871
Al  Al21      1.0  0.46560  0.87340  0.19590  1.0000 1.7960336163
Si  Si22      1.0  0.53440  0.30410  0.62660  1.0000 1.7279007871
Al  Al22      1.0  0.46560  0.37340  0.69590  1.0000 1.7960336163
Si  Si23      1.0  0.03440  0.80410  0.62660  1.0000 1.7279007871
Al  Al23      1.0  0.96560  0.87340  0.69590  1.0000 1.7960336163
Si  Si24      1.0  0.03440  0.30410  0.12660  1.0000 1.7279007871
Al  Al24      1.0  0.96560  0.37340  0.19590  1.0000 1.7960336163
Si  Si25      1.0  0.71560  0.30410  0.62340  1.0000 1.7279007871
Al  Al25      1.0  0.78440  0.37340  0.55410  1.0000 1.7960336163
Si  Si26      1.0  0.71560  0.80410  0.12340  1.0000 1.7279007871
Al  Al26      1.0  0.78440  0.87340  0.05410  1.0000 1.7960336163
Si  Si27      1.0  0.21560  0.30410  0.12340  1.0000 1.7279007871
Al  Al27      1.0  0.28440  0.37340  0.05410  1.0000 1.7960336163
Si  Si28      1.0  0.21560  0.80410  0.62340  1.0000 1.7279007871
Al  Al28      1.0  0.28440  0.87340  0.55410  1.0000 1.7960336163
Si  Si29      1.0  0.21560  0.44590  0.62660  1.0000 1.7279007871
Al  Al29      1.0  0.28440  0.37660  0.69590  1.0000 1.7960336163
Si  Si30      1.0  0.21560  0.94590  0.12660  1.0000 1.7279007871
Al  Al30      1.0  0.28440  0.87660  0.19590  1.0000 1.7960336163
Si  Si31      1.0  0.71560  0.44590  0.12660  1.0000 1.7279007871
Al  Al31      1.0  0.78440  0.37660  0.19590  1.0000 1.7960336163
Si  Si32      1.0  0.71560  0.94590  0.62660  1.0000 1.7279007871
Al  Al32      1.0  0.78440  0.87660  0.69590  1.0000 1.7960336163
Si  Si33      1.0  0.12340  0.03440  0.94590  1.0000 1.7279007871
Al  Al33      1.0  0.05410  0.96560  0.87660  1.0000 1.7960336163
Si  Si34      1.0  0.12340  0.53440  0.44590  1.0000 1.7279007871
Al  Al34      1.0  0.05410  0.46560  0.37660  1.0000 1.7960336163
Si  Si35      1.0  0.62340  0.03440  0.44590  1.0000 1.7279007871
Al  Al35      1.0  0.55410  0.96560  0.37660  1.0000 1.7960336163
Si  Si36      1.0  0.62340  0.53440  0.94590  1.0000 1.7279007871
Al  Al36      1.0  0.55410  0.46560  0.87660  1.0000 1.7960336163
Si  Si37      1.0  0.12660  0.53440  0.80410  1.0000 1.7279007871
Al  Al37      1.0  0.19590  0.46560  0.87340  1.0000 1.7960336163
Si  Si38      1.0  0.12660  0.03440  0.30410  1.0000 1.7279007871
Al  Al38      1.0  0.19590  0.96560  0.37340  1.0000 1.7960336163
Si  Si39      1.0  0.62660  0.53440  0.30410  1.0000 1.7279007871
Al  Al39      1.0  0.69590  0.46560  0.37340  1.0000 1.7960336163
Si  Si40      1.0  0.62660  0.03440  0.80410  1.0000 1.7279007871
Al  Al40      1.0  0.69590  0.96560  0.87340  1.0000 1.7960336163
Si  Si41      1.0  0.62340  0.71560  0.30410  1.0000 1.7279007871
Al  Al41      1.0  0.55410  0.78440  0.37340  1.0000 1.7960336163
Si  Si42      1.0  0.62340  0.21560  0.80410  1.0000 1.7279007871
Al  Al42      1.0  0.55410  0.28440  0.87340  1.0000 1.7960336163
Si  Si43      1.0  0.12340  0.71560  0.80410  1.0000 1.7279007871
Al  Al43      1.0  0.05410  0.78440  0.87340  1.0000 1.7960336163
Si  Si44      1.0  0.12340  0.21560  0.30410  1.0000 1.7279007871
Al  Al44      1.0  0.05410  0.28440  0.37340  1.0000 1.7960336163
Si  Si45      1.0  0.62660  0.21560  0.44590  1.0000 1.7279007871
Al  Al45      1.0  0.69590  0.28440  0.37660  1.0000 1.7960336163
Si  Si46      1.0  0.62660  0.71560  0.94590  1.0000 1.7279007871
Al  Al46      1.0  0.69590  0.78440  0.87660  1.0000 1.7960336163
Si  Si47      1.0  0.12660  0.21560  0.94590  1.0000 1.7279007871
Al  Al47      1.0  0.19590  0.28440  0.87660  1.0000 1.7960336163
Si  Si48      1.0  0.12660  0.71560  0.44590  1.0000 1.7279007871
Al  Al48      1.0  0.19590  0.78440  0.37660  1.0000 1.7960336163
Si  Si49      1.0  0.05410  0.87660  0.96560  1.0000 1.7279007871
Al  Al49      1.0  0.12340  0.94590  0.03440  1.0000 1.7960336163
Si  Si50      1.0  0.05410  0.37660  0.46560  1.0000 1.7279007871
Al  Al50      1.0  0.12340  0.44590  0.53440  1.0000 1.7960336163
Si  Si51      1.0  0.55410  0.87660  0.46560  1.0000 1.7279007871
Al  Al51      1.0  0.62340  0.94590  0.53440  1.0000 1.7960336163
Si  Si52      1.0  0.55410  0.37660  0.96560  1.0000 1.7279007871
Al  Al52      1.0  0.62340  0.44590  0.03440  1.0000 1.7960336163
Si  Si53      1.0  0.19590  0.87340  0.46560  1.0000 1.7279007871
Al  Al53      1.0  0.12660  0.80410  0.53440  1.0000 1.7960336163
Si  Si54      1.0  0.19590  0.37340  0.96560  1.0000 1.7279007871
Al  Al54      1.0  0.12660  0.30410  0.03440  1.0000 1.7960336163
Si  Si55      1.0  0.69590  0.87340  0.96560  1.0000 1.7279007871
Al  Al55      1.0  0.62660  0.80410  0.03440  1.0000 1.7960336163
Si  Si56      1.0  0.69590  0.37340  0.46560  1.0000 1.7279007871
Al  Al56      1.0  0.62660  0.30410  0.53440  1.0000 1.7960336163
Si  Si57      1.0  0.69590  0.37660  0.28440  1.0000 1.7279007871
Al  Al57      1.0  0.62660  0.44590  0.21560  1.0000 1.7960336163
Si  Si58      1.0  0.69590  0.87660  0.78440  1.0000 1.7279007871
Al  Al58      1.0  0.62660  0.94590  0.71560  1.0000 1.7960336163
Si  Si59      1.0  0.19590  0.37660  0.78440  1.0000 1.7279007871
Al  Al59      1.0  0.12660  0.44590  0.71560  1.0000 1.7960336163
Si  Si60      1.0  0.19590  0.87660  0.28440  1.0000 1.7279007871
Al  Al60      1.0  0.12660  0.94590  0.21560  1.0000 1.7960336163
Si  Si61      1.0  0.55410  0.37340  0.78440  1.0000 1.7279007871
Al  Al61      1.0  0.62340  0.30410  0.71560  1.0000 1.7960336163
Si  Si62      1.0  0.55410  0.87340  0.28440  1.0000 1.7279007871
Al  Al62      1.0  0.62340  0.80410  0.21560  1.0000 1.7960336163
Si  Si63      1.0  0.05410  0.37340  0.28440  1.0000 1.7279007871
Al  Al63      1.0  0.12340  0.30410  0.21560  1.0000 1.7960336163
Si  Si64      1.0  0.05410  0.87340  0.78440  1.0000 1.7279007871
Al  Al64      1.0  0.12340  0.80410  0.71560  1.0000 1.7960336163
Si  Si65      1.0  0.96560  0.05410  0.87660  1.0000 1.7279007871
Al  Al65      1.0  0.03440  0.12340  0.94590  1.0000 1.7960336163
Si  Si66      1.0  0.96560  0.55410  0.37660  1.0000 1.7279007871
Al  Al66      1.0  0.03440  0.62340  0.44590  1.0000 1.7960336163
Si  Si67      1.0  0.46560  0.05410  0.37660  1.0000 1.7279007871
Al  Al67      1.0  0.53440  0.12340  0.44590  1.0000 1.7960336163
Si  Si68      1.0  0.46560  0.55410  0.87660  1.0000 1.7279007871
Al  Al68      1.0  0.53440  0.62340  0.94590  1.0000 1.7960336163
Si  Si69      1.0  0.46560  0.19590  0.87340  1.0000 1.7279007871
Al  Al69      1.0  0.53440  0.12660  0.80410  1.0000 1.7960336163
Si  Si70      1.0  0.46560  0.69590  0.37340  1.0000 1.7279007871
Al  Al70      1.0  0.53440  0.62660  0.30410  1.0000 1.7960336163
Si  Si71      1.0  0.96560  0.19590  0.37340  1.0000 1.7279007871
Al  Al71      1.0  0.03440  0.12660  0.30410  1.0000 1.7960336163
Si  Si72      1.0  0.96560  0.69590  0.87340  1.0000 1.7279007871
Al  Al72      1.0  0.03440  0.62660  0.80410  1.0000 1.7960336163
Si  Si73      1.0  0.28440  0.69590  0.37660  1.0000 1.7279007871
Al  Al73      1.0  0.21560  0.62660  0.44590  1.0000 1.7960336163
Si  Si74      1.0  0.28440  0.19590  0.87660  1.0000 1.7279007871
Al  Al74      1.0  0.21560  0.12660  0.94590  1.0000 1.7960336163
Si  Si75      1.0  0.78440  0.69590  0.87660  1.0000 1.7279007871
Al  Al75      1.0  0.71560  0.62660  0.94590  1.0000 1.7960336163
Si  Si76      1.0  0.78440  0.19590  0.37660  1.0000 1.7279007871
Al  Al76      1.0  0.71560  0.12660  0.44590  1.0000 1.7960336163
Si  Si77      1.0  0.78440  0.55410  0.37340  1.0000 1.7279007871
Al  Al77      1.0  0.71560  0.62340  0.30410  1.0000 1.7960336163
Si  Si78      1.0  0.78440  0.05410  0.87340  1.0000 1.7279007871
Al  Al78      1.0  0.71560  0.12340  0.80410  1.0000 1.7960336163
Si  Si79      1.0  0.28440  0.55410  0.87340  1.0000 1.7279007871
Al  Al79      1.0  0.21560  0.62340  0.80410  1.0000 1.7960336163
Si  Si80      1.0  0.28440  0.05410  0.37340  1.0000 1.7279007871
Al  Al80      1.0  0.21560  0.12340  0.30410  1.0000 1.7960336163
Si  Si81      1.0  0.87660  0.96560  0.05410  1.0000 1.7279007871
Al  Al81      1.0  0.94590  0.03440  0.12340  1.0000 1.7942054043
Si  Si82      1.0  0.87660  0.46560  0.55410  1.0000 1.7279007871
Al  Al82      1.0  0.94590  0.53440  0.62340  1.0000 1.7942054043
Si  Si83      1.0  0.37660  0.96560  0.55410  1.0000 1.7279007871
Al  Al83      1.0  0.44590  0.03440  0.62340  1.0000 1.7960336163
Si  Si84      1.0  0.37660  0.46560  0.05410  1.0000 1.7279007871
Al  Al84      1.0  0.44590  0.53440  0.12340  1.0000 1.7960336163
Si  Si85      1.0  0.87340  0.46560  0.19590  1.0000 1.7279007871
Al  Al85      1.0  0.80410  0.53440  0.12660  1.0000 1.7960336163
Si  Si86      1.0  0.87340  0.96560  0.69590  1.0000 1.7279007871
Al  Al86      1.0  0.80410  0.03440  0.62660  1.0000 1.7960336163
Si  Si87      1.0  0.37340  0.46560  0.69590  1.0000 1.7279007871
Al  Al87      1.0  0.30410  0.53440  0.62660  1.0000 1.7960336163
Si  Si88      1.0  0.37340  0.96560  0.19590  1.0000 1.7279007871
Al  Al88      1.0  0.30410  0.03440  0.12660  1.0000 1.7960336163
Si  Si89      1.0  0.37660  0.28440  0.69590  1.0000 1.7279007871
Al  Al89      1.0  0.44590  0.21560  0.62660  1.0000 1.7960336163
Si  Si90      1.0  0.37660  0.78440  0.19590  1.0000 1.7279007871
Al  Al90      1.0  0.44590  0.71560  0.12660  1.0000 1.7960336163
Si  Si91      1.0  0.87660  0.28440  0.19590  1.0000 1.7279007871
Al  Al91      1.0  0.94590  0.21560  0.12660  1.0000 1.7942054043
Si  Si92      1.0  0.87660  0.78440  0.69590  1.0000 1.7279007871
Al  Al92      1.0  0.94590  0.71560  0.62660  1.0000 1.7960336163
Si  Si93      1.0  0.37340  0.78440  0.55410  1.0000 1.7279007871
Al  Al93      1.0  0.30410  0.71560  0.62340  1.0000 1.7960336163
Si  Si94      1.0  0.37340  0.28440  0.05410  1.0000 1.7279007871
Al  Al94      1.0  0.30410  0.21560  0.12340  1.0000 1.7960336163
Si  Si95      1.0  0.87340  0.78440  0.05410  1.0000 1.7279007871
Al  Al95      1.0  0.80410  0.71560  0.12340  1.0000 1.7960336163
Si  Si96      1.0  0.87340  0.28440  0.55410  1.0000 1.7279007871
Al  Al96      1.0  0.80410  0.21560  0.62340  1.0000 1.7960336163
O   O1        1.0  0.89272  0.10728  0.00000  1.0000 -0.9176700374
O   O2        1.0  0.89272  0.60728  0.50000  1.0000 -0.9176700374
O   O3        1.0  0.39272  0.10728  0.50000  1.0000 -0.9176700374
O   O4        1.0  0.39272  0.60728  0.00000  1.0000 -0.9176700374
O   O5        1.0  0.85728  0.14272  0.50000  1.0000 -0.9176700374
O   O6        1.0  0.85728  0.64272  0.00000  1.0000 -0.9176700374
O   O7        1.0  0.35728  0.14272  0.00000  1.0000 -0.9176700374
O   O8        1.0  0.35728  0.64272  0.50000  1.0000 -0.9176700374
O   O9        1.0  0.35728  0.60728  0.75000  1.0000 -0.9176700374
O   O10       1.0  0.35728  0.10728  0.25000  1.0000 -0.9176700374
O   O11       1.0  0.85728  0.60728  0.25000  1.0000 -0.9176700374
O   O12       1.0  0.85728  0.10728  0.75000  1.0000 -0.9176700374
O   O13       1.0  0.39272  0.64272  0.25000  1.0000 -0.9176700374
O   O14       1.0  0.39272  0.14272  0.75000  1.0000 -0.9176700374
O   O15       1.0  0.89272  0.64272  0.75000  1.0000 -0.9176700374
O   O16       1.0  0.89272  0.14272  0.25000  1.0000 -0.9176700374
O   O17       1.0  0.00000  0.89272  0.10728  1.0000 -0.9176700374
O   O18       1.0  0.00000  0.39272  0.60728  1.0000 -0.9176700374
O   O19       1.0  0.50000  0.89272  0.60728  1.0000 -0.9176700374
O   O20       1.0  0.50000  0.39272  0.10728  1.0000 -0.9176700374
O   O21       1.0  0.50000  0.85728  0.14272  1.0000 -0.9176700374
O   O22       1.0  0.50000  0.35728  0.64272  1.0000 -0.9176700374
O   O23       1.0  0.00000  0.85728  0.64272  1.0000 -0.9176700374
O   O24       1.0  0.00000  0.35728  0.14272  1.0000 -0.9176700374
O   O25       1.0  0.75000  0.35728  0.60728  1.0000 -0.9176700374
O   O26       1.0  0.75000  0.85728  0.10728  1.0000 -0.9176700374
O   O27       1.0  0.25000  0.35728  0.10728  1.0000 -0.9176700374
O   O28       1.0  0.25000  0.85728  0.60728  1.0000 -0.9176700374
O   O29       1.0  0.25000  0.39272  0.64272  1.0000 -0.9176700374
O   O30       1.0  0.25000  0.89272  0.14272  1.0000 -0.9176700374
O   O31       1.0  0.75000  0.39272  0.14272  1.0000 -0.9176700374
O   O32       1.0  0.75000  0.89272  0.64272  1.0000 -0.9176700374
O   O33       1.0  0.10728  0.00000  0.89272  1.0000 -0.9176700374
O   O34       1.0  0.10728  0.50000  0.39272  1.0000 -0.9176700374
O   O35       1.0  0.60728  0.00000  0.39272  1.0000 -0.9176700374
O   O36       1.0  0.60728  0.50000  0.89272  1.0000 -0.9176700374
O   O37       1.0  0.14272  0.50000  0.85728  1.0000 -0.9176700374
O   O38       1.0  0.14272  0.00000  0.35728  1.0000 -0.9176700374
O   O39       1.0  0.64272  0.50000  0.35728  1.0000 -0.9176700374
O   O40       1.0  0.64272  0.00000  0.85728  1.0000 -0.9176700374
O   O41       1.0  0.60728  0.75000  0.35728  1.0000 -0.9176700374
O   O42       1.0  0.60728  0.25000  0.85728  1.0000 -0.9176700374
O   O43       1.0  0.10728  0.75000  0.85728  1.0000 -0.9176700374
O   O44       1.0  0.10728  0.25000  0.35728  1.0000 -0.9176700374
O   O45       1.0  0.64272  0.25000  0.39272  1.0000 -0.9176700374
O   O46       1.0  0.64272  0.75000  0.89272  1.0000 -0.9176700374
O   O47       1.0  0.14272  0.25000  0.89272  1.0000 -0.9176700374
O   O48       1.0  0.14272  0.75000  0.39272  1.0000 -0.9176700374
O   O49       1.0  0.10728  0.89272  0.00000  1.0000 -0.9176700374
O   O50       1.0  0.10728  0.39272  0.50000  1.0000 -0.9176700374
O   O51       1.0  0.60728  0.89272  0.50000  1.0000 -0.9176700374
O   O52       1.0  0.60728  0.39272  0.00000  1.0000 -0.9176700374
O   O53       1.0  0.14272  0.85728  0.50000  1.0000 -0.9176700374
O   O54       1.0  0.14272  0.35728  0.00000  1.0000 -0.9176700374
O   O55       1.0  0.64272  0.85728  0.00000  1.0000 -0.9176700374
O   O56       1.0  0.64272  0.35728  0.50000  1.0000 -0.9176700374
O   O57       1.0  0.64272  0.39272  0.25000  1.0000 -0.9176700374
O   O58       1.0  0.64272  0.89272  0.75000  1.0000 -0.9176700374
O   O59       1.0  0.14272  0.39272  0.75000  1.0000 -0.9176700374
O   O60       1.0  0.14272  0.89272  0.25000  1.0000 -0.9176700374
O   O61       1.0  0.60728  0.35728  0.75000  1.0000 -0.9176700374
O   O62       1.0  0.60728  0.85728  0.25000  1.0000 -0.9176700374
O   O63       1.0  0.10728  0.35728  0.25000  1.0000 -0.9176700374
O   O64       1.0  0.10728  0.85728  0.75000  1.0000 -0.9176700374
O   O65       1.0  0.00000  0.10728  0.89272  1.0000 -0.9176700374
O   O66       1.0  0.00000  0.60728  0.39272  1.0000 -0.9176700374
O   O67       1.0  0.50000  0.10728  0.39272  1.0000 -0.9176700374
O   O68       1.0  0.50000  0.60728  0.89272  1.0000 -0.9176700374
O   O69       1.0  0.50000  0.14272  0.85728  1.0000 -0.9176700374
O   O70       1.0  0.50000  0.64272  0.35728  1.0000 -0.9176700374
O   O71       1.0  0.00000  0.14272  0.35728  1.0000 -0.9176700374
O   O72       1.0  0.00000  0.64272  0.85728  1.0000 -0.9176700374
O   O73       1.0  0.25000  0.64272  0.39272  1.0000 -0.9176700374
O   O74       1.0  0.25000  0.14272  0.89272  1.0000 -0.9176700374
O   O75       1.0  0.75000  0.64272  0.89272  1.0000 -0.9176700374
O   O76       1.0  0.75000  0.14272  0.39272  1.0000 -0.9176700374
O   O77       1.0  0.75000  0.60728  0.35728  1.0000 -0.9176700374
O   O78       1.0  0.75000  0.10728  0.85728  1.0000 -0.9176700374
O   O79       1.0  0.25000  0.60728  0.85728  1.0000 -0.9176700374
O   O80       1.0  0.25000  0.10728  0.35728  1.0000 -0.9176700374
O   O81       1.0  0.89272  0.00000  0.10728  1.0000 -0.9176700374
O   O82       1.0  0.89272  0.50000  0.60728  1.0000 -0.9176700374
O   O83       1.0  0.39272  0.00000  0.60728  1.0000 -0.9176700374
O   O84       1.0  0.39272  0.50000  0.10728  1.0000 -0.9176700374
O   O85       1.0  0.85728  0.50000  0.14272  1.0000 -0.9176700374
O   O86       1.0  0.85728  0.00000  0.64272  1.0000 -0.9176700374
O   O87       1.0  0.35728  0.50000  0.64272  1.0000 -0.9176700374
O   O88       1.0  0.35728  0.00000  0.14272  1.0000 -0.9176700374
O   O89       1.0  0.39272  0.25000  0.64272  1.0000 -0.9176700374
O   O90       1.0  0.39272  0.75000  0.14272  1.0000 -0.9176700374
O   O91       1.0  0.89272  0.25000  0.14272  1.0000 -0.9176700374
O   O92       1.0  0.89272  0.75000  0.64272  1.0000 -0.9176700374
O   O93       1.0  0.35728  0.75000  0.60728  1.0000 -0.9176700374
O   O94       1.0  0.35728  0.25000  0.10728  1.0000 -0.9176700374
O   O95       1.0  0.85728  0.75000  0.10728  1.0000 -0.9176700374
O   O96       1.0  0.85728  0.25000  0.60728  1.0000 -0.9176700374
O   O97       1.0  0.96960  0.07375  0.07375  1.0000 -0.9459526058
O   O98       1.0  0.96960  0.57375  0.57375  1.0000 -0.9459526058
O   O99       1.0  0.46960  0.07375  0.57375  1.0000 -0.9459526058
O   O100      1.0  0.46960  0.57375  0.07375  1.0000 -0.9459526058
O   O101      1.0  0.78040  0.17625  0.57375  1.0000 -0.9399064261
O   O102      1.0  0.78040  0.67625  0.07375  1.0000 -0.9399064261
O   O103      1.0  0.28040  0.57375  0.67625  1.0000 -0.9459526058
O   O104      1.0  0.28040  0.07375  0.17625  1.0000 -0.9459526058
O   O105      1.0  0.78040  0.07375  0.67625  1.0000 -0.9399064261
O   O106      1.0  0.46960  0.67625  0.17625  1.0000 -0.9459526058
O   O107      1.0  0.96960  0.67625  0.67625  1.0000 -0.9459526058
O   O108      1.0  0.07375  0.96960  0.07375  1.0000 -0.9399064261
O   O109      1.0  0.07375  0.46960  0.57375  1.0000 -0.9399064261
O   O110      1.0  0.57375  0.96960  0.57375  1.0000 -0.9459526058
O   O111      1.0  0.57375  0.46960  0.07375  1.0000 -0.9459526058
O   O112      1.0  0.57375  0.78040  0.17625  1.0000 -0.9399064261
O   O113      1.0  0.07375  0.78040  0.67625  1.0000 -0.9399064261
O   O114      1.0  0.67625  0.28040  0.57375  1.0000 -0.9459526058
O   O115      1.0  0.67625  0.78040  0.07375  1.0000 -0.9399064261
O   O116      1.0  0.17625  0.46960  0.67625  1.0000 -0.9459526058
O   O117      1.0  0.17625  0.96960  0.17625  1.0000 -0.9459526058
O   O118      1.0  0.67625  0.96960  0.67625  1.0000 -0.9459526058
O   O119      1.0  0.07375  0.07375  0.96960  1.0000 -0.9459526058
O   O120      1.0  0.07375  0.57375  0.46960  1.0000 -0.9399064261
O   O121      1.0  0.57375  0.07375  0.46960  1.0000 -0.9459526058
O   O122      1.0  0.57375  0.57375  0.96960  1.0000 -0.9459526058
O   O123      1.0  0.17625  0.57375  0.78040  1.0000 -0.9399064261
O   O124      1.0  0.17625  0.07375  0.28040  1.0000 -0.9459526058
O   O125      1.0  0.67625  0.07375  0.78040  1.0000 -0.9399064261
O   O126      1.0  0.57375  0.67625  0.28040  1.0000 -0.9459526058
O   O127      1.0  0.07375  0.67625  0.78040  1.0000 -0.9399064261
O   O128      1.0  0.67625  0.17625  0.46960  1.0000 -0.9459526058
O   O129      1.0  0.67625  0.67625  0.96960  1.0000 -0.9459526058
O   O130      1.0  0.82375  0.21960  0.42625  1.0000 -0.9399064261
O   O131      1.0  0.82375  0.71960  0.92625  1.0000 -0.9399064261
O   O132      1.0  0.92625  0.03040  0.92625  1.0000 -0.9459526058
O   O133      1.0  0.92625  0.53040  0.42625  1.0000 -0.9399064261
O   O134      1.0  0.42625  0.03040  0.42625  1.0000 -0.9399064261
O   O135      1.0  0.42625  0.53040  0.92625  1.0000 -0.9399064261
O   O136      1.0  0.32375  0.53040  0.82375  1.0000 -0.9399064261
O   O137      1.0  0.32375  0.03040  0.32375  1.0000 -0.9459526058
O   O138      1.0  0.82375  0.03040  0.82375  1.0000 -0.9399064261
O   O139      1.0  0.42625  0.71960  0.32375  1.0000 -0.9399064261
O   O140      1.0  0.92625  0.71960  0.82375  1.0000 -0.9399064261
O   O141      1.0  0.71960  0.32375  0.42625  1.0000 -0.9399064261
O   O142      1.0  0.71960  0.82375  0.92625  1.0000 -0.9399064261
O   O143      1.0  0.53040  0.82375  0.32375  1.0000 -0.9399064261
O   O144      1.0  0.03040  0.82375  0.82375  1.0000 -0.9399064261
O   O145      1.0  0.03040  0.92625  0.92625  1.0000 -0.9399064261
O   O146      1.0  0.03040  0.42625  0.42625  1.0000 -0.9399064261
O   O147      1.0  0.53040  0.92625  0.42625  1.0000 -0.9399064261
O   O148      1.0  0.53040  0.42625  0.92625  1.0000 -0.9399064261
O   O149      1.0  0.21960  0.42625  0.82375  1.0000 -0.9399064261
O   O150      1.0  0.21960  0.92625  0.32375  1.0000 -0.9459526058
O   O151      1.0  0.71960  0.92625  0.82375  1.0000 -0.9399064261
O   O152      1.0  0.82375  0.32375  0.53040  1.0000 -0.9399064261
O   O153      1.0  0.82375  0.82375  0.03040  1.0000 -0.9399064261
O   O154      1.0  0.32375  0.42625  0.71960  1.0000 -0.9399064261
O   O155      1.0  0.32375  0.92625  0.21960  1.0000 -0.9459526058
O   O156      1.0  0.82375  0.92625  0.71960  1.0000 -0.9399064261
O   O157      1.0  0.42625  0.82375  0.21960  1.0000 -0.9399064261
O   O158      1.0  0.92625  0.82375  0.71960  1.0000 -0.9399064261
O   O159      1.0  0.92625  0.92625  0.03040  1.0000 -0.9459526058
O   O160      1.0  0.92625  0.42625  0.53040  1.0000 -0.9399064261
O   O161      1.0  0.42625  0.92625  0.53040  1.0000 -0.9399064261
O   O162      1.0  0.42625  0.42625  0.03040  1.0000 -0.9399064261
O   O163      1.0  0.21960  0.82375  0.42625  1.0000 -0.9399064261
O   O164      1.0  0.21960  0.32375  0.92625  1.0000 -0.9459526058
O   O165      1.0  0.71960  0.42625  0.32375  1.0000 -0.9399064261
O   O166      1.0  0.53040  0.32375  0.82375  1.0000 -0.9399064261
O   O167      1.0  0.03040  0.32375  0.32375  1.0000 -0.9399064261
O   O168      1.0  0.42625  0.21960  0.82375  1.0000 -0.9399064261
O   O169      1.0  0.92625  0.21960  0.32375  1.0000 -0.9459526058
O   O170      1.0  0.32375  0.71960  0.42625  1.0000 -0.9399064261
O   O171      1.0  0.32375  0.21960  0.92625  1.0000 -0.9459526058
O   O172      1.0  0.82375  0.53040  0.32375  1.0000 -0.9399064261
O   O173      1.0  0.82375  0.42625  0.21960  1.0000 -0.9399064261
O   O174      1.0  0.42625  0.32375  0.71960  1.0000 -0.9399064261
O   O175      1.0  0.92625  0.32375  0.21960  1.0000 -0.9459526058
O   O176      1.0  0.32375  0.82375  0.53040  1.0000 -0.9399064261
O   O177      1.0  0.32375  0.32375  0.03040  1.0000 -0.9459526058
O   O178      1.0  0.17625  0.78040  0.57375  1.0000 -0.9399064261
O   O179      1.0  0.17625  0.28040  0.07375  1.0000 -0.9459526058
O   O180      1.0  0.67625  0.46960  0.17625  1.0000 -0.9459526058
O   O181      1.0  0.57375  0.28040  0.67625  1.0000 -0.9459526058
O   O182      1.0  0.07375  0.28040  0.17625  1.0000 -0.9459526058
O   O183      1.0  0.28040  0.67625  0.57375  1.0000 -0.9459526058
O   O184      1.0  0.28040  0.17625  0.07375  1.0000 -0.9459526058
O   O185      1.0  0.46960  0.17625  0.67625  1.0000 -0.9459526058
O   O186      1.0  0.96960  0.17625  0.17625  1.0000 -0.9459526058
O   O187      1.0  0.78040  0.57375  0.17625  1.0000 -0.9399064261
O   O188      1.0  0.17625  0.67625  0.46960  1.0000 -0.9399064261
O   O189      1.0  0.17625  0.17625  0.96960  1.0000 -0.9459526058
O   O190      1.0  0.67625  0.57375  0.28040  1.0000 -0.9459526058
O   O191      1.0  0.57375  0.17625  0.78040  1.0000 -0.9399064261
O   O192      1.0  0.07375  0.17625  0.28040  1.0000 -0.9459526058
O   O193      1.0  0.99741  0.14070  0.99741  1.0000 -0.9343928609
O   O194      1.0  0.99741  0.64070  0.49741  1.0000 -0.9343928609
O   O195      1.0  0.49741  0.14070  0.49741  1.0000 -0.9343928609
O   O196      1.0  0.49741  0.64070  0.99741  1.0000 -0.9343928609
O   O197      1.0  0.75259  0.10930  0.49741  1.0000 -0.9399064261
O   O198      1.0  0.75259  0.60930  0.99741  1.0000 -0.9399064261
O   O199      1.0  0.25259  0.64070  0.75259  1.0000 -0.9343928609
O   O200      1.0  0.25259  0.14070  0.25259  1.0000 -0.9343928609
O   O201      1.0  0.49741  0.60930  0.25259  1.0000 -0.9343928609
O   O202      1.0  0.99741  0.60930  0.75259  1.0000 -0.9343928609
O   O203      1.0  0.99741  0.99741  0.14070  1.0000 -0.9343928609
O   O204      1.0  0.99741  0.49741  0.64070  1.0000 -0.9343928609
O   O205      1.0  0.49741  0.99741  0.64070  1.0000 -0.9399064261
O   O206      1.0  0.49741  0.49741  0.14070  1.0000 -0.9343928609
O   O207      1.0  0.49741  0.75259  0.10930  1.0000 -0.9399064261
O   O208      1.0  0.99741  0.75259  0.60930  1.0000 -0.9399064261
O   O209      1.0  0.75259  0.25259  0.64070  1.0000 -0.9343928609
O   O210      1.0  0.75259  0.75259  0.14070  1.0000 -0.9343928609
O   O211      1.0  0.25259  0.49741  0.60930  1.0000 -0.9343928609
O   O212      1.0  0.25259  0.99741  0.10930  1.0000 -0.9399064261
O   O213      1.0  0.14070  0.99741  0.99741  1.0000 -0.9399064261
O   O214      1.0  0.14070  0.49741  0.49741  1.0000 -0.9343928609
O   O215      1.0  0.64070  0.99741  0.49741  1.0000 -0.9399064261
O   O216      1.0  0.64070  0.49741  0.99741  1.0000 -0.9399064261
O   O217      1.0  0.10930  0.49741  0.75259  1.0000 -0.9399064261
O   O218      1.0  0.10930  0.99741  0.25259  1.0000 -0.9399064261
O   O219      1.0  0.64070  0.75259  0.25259  1.0000 -0.9343928609
O   O220      1.0  0.14070  0.75259  0.75259  1.0000 -0.9343928609
O   O221      1.0  0.60930  0.25259  0.49741  1.0000 -0.9343928609
O   O222      1.0  0.60930  0.75259  0.99741  1.0000 -0.9399064261
O   O223      1.0  0.89070  0.24741  0.50259  1.0000 -0.9399064261
O   O224      1.0  0.89070  0.74741  0.00259  1.0000 -0.9399064261
O   O225      1.0  0.85930  0.00259  0.00259  1.0000 -0.9343928609
O   O226      1.0  0.85930  0.50259  0.50259  1.0000 -0.9343928609
O   O227      1.0  0.35930  0.00259  0.50259  1.0000 -0.9399064261
O   O228      1.0  0.35930  0.50259  0.00259  1.0000 -0.9399064261
O   O229      1.0  0.39070  0.50259  0.74741  1.0000 -0.9343928609
O   O230      1.0  0.39070  0.00259  0.24741  1.0000 -0.9343928609
O   O231      1.0  0.35930  0.74741  0.24741  1.0000 -0.9399064261
O   O232      1.0  0.85930  0.74741  0.74741  1.0000 -0.9343928609
O   O233      1.0  0.74741  0.24741  0.35930  1.0000 -0.9399064261
O   O234      1.0  0.74741  0.74741  0.85930  1.0000 -0.9343928609
O   O235      1.0  0.50259  0.74741  0.39070  1.0000 -0.9343928609
O   O236      1.0  0.00259  0.74741  0.89070  1.0000 -0.9399064261
O   O237      1.0  0.00259  0.00259  0.85930  1.0000 -0.9343928609
O   O238      1.0  0.00259  0.50259  0.35930  1.0000 -0.9399064261
O   O239      1.0  0.50259  0.00259  0.35930  1.0000 -0.9399064261
O   O240      1.0  0.50259  0.50259  0.85930  1.0000 -0.9343928609
O   O241      1.0  0.24741  0.50259  0.89070  1.0000 -0.9343928609
O   O242      1.0  0.24741  0.00259  0.39070  1.0000 -0.9343928609
O   O243      1.0  0.74741  0.39070  0.50259  1.0000 -0.9343928609
O   O244      1.0  0.74741  0.89070  0.00259  1.0000 -0.9399064261
O   O245      1.0  0.24741  0.35930  0.74741  1.0000 -0.9399064261
O   O246      1.0  0.24741  0.85930  0.24741  1.0000 -0.9343928609
O   O247      1.0  0.50259  0.89070  0.24741  1.0000 -0.9399064261
O   O248      1.0  0.00259  0.89070  0.74741  1.0000 -0.9399064261
O   O249      1.0  0.00259  0.85930  0.00259  1.0000 -0.9399064261
O   O250      1.0  0.00259  0.35930  0.50259  1.0000 -0.9399064261
O   O251      1.0  0.50259  0.85930  0.50259  1.0000 -0.9343928609
O   O252      1.0  0.50259  0.35930  0.00259  1.0000 -0.9399064261
O   O253      1.0  0.24741  0.89070  0.50259  1.0000 -0.9399064261
O   O254      1.0  0.24741  0.39070  0.00259  1.0000 -0.9343928609
O   O255      1.0  0.74741  0.35930  0.24741  1.0000 -0.9399064261
O   O256      1.0  0.74741  0.85930  0.74741  1.0000 -0.9343928609
O   O257      1.0  0.50259  0.39070  0.74741  1.0000 -0.9343928609
O   O258      1.0  0.00259  0.39070  0.24741  1.0000 -0.9399064261
O   O259      1.0  0.50259  0.24741  0.89070  1.0000 -0.9399064261
O   O260      1.0  0.00259  0.24741  0.39070  1.0000 -0.9343928609
O   O261      1.0  0.24741  0.74741  0.35930  1.0000 -0.9399064261
O   O262      1.0  0.24741  0.24741  0.85930  1.0000 -0.9343928609
O   O263      1.0  0.74741  0.50259  0.39070  1.0000 -0.9343928609
O   O264      1.0  0.74741  0.00259  0.89070  1.0000 -0.9399064261
O   O265      1.0  0.89070  0.50259  0.24741  1.0000 -0.9399064261
O   O266      1.0  0.89070  0.00259  0.74741  1.0000 -0.9343928609
O   O267      1.0  0.35930  0.24741  0.74741  1.0000 -0.9399064261
O   O268      1.0  0.85930  0.24741  0.24741  1.0000 -0.9343928609
O   O269      1.0  0.39070  0.74741  0.50259  1.0000 -0.9343928609
O   O270      1.0  0.39070  0.24741  0.00259  1.0000 -0.9343928609
O   O271      1.0  0.10930  0.75259  0.49741  1.0000 -0.9399064261
O   O272      1.0  0.10930  0.25259  0.99741  1.0000 -0.9343928609
O   O273      1.0  0.60930  0.49741  0.25259  1.0000 -0.9343928609
O   O274      1.0  0.60930  0.99741  0.75259  1.0000 -0.9399064261
O   O275      1.0  0.64070  0.25259  0.75259  1.0000 -0.9343928609
O   O276      1.0  0.14070  0.25259  0.25259  1.0000 -0.9343928609
O   O277      1.0  0.25259  0.75259  0.64070  1.0000 -0.9343928609
O   O278      1.0  0.25259  0.25259  0.14070  1.0000 -0.9343928609
O   O279      1.0  0.49741  0.25259  0.60930  1.0000 -0.9343928609
O   O280      1.0  0.99741  0.25259  0.10930  1.0000 -0.9343928609
O   O281      1.0  0.75259  0.49741  0.10930  1.0000 -0.9399064261
O   O282      1.0  0.75259  0.99741  0.60930  1.0000 -0.9399064261
O   O283      1.0  0.25259  0.60930  0.49741  1.0000 -0.9343928609
O   O284      1.0  0.25259  0.10930  0.99741  1.0000 -0.9343928609
O   O285      1.0  0.75259  0.64070  0.25259  1.0000 -0.9343928609
O   O286      1.0  0.75259  0.14070  0.75259  1.0000 -0.9343928609
O   O287      1.0  0.49741  0.10930  0.75259  1.0000 -0.9399064261
O   O288      1.0  0.99741  0.10930  0.25259  1.0000 -0.9343928609
O   O289      1.0  0.92832  0.17832  0.07168  1.0000 -0.9886086315
O   O290      1.0  0.92832  0.67832  0.57168  1.0000 -0.9886086315
O   O291      1.0  0.42832  0.17832  0.57168  1.0000 -0.9886086315
O   O292      1.0  0.82168  0.07168  0.57168  1.0000 -0.9886086315
O   O293      1.0  0.32168  0.07168  0.07168  1.0000 -0.9886086315
O   O294      1.0  0.32168  0.57168  0.57168  1.0000 -0.9886086315
O   O295      1.0  0.32168  0.67832  0.67832  1.0000 -0.9886086315
O   O296      1.0  0.32168  0.17832  0.17832  1.0000 -0.9886086315
O   O297      1.0  0.82168  0.67832  0.17832  1.0000 -0.9886086315
O   O298      1.0  0.82168  0.17832  0.67832  1.0000 -0.9886086315
O   O299      1.0  0.42832  0.57168  0.17832  1.0000 -0.9886086315
O   O300      1.0  0.42832  0.07168  0.67832  1.0000 -0.9886086315
O   O301      1.0  0.07168  0.92832  0.17832  1.0000 -0.9886086315
O   O302      1.0  0.07168  0.42832  0.67832  1.0000 -0.9886086315
O   O303      1.0  0.57168  0.42832  0.17832  1.0000 -0.9886086315
O   O304      1.0  0.57168  0.82168  0.07168  1.0000 -0.9886086315
O   O305      1.0  0.57168  0.32168  0.57168  1.0000 -0.9886086315
O   O306      1.0  0.67832  0.32168  0.67832  1.0000 -0.9886086315
O   O307      1.0  0.67832  0.82168  0.17832  1.0000 -0.9886086315
O   O308      1.0  0.17832  0.32168  0.17832  1.0000 -0.9886086315
O   O309      1.0  0.17832  0.82168  0.67832  1.0000 -0.9886086315
O   O310      1.0  0.17832  0.42832  0.57168  1.0000 -0.9886086315
O   O311      1.0  0.67832  0.42832  0.07168  1.0000 -0.9886086315
O   O312      1.0  0.17832  0.07168  0.92832  1.0000 -0.9886086315
O   O313      1.0  0.17832  0.57168  0.42832  1.0000 -0.9886086315
O   O314      1.0  0.67832  0.07168  0.42832  1.0000 -0.9886086315
O   O315      1.0  0.07168  0.57168  0.82168  1.0000 -0.9886086315
O   O316      1.0  0.07168  0.07168  0.32168  1.0000 -0.9886086315
O   O317      1.0  0.57168  0.57168  0.32168  1.0000 -0.9886086315
O   O318      1.0  0.67832  0.67832  0.32168  1.0000 -0.9886086315
O   O319      1.0  0.67832  0.17832  0.82168  1.0000 -0.9886086315
O   O320      1.0  0.17832  0.67832  0.82168  1.0000 -0.9886086315
O   O321      1.0  0.17832  0.17832  0.32168  1.0000 -0.9886086315
O   O322      1.0  0.57168  0.17832  0.42832  1.0000 -0.9886086315
O   O323      1.0  0.57168  0.67832  0.92832  1.0000 -0.9886086315
O   O324      1.0  0.92832  0.17832  0.42832  1.0000 -0.9886086315
O   O325      1.0  0.92832  0.67832  0.92832  1.0000 -0.9886086315
O   O326      1.0  0.82168  0.07168  0.92832  1.0000 -0.9886086315
O   O327      1.0  0.32168  0.07168  0.42832  1.0000 -0.9886086315
O   O328      1.0  0.42832  0.57168  0.82168  1.0000 -0.9886086315
O   O329      1.0  0.42832  0.07168  0.32168  1.0000 -0.9886086315
O   O330      1.0  0.32168  0.67832  0.32168  1.0000 -0.9886086315
O   O331      1.0  0.32168  0.17832  0.82168  1.0000 -0.9886086315
O   O332      1.0  0.82168  0.67832  0.82168  1.0000 -0.9886086315
O   O333      1.0  0.82168  0.17832  0.32168  1.0000 -0.9886086315
O   O334      1.0  0.67832  0.32168  0.32168  1.0000 -0.9886086315
O   O335      1.0  0.67832  0.82168  0.82168  1.0000 -0.9886086315
O   O336      1.0  0.17832  0.32168  0.82168  1.0000 -0.9886086315
O   O337      1.0  0.17832  0.82168  0.32168  1.0000 -0.9886086315
O   O338      1.0  0.57168  0.82168  0.42832  1.0000 -0.9886086315
O   O339      1.0  0.57168  0.32168  0.92832  1.0000 -0.9886086315
O   O340      1.0  0.07168  0.92832  0.82168  1.0000 -0.9886086315
O   O341      1.0  0.07168  0.42832  0.32168  1.0000 -0.9886086315
O   O342      1.0  0.17832  0.42832  0.92832  1.0000 -0.9886086315
O   O343      1.0  0.67832  0.42832  0.42832  1.0000 -0.9886086315
O   O344      1.0  0.67832  0.92832  0.92832  1.0000 -0.9886086315
O   O345      1.0  0.82168  0.42832  0.57168  1.0000 -0.9886086315
O   O346      1.0  0.32168  0.42832  0.07168  1.0000 -0.9886086315
O   O347      1.0  0.32168  0.32168  0.67832  1.0000 -0.9886086315
O   O348      1.0  0.32168  0.82168  0.17832  1.0000 -0.9886086315
O   O349      1.0  0.82168  0.32168  0.17832  1.0000 -0.9886086315
O   O350      1.0  0.82168  0.82168  0.67832  1.0000 -0.9886086315
O   O351      1.0  0.42832  0.92832  0.17832  1.0000 -0.9886086315
O   O352      1.0  0.42832  0.42832  0.67832  1.0000 -0.9886086315
O   O353      1.0  0.92832  0.92832  0.67832  1.0000 -0.9886086315
O   O354      1.0  0.92832  0.82168  0.07168  1.0000 -0.9886086315
O   O355      1.0  0.92832  0.32168  0.57168  1.0000 -0.9886086315
O   O356      1.0  0.07168  0.82168  0.92832  1.0000 -0.9886086315
O   O357      1.0  0.07168  0.32168  0.42832  1.0000 -0.9886086315
O   O358      1.0  0.17832  0.92832  0.42832  1.0000 -0.9886086315
O   O359      1.0  0.57168  0.42832  0.82168  1.0000 -0.9886086315
O   O360      1.0  0.57168  0.92832  0.32168  1.0000 -0.9886086315
O   O361      1.0  0.92832  0.07168  0.82168  1.0000 -0.9886086315
O   O362      1.0  0.92832  0.57168  0.32168  1.0000 -0.9886086315
O   O363      1.0  0.42832  0.17832  0.92832  1.0000 -0.9886086315
O   O364      1.0  0.42832  0.67832  0.42832  1.0000 -0.9886086315
O   O365      1.0  0.82168  0.57168  0.42832  1.0000 -0.9886086315
O   O366      1.0  0.32168  0.57168  0.92832  1.0000 -0.9886086315
O   O367      1.0  0.82168  0.92832  0.07168  1.0000 -0.9886086315
O   O368      1.0  0.32168  0.92832  0.57168  1.0000 -0.9886086315
O   O369      1.0  0.92832  0.42832  0.17832  1.0000 -0.9886086315
O   O370      1.0  0.42832  0.82168  0.57168  1.0000 -0.9886086315
O   O371      1.0  0.42832  0.32168  0.07168  1.0000 -0.9886086315
O   O372      1.0  0.07168  0.82168  0.57168  1.0000 -0.9886086315
O   O373      1.0  0.07168  0.32168  0.07168  1.0000 -0.9886086315
O   O374      1.0  0.17832  0.92832  0.07168  1.0000 -0.9886086315
O   O375      1.0  0.67832  0.92832  0.57168  1.0000 -0.9886086315
O   O376      1.0  0.57168  0.92832  0.67832  1.0000 -0.9886086315
O   O377      1.0  0.42832  0.67832  0.07168  1.0000 -0.9886086315
O   O378      1.0  0.92832  0.07168  0.17832  1.0000 -0.9886086315
O   O379      1.0  0.92832  0.57168  0.67832  1.0000 -0.9886086315
O   O380      1.0  0.82168  0.57168  0.07168  1.0000 -0.9886086315
O   O381      1.0  0.67832  0.57168  0.92832  1.0000 -0.9886086315
O   O382      1.0  0.57168  0.07168  0.82168  1.0000 -0.9886086315
O   O383      1.0  0.07168  0.17832  0.92832  1.0000 -0.9886086315
O   O384      1.0  0.07168  0.67832  0.42832  1.0000 -0.9886086315
Ni  Ni1       1.0  0.02100  0.22900  0.02100  1.0000 0.7858391999
Ni  Ni2       1.0  0.72900  0.02100  0.52100  1.0000 0.7858391999
Ni  Ni3       1.0  0.22900  0.02100  0.02100  1.0000 0.7858391999
Ni  Ni4       1.0  0.22900  0.72900  0.72900  1.0000 0.7843389879
Ni  Ni5       1.0  0.22900  0.22900  0.22900  1.0000 0.7858391999
Ni  Ni6       1.0  0.52100  0.52100  0.22900  1.0000 0.7858391999
Ni  Ni7       1.0  0.02100  0.02100  0.22900  1.0000 0.7858391999
Ni  Ni8       1.0  0.52100  0.72900  0.02100  1.0000 0.7858391999
Ni  Ni9       1.0  0.72900  0.22900  0.72900  1.0000 0.7858391999
Ni  Ni10      1.0  0.22900  0.52100  0.52100  1.0000 0.7858391999
Ni  Ni11      1.0  0.02100  0.52100  0.72900  1.0000 0.7843389879
Ni  Ni12      1.0  0.72900  0.72900  0.22900  1.0000 0.7858391999
Ni  Ni13      1.0  0.52100  0.22900  0.52100  1.0000 0.7858391999
Ni  Ni14      1.0  0.97900  0.27100  0.47900  1.0000 0.7858391999
Ni  Ni15      1.0  0.77100  0.97900  0.97900  1.0000 0.7843389879
Ni  Ni16      1.0  0.47900  0.47900  0.77100  1.0000 0.7858391999
Ni  Ni17      1.0  0.27100  0.77100  0.27100  1.0000 0.7843389879
Ni  Ni18      1.0  0.77100  0.27100  0.27100  1.0000 0.7858391999
Ni  Ni19      1.0  0.77100  0.77100  0.77100  1.0000 0.7858391999
Ni  Ni20      1.0  0.47900  0.77100  0.47900  1.0000 0.7858391999
Ni  Ni21      1.0  0.97900  0.97900  0.77100  1.0000 0.7843389879
Ni  Ni22      1.0  0.27100  0.47900  0.97900  1.0000 0.7843389879
Ni  Ni23      1.0  0.77100  0.47900  0.47900  1.0000 0.7858391999
Ni  Ni24      1.0  0.27100  0.27100  0.77100  1.0000 0.7843389879
Ni  Ni25      1.0  0.47900  0.97900  0.27100  1.0000 0.7858391999
Ni  Ni26      1.0  0.97900  0.77100  0.97900  1.0000 0.7843389879
Ni  Ni27      1.0  0.27100  0.97900  0.47900  1.0000 0.7843389879
Ni  Ni28      1.0  0.47900  0.27100  0.97900  1.0000 0.7843389879
Ni  Ni29      1.0  0.97900  0.47900  0.27100  1.0000 0.7858391999
Ni  Ni30      1.0  0.02100  0.72900  0.52100  1.0000 0.7843389879
Ni  Ni31      1.0  0.72900  0.52100  0.02100  1.0000 0.7858391999
Ni  Ni32      1.0  0.52100  0.02100  0.72900  1.0000 0.7858391999
  Al  Al97      1.0  0.94590  0.12340  0.03440  1.0000
  Si  Si97      1.0  0.87660  0.05410  0.96560  1.0000
  Al  Al98      1.0  0.94590  0.62340  0.53440  1.0000
  Si  Si98      1.0  0.87660  0.55410  0.46560  1.0000
  Al  Al99      1.0  0.44590  0.12340  0.53440  1.0000
  Si  Si99      1.0  0.37660  0.05410  0.46560  1.0000
  Al  Al100     1.0  0.44590  0.62340  0.03440  1.0000
  Si  Si100     1.0  0.37660  0.55410  0.96560  1.0000
  Al  Al101     1.0  0.80410  0.12660  0.53440  1.0000
  Si  Si101     1.0  0.87340  0.19590  0.46560  1.0000
  Al  Al102     1.0  0.80410  0.62660  0.03440  1.0000
  Si  Si102     1.0  0.87340  0.69590  0.96560  1.0000
  Al  Al103     1.0  0.30410  0.12660  0.03440  1.0000
  Si  Si103     1.0  0.37340  0.19590  0.96560  1.0000
  Al  Al104     1.0  0.30410  0.62660  0.53440  1.0000
  Si  Si104     1.0  0.37340  0.69590  0.46560  1.0000
  Al  Al105     1.0  0.30410  0.62340  0.71560  1.0000
  Si  Si105     1.0  0.37340  0.55410  0.78440  1.0000
  Al  Al106     1.0  0.30410  0.12340  0.21560  1.0000
  Si  Si106     1.0  0.37340  0.05410  0.28440  1.0000
  Al  Al107     1.0  0.80410  0.62340  0.21560  1.0000
  Si  Si107     1.0  0.87340  0.55410  0.28440  1.0000
  Al  Al108     1.0  0.80410  0.12340  0.71560  1.0000
  Si  Si108     1.0  0.87340  0.05410  0.78440  1.0000
  Al  Al109     1.0  0.44590  0.62660  0.21560  1.0000
  Si  Si109     1.0  0.37660  0.69590  0.28440  1.0000
  Al  Al110     1.0  0.44590  0.12660  0.71560  1.0000
  Si  Si110     1.0  0.37660  0.19590  0.78440  1.0000
  Al  Al111     1.0  0.94590  0.62660  0.71560  1.0000
  Si  Si111     1.0  0.87660  0.69590  0.78440  1.0000
  Al  Al112     1.0  0.94590  0.12660  0.21560  1.0000
  Si  Si112     1.0  0.87660  0.19590  0.28440  1.0000
  Al  Al113     1.0  0.03440  0.94590  0.12340  1.0000
  Si  Si113     1.0  0.96560  0.87660  0.05410  1.0000
  Al  Al114     1.0  0.03440  0.44590  0.62340  1.0000
  Si  Si114     1.0  0.96560  0.37660  0.55410  1.0000
  Al  Al115     1.0  0.53440  0.94590  0.62340  1.0000
  Si  Si115     1.0  0.46560  0.87660  0.55410  1.0000
  Al  Al116     1.0  0.53440  0.44590  0.12340  1.0000
  Si  Si116     1.0  0.46560  0.37660  0.05410  1.0000
  Al  Al117     1.0  0.53440  0.80410  0.12660  1.0000
  Si  Si117     1.0  0.46560  0.87340  0.19590  1.0000
  Al  Al118     1.0  0.53440  0.30410  0.62660  1.0000
  Si  Si118     1.0  0.46560  0.37340  0.69590  1.0000
  Al  Al119     1.0  0.03440  0.80410  0.62660  1.0000
  Si  Si119     1.0  0.96560  0.87340  0.69590  1.0000
  Al  Al120     1.0  0.03440  0.30410  0.12660  1.0000
  Si  Si120     1.0  0.96560  0.37340  0.19590  1.0000
  Al  Al121     1.0  0.71560  0.30410  0.62340  1.0000
  Si  Si121     1.0  0.78440  0.37340  0.55410  1.0000
  Al  Al122     1.0  0.71560  0.80410  0.12340  1.0000
  Si  Si122     1.0  0.78440  0.87340  0.05410  1.0000
  Al  Al123     1.0  0.21560  0.30410  0.12340  1.0000
  Si  Si123     1.0  0.28440  0.37340  0.05410  1.0000
  Al  Al124     1.0  0.21560  0.80410  0.62340  1.0000
  Si  Si124     1.0  0.28440  0.87340  0.55410  1.0000
  Al  Al125     1.0  0.21560  0.44590  0.62660  1.0000
  Si  Si125     1.0  0.28440  0.37660  0.69590  1.0000
  Al  Al126     1.0  0.21560  0.94590  0.12660  1.0000
  Si  Si126     1.0  0.28440  0.87660  0.19590  1.0000
  Al  Al127     1.0  0.71560  0.44590  0.12660  1.0000
  Si  Si127     1.0  0.78440  0.37660  0.19590  1.0000
  Al  Al128     1.0  0.71560  0.94590  0.62660  1.0000
  Si  Si128     1.0  0.78440  0.87660  0.69590  1.0000
  Al  Al129     1.0  0.12340  0.03440  0.94590  1.0000
  Si  Si129     1.0  0.05410  0.96560  0.87660  1.0000
  Al  Al130     1.0  0.12340  0.53440  0.44590  1.0000
  Si  Si130     1.0  0.05410  0.46560  0.37660  1.0000
  Al  Al131     1.0  0.62340  0.03440  0.44590  1.0000
  Si  Si131     1.0  0.55410  0.96560  0.37660  1.0000
  Al  Al132     1.0  0.62340  0.53440  0.94590  1.0000
  Si  Si132     1.0  0.55410  0.46560  0.87660  1.0000
  Al  Al133     1.0  0.12660  0.53440  0.80410  1.0000
  Si  Si133     1.0  0.19590  0.46560  0.87340  1.0000
  Al  Al134     1.0  0.12660  0.03440  0.30410  1.0000
  Si  Si134     1.0  0.19590  0.96560  0.37340  1.0000
  Al  Al135     1.0  0.62660  0.53440  0.30410  1.0000
  Si  Si135     1.0  0.69590  0.46560  0.37340  1.0000
  Al  Al136     1.0  0.62660  0.03440  0.80410  1.0000
  Si  Si136     1.0  0.69590  0.96560  0.87340  1.0000
  Al  Al137     1.0  0.62340  0.71560  0.30410  1.0000
  Si  Si137     1.0  0.55410  0.78440  0.37340  1.0000
  Al  Al138     1.0  0.62340  0.21560  0.80410  1.0000
  Si  Si138     1.0  0.55410  0.28440  0.87340  1.0000
  Al  Al139     1.0  0.12340  0.71560  0.80410  1.0000
  Si  Si139     1.0  0.05410  0.78440  0.87340  1.0000
  Al  Al140     1.0  0.12340  0.21560  0.30410  1.0000
  Si  Si140     1.0  0.05410  0.28440  0.37340  1.0000
  Al  Al141     1.0  0.62660  0.21560  0.44590  1.0000
  Si  Si141     1.0  0.69590  0.28440  0.37660  1.0000
  Al  Al142     1.0  0.62660  0.71560  0.94590  1.0000
  Si  Si142     1.0  0.69590  0.78440  0.87660  1.0000
  Al  Al143     1.0  0.12660  0.21560  0.94590  1.0000
  Si  Si143     1.0  0.19590  0.28440  0.87660  1.0000
  Al  Al144     1.0  0.12660  0.71560  0.44590  1.0000
  Si  Si144     1.0  0.19590  0.78440  0.37660  1.0000
  Al  Al145     1.0  0.05410  0.87660  0.96560  1.0000
  Si  Si145     1.0  0.12340  0.94590  0.03440  1.0000
  Al  Al146     1.0  0.05410  0.37660  0.46560  1.0000
  Si  Si146     1.0  0.12340  0.44590  0.53440  1.0000
  Al  Al147     1.0  0.55410  0.87660  0.46560  1.0000
  Si  Si147     1.0  0.62340  0.94590  0.53440  1.0000
  Al  Al148     1.0  0.55410  0.37660  0.96560  1.0000
  Si  Si148     1.0  0.62340  0.44590  0.03440  1.0000
  Al  Al149     1.0  0.19590  0.87340  0.46560  1.0000
  Si  Si149     1.0  0.12660  0.80410  0.53440  1.0000
  Al  Al150     1.0  0.19590  0.37340  0.96560  1.0000
  Si  Si150     1.0  0.12660  0.30410  0.03440  1.0000
  Al  Al151     1.0  0.69590  0.87340  0.96560  1.0000
  Si  Si151     1.0  0.62660  0.80410  0.03440  1.0000
  Al  Al152     1.0  0.69590  0.37340  0.46560  1.0000
  Si  Si152     1.0  0.62660  0.30410  0.53440  1.0000
  Al  Al153     1.0  0.69590  0.37660  0.28440  1.0000
  Si  Si153     1.0  0.62660  0.44590  0.21560  1.0000
  Al  Al154     1.0  0.69590  0.87660  0.78440  1.0000
  Si  Si154     1.0  0.62660  0.94590  0.71560  1.0000
  Al  Al155     1.0  0.19590  0.37660  0.78440  1.0000
  Si  Si155     1.0  0.12660  0.44590  0.71560  1.0000
  Al  Al156     1.0  0.19590  0.87660  0.28440  1.0000
  Si  Si156     1.0  0.12660  0.94590  0.21560  1.0000
  Al  Al157     1.0  0.55410  0.37340  0.78440  1.0000
  Si  Si157     1.0  0.62340  0.30410  0.71560  1.0000
  Al  Al158     1.0  0.55410  0.87340  0.28440  1.0000
  Si  Si158     1.0  0.62340  0.80410  0.21560  1.0000
  Al  Al159     1.0  0.05410  0.37340  0.28440  1.0000
  Si  Si159     1.0  0.12340  0.30410  0.21560  1.0000
  Al  Al160     1.0  0.05410  0.87340  0.78440  1.0000
  Si  Si160     1.0  0.12340  0.80410  0.71560  1.0000
  Al  Al161     1.0  0.96560  0.05410  0.87660  1.0000
  Si  Si161     1.0  0.03440  0.12340  0.94590  1.0000
  Al  Al162     1.0  0.96560  0.55410  0.37660  1.0000
  Si  Si162     1.0  0.03440  0.62340  0.44590  1.0000
  Al  Al163     1.0  0.46560  0.05410  0.37660  1.0000
  Si  Si163     1.0  0.53440  0.12340  0.44590  1.0000
  Al  Al164     1.0  0.46560  0.55410  0.87660  1.0000
  Si  Si164     1.0  0.53440  0.62340  0.94590  1.0000
  Al  Al165     1.0  0.46560  0.19590  0.87340  1.0000
  Si  Si165     1.0  0.53440  0.12660  0.80410  1.0000
  Al  Al166     1.0  0.46560  0.69590  0.37340  1.0000
  Si  Si166     1.0  0.53440  0.62660  0.30410  1.0000
  Al  Al167     1.0  0.96560  0.19590  0.37340  1.0000
  Si  Si167     1.0  0.03440  0.12660  0.30410  1.0000
  Al  Al168     1.0  0.96560  0.69590  0.87340  1.0000
  Si  Si168     1.0  0.03440  0.62660  0.80410  1.0000
  Al  Al169     1.0  0.28440  0.69590  0.37660  1.0000
  Si  Si169     1.0  0.21560  0.62660  0.44590  1.0000
  Al  Al170     1.0  0.28440  0.19590  0.87660  1.0000
  Si  Si170     1.0  0.21560  0.12660  0.94590  1.0000
  Al  Al171     1.0  0.78440  0.69590  0.87660  1.0000
  Si  Si171     1.0  0.71560  0.62660  0.94590  1.0000
  Al  Al172     1.0  0.78440  0.19590  0.37660  1.0000
  Si  Si172     1.0  0.71560  0.12660  0.44590  1.0000
  Al  Al173     1.0  0.78440  0.55410  0.37340  1.0000
  Si  Si173     1.0  0.71560  0.62340  0.30410  1.0000
  Al  Al174     1.0  0.78440  0.05410  0.87340  1.0000
  Si  Si174     1.0  0.71560  0.12340  0.80410  1.0000
  Al  Al175     1.0  0.28440  0.55410  0.87340  1.0000
  Si  Si175     1.0  0.21560  0.62340  0.80410  1.0000
  Al  Al176     1.0  0.28440  0.05410  0.37340  1.0000
  Si  Si176     1.0  0.21560  0.12340  0.30410  1.0000
  Al  Al177     1.0  0.87660  0.96560  0.05410  1.0000
  Si  Si177     1.0  0.94590  0.03440  0.12340  1.0000
  Al  Al178     1.0  0.87660  0.46560  0.55410  1.0000
  Si  Si178     1.0  0.94590  0.53440  0.62340  1.0000
  Al  Al179     1.0  0.37660  0.96560  0.55410  1.0000
  Si  Si179     1.0  0.44590  0.03440  0.62340  1.0000
  Al  Al180     1.0  0.37660  0.46560  0.05410  1.0000
  Si  Si180     1.0  0.44590  0.53440  0.12340  1.0000
  Al  Al181     1.0  0.87340  0.46560  0.19590  1.0000
  Si  Si181     1.0  0.80410  0.53440  0.12660  1.0000
  Al  Al182     1.0  0.87340  0.96560  0.69590  1.0000
  Si  Si182     1.0  0.80410  0.03440  0.62660  1.0000
  Al  Al183     1.0  0.37340  0.46560  0.69590  1.0000
  Si  Si183     1.0  0.30410  0.53440  0.62660  1.0000
  Al  Al184     1.0  0.37340  0.96560  0.19590  1.0000
  Si  Si184     1.0  0.30410  0.03440  0.12660  1.0000
  Al  Al185     1.0  0.37660  0.28440  0.69590  1.0000
  Si  Si185     1.0  0.44590  0.21560  0.62660  1.0000
  Al  Al186     1.0  0.37660  0.78440  0.19590  1.0000
  Si  Si186     1.0  0.44590  0.71560  0.12660  1.0000
  Al  Al187     1.0  0.87660  0.28440  0.19590  1.0000
  Si  Si187     1.0  0.94590  0.21560  0.12660  1.0000
  Al  Al188     1.0  0.87660  0.78440  0.69590  1.0000
  Si  Si188     1.0  0.94590  0.71560  0.62660  1.0000
  Al  Al189     1.0  0.37340  0.78440  0.55410  1.0000
  Si  Si189     1.0  0.30410  0.71560  0.62340  1.0000
  Al  Al190     1.0  0.37340  0.28440  0.05410  1.0000
  Si  Si190     1.0  0.30410  0.21560  0.12340  1.0000
  Al  Al191     1.0  0.87340  0.78440  0.05410  1.0000
  Si  Si191     1.0  0.80410  0.71560  0.12340  1.0000
  Al  Al192     1.0  0.87340  0.28440  0.55410  1.0000
  Si  Si192     1.0  0.80410  0.21560  0.62340  1.0000
