# DDEC6 charges by PACMAN v1.1 (https://github.com/mtap-research/PACMAN-charge/)
data_JUQFEJ_ASR_pacman
_chemical_formula_sum              "Al96 Si96 O384 Ni32"
_cell_length_a       24.806
_cell_length_b       24.806
_cell_length_c       24.806
_cell_angle_alpha    90
_cell_angle_beta     90
_cell_angle_gamma    90

_symmetry_space_group_name_H-M    "P 1"
_symmetry_Int_Tables_number       1

loop_
  _symmetry_equiv_pos_as_xyz
  'x, y, z'

loop_
  _atom_site_type_symbol
  _atom_site_label
  _atom_site_symmetry_multiplicity
  _atom_site_fract_x
  _atom_site_fract_y
  _atom_site_fract_z
  _atom_site_occupancy
 _atom_site_charge
Al  Al1       1.0  0.94930  0.11570  0.03832  1.0000 1.769661589
Si  Si1       1.0  0.88430  0.05070  0.96168  1.0000 1.7291743977
Al  Al2       1.0  0.94930  0.61570  0.53832  1.0000 1.769661589
Si  Si2       1.0  0.88430  0.55070  0.46168  1.0000 1.7291743977
Al  Al3       1.0  0.44930  0.11570  0.53832  1.0000 1.769661589
Si  Si3       1.0  0.38430  0.05070  0.46168  1.0000 1.7291743977
Al  Al4       1.0  0.44930  0.61570  0.03832  1.0000 1.769661589
Si  Si4       1.0  0.38430  0.55070  0.96168  1.0000 1.7291743977
Al  Al5       1.0  0.80070  0.13430  0.53832  1.0000 1.769661589
Si  Si5       1.0  0.86570  0.19930  0.46168  1.0000 1.7291743977
Al  Al6       1.0  0.80070  0.63430  0.03832  1.0000 1.769661589
Si  Si6       1.0  0.86570  0.69930  0.96168  1.0000 1.7291743977
Al  Al7       1.0  0.30070  0.13430  0.03832  1.0000 1.769661589
Si  Si7       1.0  0.36570  0.19930  0.96168  1.0000 1.7291743977
Al  Al8       1.0  0.30070  0.63430  0.53832  1.0000 1.769661589
Si  Si8       1.0  0.36570  0.69930  0.46168  1.0000 1.7291743977
Al  Al9       1.0  0.30070  0.61570  0.71168  1.0000 1.769661589
Si  Si9       1.0  0.36570  0.55070  0.78832  1.0000 1.7291743977
Al  Al10      1.0  0.30070  0.11570  0.21168  1.0000 1.769661589
Si  Si10      1.0  0.36570  0.05070  0.28832  1.0000 1.7291743977
Al  Al11      1.0  0.80070  0.61570  0.21168  1.0000 1.769661589
Si  Si11      1.0  0.86570  0.55070  0.28832  1.0000 1.7291743977
Al  Al12      1.0  0.80070  0.11570  0.71168  1.0000 1.769661589
Si  Si12      1.0  0.86570  0.05070  0.78832  1.0000 1.7291743977
Al  Al13      1.0  0.44930  0.63430  0.21168  1.0000 1.769661589
Si  Si13      1.0  0.38430  0.69930  0.28832  1.0000 1.7291743977
Al  Al14      1.0  0.44930  0.13430  0.71168  1.0000 1.769661589
Si  Si14      1.0  0.38430  0.19930  0.78832  1.0000 1.7291743977
Al  Al15      1.0  0.94930  0.63430  0.71168  1.0000 1.769661589
Si  Si15      1.0  0.88430  0.69930  0.78832  1.0000 1.7291743977
Al  Al16      1.0  0.94930  0.13430  0.21168  1.0000 1.769661589
Si  Si16      1.0  0.88430  0.19930  0.28832  1.0000 1.7291743977
Al  Al17      1.0  0.03832  0.94930  0.11570  1.0000 1.769661589
Si  Si17      1.0  0.96168  0.88430  0.05070  1.0000 1.7291743977
Al  Al18      1.0  0.03832  0.44930  0.61570  1.0000 1.769661589
Si  Si18      1.0  0.96168  0.38430  0.55070  1.0000 1.7291743977
Al  Al19      1.0  0.53832  0.94930  0.61570  1.0000 1.769661589
Si  Si19      1.0  0.46168  0.88430  0.55070  1.0000 1.7291743977
Al  Al20      1.0  0.53832  0.44930  0.11570  1.0000 1.769661589
Si  Si20      1.0  0.46168  0.38430  0.05070  1.0000 1.7291743977
Al  Al21      1.0  0.53832  0.80070  0.13430  1.0000 1.769661589
Si  Si21      1.0  0.46168  0.86570  0.19930  1.0000 1.7291743977
Al  Al22      1.0  0.53832  0.30070  0.63430  1.0000 1.769661589
Si  Si22      1.0  0.46168  0.36570  0.69930  1.0000 1.7291743977
Al  Al23      1.0  0.03832  0.80070  0.63430  1.0000 1.769661589
Si  Si23      1.0  0.96168  0.86570  0.69930  1.0000 1.7291743977
Al  Al24      1.0  0.03832  0.30070  0.13430  1.0000 1.769661589
Si  Si24      1.0  0.96168  0.36570  0.19930  1.0000 1.7291743977
Al  Al25      1.0  0.71168  0.30070  0.61570  1.0000 1.769661589
Si  Si25      1.0  0.78832  0.36570  0.55070  1.0000 1.7291743977
Al  Al26      1.0  0.71168  0.80070  0.11570  1.0000 1.769661589
Si  Si26      1.0  0.78832  0.86570  0.05070  1.0000 1.7291743977
Al  Al27      1.0  0.21168  0.30070  0.11570  1.0000 1.769661589
Si  Si27      1.0  0.28832  0.36570  0.05070  1.0000 1.7291743977
Al  Al28      1.0  0.21168  0.80070  0.61570  1.0000 1.769661589
Si  Si28      1.0  0.28832  0.86570  0.55070  1.0000 1.7291743977
Al  Al29      1.0  0.21168  0.44930  0.63430  1.0000 1.769661589
Si  Si29      1.0  0.28832  0.38430  0.69930  1.0000 1.7291743977
Al  Al30      1.0  0.21168  0.94930  0.13430  1.0000 1.769661589
Si  Si30      1.0  0.28832  0.88430  0.19930  1.0000 1.7291743977
Al  Al31      1.0  0.71168  0.44930  0.13430  1.0000 1.769661589
Si  Si31      1.0  0.78832  0.38430  0.19930  1.0000 1.7291743977
Al  Al32      1.0  0.71168  0.94930  0.63430  1.0000 1.769661589
Si  Si32      1.0  0.78832  0.88430  0.69930  1.0000 1.7291743977
Al  Al33      1.0  0.11570  0.03832  0.94930  1.0000 1.769661589
Si  Si33      1.0  0.05070  0.96168  0.88430  1.0000 1.7291743977
Al  Al34      1.0  0.11570  0.53832  0.44930  1.0000 1.769661589
Si  Si34      1.0  0.05070  0.46168  0.38430  1.0000 1.7291743977
Al  Al35      1.0  0.61570  0.03832  0.44930  1.0000 1.769661589
Si  Si35      1.0  0.55070  0.96168  0.38430  1.0000 1.7291743977
Al  Al36      1.0  0.61570  0.53832  0.94930  1.0000 1.769661589
Si  Si36      1.0  0.55070  0.46168  0.88430  1.0000 1.7291743977
Al  Al37      1.0  0.13430  0.53832  0.80070  1.0000 1.769661589
Si  Si37      1.0  0.19930  0.46168  0.86570  1.0000 1.7291743977
Al  Al38      1.0  0.13430  0.03832  0.30070  1.0000 1.769661589
Si  Si38      1.0  0.19930  0.96168  0.36570  1.0000 1.7291743977
Al  Al39      1.0  0.63430  0.53832  0.30070  1.0000 1.769661589
Si  Si39      1.0  0.69930  0.46168  0.36570  1.0000 1.7291743977
Al  Al40      1.0  0.63430  0.03832  0.80070  1.0000 1.769661589
Si  Si40      1.0  0.69930  0.96168  0.86570  1.0000 1.7291743977
Al  Al41      1.0  0.61570  0.71168  0.30070  1.0000 1.769661589
Si  Si41      1.0  0.55070  0.78832  0.36570  1.0000 1.7291743977
Al  Al42      1.0  0.61570  0.21168  0.80070  1.0000 1.769661589
Si  Si42      1.0  0.55070  0.28832  0.86570  1.0000 1.7291743977
Al  Al43      1.0  0.11570  0.71168  0.80070  1.0000 1.769661589
Si  Si43      1.0  0.05070  0.78832  0.86570  1.0000 1.7291743977
Al  Al44      1.0  0.11570  0.21168  0.30070  1.0000 1.769661589
Si  Si44      1.0  0.05070  0.28832  0.36570  1.0000 1.7291743977
Al  Al45      1.0  0.63430  0.21168  0.44930  1.0000 1.769661589
Si  Si45      1.0  0.69930  0.28832  0.38430  1.0000 1.7291743977
Al  Al46      1.0  0.63430  0.71168  0.94930  1.0000 1.769661589
Si  Si46      1.0  0.69930  0.78832  0.88430  1.0000 1.7291743977
Al  Al47      1.0  0.13430  0.21168  0.94930  1.0000 1.769661589
Si  Si47      1.0  0.19930  0.28832  0.88430  1.0000 1.7291743977
Al  Al48      1.0  0.13430  0.71168  0.44930  1.0000 1.769661589
Si  Si48      1.0  0.19930  0.78832  0.38430  1.0000 1.7291743977
Al  Al49      1.0  0.05070  0.88430  0.96168  1.0000 1.769661589
Si  Si49      1.0  0.11570  0.94930  0.03832  1.0000 1.7291743977
Al  Al50      1.0  0.05070  0.38430  0.46168  1.0000 1.769661589
Si  Si50      1.0  0.11570  0.44930  0.53832  1.0000 1.7291743977
Al  Al51      1.0  0.55070  0.88430  0.46168  1.0000 1.769661589
Si  Si51      1.0  0.61570  0.94930  0.53832  1.0000 1.7291743977
Al  Al52      1.0  0.55070  0.38430  0.96168  1.0000 1.769661589
Si  Si52      1.0  0.61570  0.44930  0.03832  1.0000 1.7291743977
Al  Al53      1.0  0.19930  0.86570  0.46168  1.0000 1.769661589
Si  Si53      1.0  0.13430  0.80070  0.53832  1.0000 1.7291743977
Al  Al54      1.0  0.19930  0.36570  0.96168  1.0000 1.769661589
Si  Si54      1.0  0.13430  0.30070  0.03832  1.0000 1.7291743977
Al  Al55      1.0  0.69930  0.86570  0.96168  1.0000 1.769661589
Si  Si55      1.0  0.63430  0.80070  0.03832  1.0000 1.7291743977
Al  Al56      1.0  0.69930  0.36570  0.46168  1.0000 1.769661589
Si  Si56      1.0  0.63430  0.30070  0.53832  1.0000 1.7291743977
Al  Al57      1.0  0.69930  0.38430  0.28832  1.0000 1.769661589
Si  Si57      1.0  0.63430  0.44930  0.21168  1.0000 1.7291743977
Al  Al58      1.0  0.69930  0.88430  0.78832  1.0000 1.769661589
Si  Si58      1.0  0.63430  0.94930  0.71168  1.0000 1.7291743977
Al  Al59      1.0  0.19930  0.38430  0.78832  1.0000 1.769661589
Si  Si59      1.0  0.13430  0.44930  0.71168  1.0000 1.7291743977
Al  Al60      1.0  0.19930  0.88430  0.28832  1.0000 1.769661589
Si  Si60      1.0  0.13430  0.94930  0.21168  1.0000 1.7291743977
Al  Al61      1.0  0.55070  0.36570  0.78832  1.0000 1.769661589
Si  Si61      1.0  0.61570  0.30070  0.71168  1.0000 1.7291743977
Al  Al62      1.0  0.55070  0.86570  0.28832  1.0000 1.769661589
Si  Si62      1.0  0.61570  0.80070  0.21168  1.0000 1.7291743977
Al  Al63      1.0  0.05070  0.36570  0.28832  1.0000 1.769661589
Si  Si63      1.0  0.11570  0.30070  0.21168  1.0000 1.7291743977
Al  Al64      1.0  0.05070  0.86570  0.78832  1.0000 1.769661589
Si  Si64      1.0  0.11570  0.80070  0.71168  1.0000 1.7291743977
Al  Al65      1.0  0.96168  0.05070  0.88430  1.0000 1.769661589
Si  Si65      1.0  0.03832  0.11570  0.94930  1.0000 1.7291743977
Al  Al66      1.0  0.96168  0.55070  0.38430  1.0000 1.769661589
Si  Si66      1.0  0.03832  0.61570  0.44930  1.0000 1.7291743977
Al  Al67      1.0  0.46168  0.05070  0.38430  1.0000 1.769661589
Si  Si67      1.0  0.53832  0.11570  0.44930  1.0000 1.7291743977
Al  Al68      1.0  0.46168  0.55070  0.88430  1.0000 1.769661589
Si  Si68      1.0  0.53832  0.61570  0.94930  1.0000 1.7291743977
Al  Al69      1.0  0.46168  0.19930  0.86570  1.0000 1.769661589
Si  Si69      1.0  0.53832  0.13430  0.80070  1.0000 1.7291743977
Al  Al70      1.0  0.46168  0.69930  0.36570  1.0000 1.769661589
Si  Si70      1.0  0.53832  0.63430  0.30070  1.0000 1.7291743977
Al  Al71      1.0  0.96168  0.19930  0.36570  1.0000 1.769661589
Si  Si71      1.0  0.03832  0.13430  0.30070  1.0000 1.7291743977
Al  Al72      1.0  0.96168  0.69930  0.86570  1.0000 1.769661589
Si  Si72      1.0  0.03832  0.63430  0.80070  1.0000 1.7291743977
Al  Al73      1.0  0.28832  0.69930  0.38430  1.0000 1.769661589
Si  Si73      1.0  0.21168  0.63430  0.44930  1.0000 1.7291743977
Al  Al74      1.0  0.28832  0.19930  0.88430  1.0000 1.769661589
Si  Si74      1.0  0.21168  0.13430  0.94930  1.0000 1.7291743977
Al  Al75      1.0  0.78832  0.69930  0.88430  1.0000 1.769661589
Si  Si75      1.0  0.71168  0.63430  0.94930  1.0000 1.7291743977
Al  Al76      1.0  0.78832  0.19930  0.38430  1.0000 1.769661589
Si  Si76      1.0  0.71168  0.13430  0.44930  1.0000 1.7291743977
Al  Al77      1.0  0.78832  0.55070  0.36570  1.0000 1.769661589
Si  Si77      1.0  0.71168  0.61570  0.30070  1.0000 1.7291743977
Al  Al78      1.0  0.78832  0.05070  0.86570  1.0000 1.769661589
Si  Si78      1.0  0.71168  0.11570  0.80070  1.0000 1.7291743977
Al  Al79      1.0  0.28832  0.55070  0.86570  1.0000 1.769661589
Si  Si79      1.0  0.21168  0.61570  0.80070  1.0000 1.7291743977
Al  Al80      1.0  0.28832  0.05070  0.36570  1.0000 1.769661589
Si  Si80      1.0  0.21168  0.11570  0.30070  1.0000 1.7291743977
Al  Al81      1.0  0.88430  0.96168  0.05070  1.0000 1.769661589
Si  Si81      1.0  0.94930  0.03832  0.11570  1.0000 1.7291743977
Al  Al82      1.0  0.88430  0.46168  0.55070  1.0000 1.769661589
Si  Si82      1.0  0.94930  0.53832  0.61570  1.0000 1.7291743977
Al  Al83      1.0  0.38430  0.96168  0.55070  1.0000 1.769661589
Si  Si83      1.0  0.44930  0.03832  0.61570  1.0000 1.7291743977
Al  Al84      1.0  0.38430  0.46168  0.05070  1.0000 1.769661589
Si  Si84      1.0  0.44930  0.53832  0.11570  1.0000 1.7291743977
Al  Al85      1.0  0.86570  0.46168  0.19930  1.0000 1.769661589
Si  Si85      1.0  0.80070  0.53832  0.13430  1.0000 1.7291743977
Al  Al86      1.0  0.86570  0.96168  0.69930  1.0000 1.769661589
Si  Si86      1.0  0.80070  0.03832  0.63430  1.0000 1.7291743977
Al  Al87      1.0  0.36570  0.46168  0.69930  1.0000 1.769661589
Si  Si87      1.0  0.30070  0.53832  0.63430  1.0000 1.7291743977
Al  Al88      1.0  0.36570  0.96168  0.19930  1.0000 1.769661589
Si  Si88      1.0  0.30070  0.03832  0.13430  1.0000 1.7291743977
Al  Al89      1.0  0.38430  0.28832  0.69930  1.0000 1.769661589
Si  Si89      1.0  0.44930  0.21168  0.63430  1.0000 1.7291743977
Al  Al90      1.0  0.38430  0.78832  0.19930  1.0000 1.769661589
Si  Si90      1.0  0.44930  0.71168  0.13430  1.0000 1.7291743977
Al  Al91      1.0  0.88430  0.28832  0.19930  1.0000 1.769661589
Si  Si91      1.0  0.94930  0.21168  0.13430  1.0000 1.7291743977
Al  Al92      1.0  0.88430  0.78832  0.69930  1.0000 1.769661589
Si  Si92      1.0  0.94930  0.71168  0.63430  1.0000 1.7291743977
Al  Al93      1.0  0.36570  0.78832  0.55070  1.0000 1.769661589
Si  Si93      1.0  0.30070  0.71168  0.61570  1.0000 1.7291743977
Al  Al94      1.0  0.36570  0.28832  0.05070  1.0000 1.769661589
Si  Si94      1.0  0.30070  0.21168  0.11570  1.0000 1.7291743977
Al  Al95      1.0  0.86570  0.78832  0.05070  1.0000 1.769661589
Si  Si95      1.0  0.80070  0.71168  0.11570  1.0000 1.7291743977
Al  Al96      1.0  0.86570  0.28832  0.55070  1.0000 1.769661589
Si  Si96      1.0  0.80070  0.21168  0.61570  1.0000 1.7291743977
O   O1        1.0  0.88813  0.11187  0.00000  1.0000 -0.9934718002
O   O2        1.0  0.88813  0.61187  0.50000  1.0000 -0.9934718002
O   O3        1.0  0.38813  0.11187  0.50000  1.0000 -0.9934718002
O   O4        1.0  0.38813  0.61187  0.00000  1.0000 -0.9934718002
O   O5        1.0  0.86187  0.13813  0.50000  1.0000 -0.9934718002
O   O6        1.0  0.86187  0.63813  0.00000  1.0000 -0.9934718002
O   O7        1.0  0.36187  0.13813  0.00000  1.0000 -0.9934718002
O   O8        1.0  0.36187  0.63813  0.50000  1.0000 -0.9934718002
O   O9        1.0  0.36187  0.61187  0.75000  1.0000 -0.9934718002
O   O10       1.0  0.36187  0.11187  0.25000  1.0000 -0.9934718002
O   O11       1.0  0.86187  0.61187  0.25000  1.0000 -0.9934718002
O   O12       1.0  0.86187  0.11187  0.75000  1.0000 -0.9934718002
O   O13       1.0  0.38813  0.63813  0.25000  1.0000 -0.9934718002
O   O14       1.0  0.38813  0.13813  0.75000  1.0000 -0.9934718002
O   O15       1.0  0.88813  0.63813  0.75000  1.0000 -0.9934718002
O   O16       1.0  0.88813  0.13813  0.25000  1.0000 -0.9934718002
O   O17       1.0  0.00000  0.88813  0.11187  1.0000 -0.9934718002
O   O18       1.0  0.00000  0.38813  0.61187  1.0000 -0.9934718002
O   O19       1.0  0.50000  0.88813  0.61187  1.0000 -0.9934718002
O   O20       1.0  0.50000  0.38813  0.11187  1.0000 -0.9934718002
O   O21       1.0  0.50000  0.86187  0.13813  1.0000 -0.9934718002
O   O22       1.0  0.50000  0.36187  0.63813  1.0000 -0.9934718002
O   O23       1.0  0.00000  0.86187  0.63813  1.0000 -0.9934718002
O   O24       1.0  0.00000  0.36187  0.13813  1.0000 -0.9934718002
O   O25       1.0  0.75000  0.36187  0.61187  1.0000 -0.9934718002
O   O26       1.0  0.75000  0.86187  0.11187  1.0000 -0.9934718002
O   O27       1.0  0.25000  0.36187  0.11187  1.0000 -0.9934718002
O   O28       1.0  0.25000  0.86187  0.61187  1.0000 -0.9934718002
O   O29       1.0  0.25000  0.38813  0.63813  1.0000 -0.9934718002
O   O30       1.0  0.25000  0.88813  0.13813  1.0000 -0.9934718002
O   O31       1.0  0.75000  0.38813  0.13813  1.0000 -0.9934718002
O   O32       1.0  0.75000  0.88813  0.63813  1.0000 -0.9934718002
O   O33       1.0  0.11187  0.00000  0.88813  1.0000 -0.9934718002
O   O34       1.0  0.11187  0.50000  0.38813  1.0000 -0.9934718002
O   O35       1.0  0.61187  0.00000  0.38813  1.0000 -0.9934718002
O   O36       1.0  0.61187  0.50000  0.88813  1.0000 -0.9934718002
O   O37       1.0  0.13813  0.50000  0.86187  1.0000 -0.9934718002
O   O38       1.0  0.13813  0.00000  0.36187  1.0000 -0.9934718002
O   O39       1.0  0.63813  0.50000  0.36187  1.0000 -0.9934718002
O   O40       1.0  0.63813  0.00000  0.86187  1.0000 -0.9934718002
O   O41       1.0  0.61187  0.75000  0.36187  1.0000 -0.9934718002
O   O42       1.0  0.61187  0.25000  0.86187  1.0000 -0.9934718002
O   O43       1.0  0.11187  0.75000  0.86187  1.0000 -0.9934718002
O   O44       1.0  0.11187  0.25000  0.36187  1.0000 -0.9934718002
O   O45       1.0  0.63813  0.25000  0.38813  1.0000 -0.9934718002
O   O46       1.0  0.63813  0.75000  0.88813  1.0000 -0.9934718002
O   O47       1.0  0.13813  0.25000  0.88813  1.0000 -0.9934718002
O   O48       1.0  0.13813  0.75000  0.38813  1.0000 -0.9934718002
O   O49       1.0  0.11187  0.88813  0.00000  1.0000 -0.9934718002
O   O50       1.0  0.11187  0.38813  0.50000  1.0000 -0.9934718002
O   O51       1.0  0.61187  0.88813  0.50000  1.0000 -0.9934718002
O   O52       1.0  0.61187  0.38813  0.00000  1.0000 -0.9934718002
O   O53       1.0  0.13813  0.86187  0.50000  1.0000 -0.9934718002
O   O54       1.0  0.13813  0.36187  0.00000  1.0000 -0.9934718002
O   O55       1.0  0.63813  0.86187  0.00000  1.0000 -0.9934718002
O   O56       1.0  0.63813  0.36187  0.50000  1.0000 -0.9934718002
O   O57       1.0  0.63813  0.38813  0.25000  1.0000 -0.9934718002
O   O58       1.0  0.63813  0.88813  0.75000  1.0000 -0.9934718002
O   O59       1.0  0.13813  0.38813  0.75000  1.0000 -0.9934718002
O   O60       1.0  0.13813  0.88813  0.25000  1.0000 -0.9934718002
O   O61       1.0  0.61187  0.36187  0.75000  1.0000 -0.9934718002
O   O62       1.0  0.61187  0.86187  0.25000  1.0000 -0.9934718002
O   O63       1.0  0.11187  0.36187  0.25000  1.0000 -0.9934718002
O   O64       1.0  0.11187  0.86187  0.75000  1.0000 -0.9934718002
O   O65       1.0  0.00000  0.11187  0.88813  1.0000 -0.9934718002
O   O66       1.0  0.00000  0.61187  0.38813  1.0000 -0.9934718002
O   O67       1.0  0.50000  0.11187  0.38813  1.0000 -0.9934718002
O   O68       1.0  0.50000  0.61187  0.88813  1.0000 -0.9934718002
O   O69       1.0  0.50000  0.13813  0.86187  1.0000 -0.9934718002
O   O70       1.0  0.50000  0.63813  0.36187  1.0000 -0.9934718002
O   O71       1.0  0.00000  0.13813  0.36187  1.0000 -0.9934718002
O   O72       1.0  0.00000  0.63813  0.86187  1.0000 -0.9934718002
O   O73       1.0  0.25000  0.63813  0.38813  1.0000 -0.9934718002
O   O74       1.0  0.25000  0.13813  0.88813  1.0000 -0.9934718002
O   O75       1.0  0.75000  0.63813  0.88813  1.0000 -0.9934718002
O   O76       1.0  0.75000  0.13813  0.38813  1.0000 -0.9934718002
O   O77       1.0  0.75000  0.61187  0.36187  1.0000 -0.9934718002
O   O78       1.0  0.75000  0.11187  0.86187  1.0000 -0.9934718002
O   O79       1.0  0.25000  0.61187  0.86187  1.0000 -0.9934718002
O   O80       1.0  0.25000  0.11187  0.36187  1.0000 -0.9934718002
O   O81       1.0  0.88813  0.00000  0.11187  1.0000 -0.9934718002
O   O82       1.0  0.88813  0.50000  0.61187  1.0000 -0.9934718002
O   O83       1.0  0.38813  0.00000  0.61187  1.0000 -0.9934718002
O   O84       1.0  0.38813  0.50000  0.11187  1.0000 -0.9934718002
O   O85       1.0  0.86187  0.50000  0.13813  1.0000 -0.9934718002
O   O86       1.0  0.86187  0.00000  0.63813  1.0000 -0.9934718002
O   O87       1.0  0.36187  0.50000  0.63813  1.0000 -0.9934718002
O   O88       1.0  0.36187  0.00000  0.13813  1.0000 -0.9934718002
O   O89       1.0  0.38813  0.25000  0.63813  1.0000 -0.9934718002
O   O90       1.0  0.38813  0.75000  0.13813  1.0000 -0.9934718002
O   O91       1.0  0.88813  0.25000  0.13813  1.0000 -0.9934718002
O   O92       1.0  0.88813  0.75000  0.63813  1.0000 -0.9934718002
O   O93       1.0  0.36187  0.75000  0.61187  1.0000 -0.9934718002
O   O94       1.0  0.36187  0.25000  0.11187  1.0000 -0.9934718002
O   O95       1.0  0.86187  0.75000  0.11187  1.0000 -0.9934718002
O   O96       1.0  0.86187  0.25000  0.61187  1.0000 -0.9934718002
O   O97       1.0  0.98310  0.07436  0.07436  1.0000 -0.8524366941
O   O98       1.0  0.98310  0.57436  0.57436  1.0000 -0.8524366941
O   O99       1.0  0.48310  0.07436  0.57436  1.0000 -0.8524366941
O   O100      1.0  0.48310  0.57436  0.07436  1.0000 -0.8524366941
O   O101      1.0  0.76690  0.17564  0.57436  1.0000 -0.8524366941
O   O102      1.0  0.76690  0.67564  0.07436  1.0000 -0.8524366941
O   O103      1.0  0.26690  0.57436  0.67564  1.0000 -0.8524366941
O   O104      1.0  0.26690  0.07436  0.17564  1.0000 -0.8524366941
O   O105      1.0  0.76690  0.07436  0.67564  1.0000 -0.8524366941
O   O106      1.0  0.48310  0.67564  0.17564  1.0000 -0.8524366941
O   O107      1.0  0.98310  0.67564  0.67564  1.0000 -0.8524366941
O   O108      1.0  0.07436  0.98310  0.07436  1.0000 -0.8524366941
O   O109      1.0  0.07436  0.48310  0.57436  1.0000 -0.8524366941
O   O110      1.0  0.57436  0.98310  0.57436  1.0000 -0.8524366941
O   O111      1.0  0.57436  0.48310  0.07436  1.0000 -0.8524366941
O   O112      1.0  0.57436  0.76690  0.17564  1.0000 -0.8524366941
O   O113      1.0  0.07436  0.76690  0.67564  1.0000 -0.8524366941
O   O114      1.0  0.67564  0.26690  0.57436  1.0000 -0.8524366941
O   O115      1.0  0.67564  0.76690  0.07436  1.0000 -0.8524366941
O   O116      1.0  0.17564  0.48310  0.67564  1.0000 -0.8524366941
O   O117      1.0  0.17564  0.98310  0.17564  1.0000 -0.8524366941
O   O118      1.0  0.67564  0.98310  0.67564  1.0000 -0.8524366941
O   O119      1.0  0.07436  0.07436  0.98310  1.0000 -0.8524366941
O   O120      1.0  0.07436  0.57436  0.48310  1.0000 -0.8524366941
O   O121      1.0  0.57436  0.07436  0.48310  1.0000 -0.8524366941
O   O122      1.0  0.57436  0.57436  0.98310  1.0000 -0.8524366941
O   O123      1.0  0.17564  0.57436  0.76690  1.0000 -0.8524366941
O   O124      1.0  0.17564  0.07436  0.26690  1.0000 -0.8524366941
O   O125      1.0  0.67564  0.07436  0.76690  1.0000 -0.8524366941
O   O126      1.0  0.57436  0.67564  0.26690  1.0000 -0.8524366941
O   O127      1.0  0.07436  0.67564  0.76690  1.0000 -0.8524366941
O   O128      1.0  0.67564  0.17564  0.48310  1.0000 -0.8524366941
O   O129      1.0  0.67564  0.67564  0.98310  1.0000 -0.8524366941
O   O130      1.0  0.82436  0.23310  0.42564  1.0000 -0.8524366941
O   O131      1.0  0.82436  0.73310  0.92564  1.0000 -0.8524366941
O   O132      1.0  0.92564  0.01690  0.92564  1.0000 -0.8524366941
O   O133      1.0  0.92564  0.51690  0.42564  1.0000 -0.8524366941
O   O134      1.0  0.42564  0.01690  0.42564  1.0000 -0.8524366941
O   O135      1.0  0.42564  0.51690  0.92564  1.0000 -0.8524366941
O   O136      1.0  0.32436  0.51690  0.82436  1.0000 -0.8524366941
O   O137      1.0  0.32436  0.01690  0.32436  1.0000 -0.8524366941
O   O138      1.0  0.82436  0.01690  0.82436  1.0000 -0.8524366941
O   O139      1.0  0.42564  0.73310  0.32436  1.0000 -0.8524366941
O   O140      1.0  0.92564  0.73310  0.82436  1.0000 -0.8524366941
O   O141      1.0  0.73310  0.32436  0.42564  1.0000 -0.8524366941
O   O142      1.0  0.73310  0.82436  0.92564  1.0000 -0.8524366941
O   O143      1.0  0.51690  0.82436  0.32436  1.0000 -0.8524366941
O   O144      1.0  0.01690  0.82436  0.82436  1.0000 -0.8524366941
O   O145      1.0  0.01690  0.92564  0.92564  1.0000 -0.8524366941
O   O146      1.0  0.01690  0.42564  0.42564  1.0000 -0.8524366941
O   O147      1.0  0.51690  0.92564  0.42564  1.0000 -0.8524366941
O   O148      1.0  0.51690  0.42564  0.92564  1.0000 -0.8524366941
O   O149      1.0  0.23310  0.42564  0.82436  1.0000 -0.8524366941
O   O150      1.0  0.23310  0.92564  0.32436  1.0000 -0.8524366941
O   O151      1.0  0.73310  0.92564  0.82436  1.0000 -0.8524366941
O   O152      1.0  0.82436  0.32436  0.51690  1.0000 -0.8524366941
O   O153      1.0  0.82436  0.82436  0.01690  1.0000 -0.8524366941
O   O154      1.0  0.32436  0.42564  0.73310  1.0000 -0.8524366941
O   O155      1.0  0.32436  0.92564  0.23310  1.0000 -0.8524366941
O   O156      1.0  0.82436  0.92564  0.73310  1.0000 -0.8524366941
O   O157      1.0  0.42564  0.82436  0.23310  1.0000 -0.8524366941
O   O158      1.0  0.92564  0.82436  0.73310  1.0000 -0.8524366941
O   O159      1.0  0.92564  0.92564  0.01690  1.0000 -0.8524366941
O   O160      1.0  0.92564  0.42564  0.51690  1.0000 -0.8524366941
O   O161      1.0  0.42564  0.92564  0.51690  1.0000 -0.8524366941
O   O162      1.0  0.42564  0.42564  0.01690  1.0000 -0.8524366941
O   O163      1.0  0.23310  0.82436  0.42564  1.0000 -0.8524366941
O   O164      1.0  0.23310  0.32436  0.92564  1.0000 -0.8524366941
O   O165      1.0  0.73310  0.42564  0.32436  1.0000 -0.8524366941
O   O166      1.0  0.51690  0.32436  0.82436  1.0000 -0.8524366941
O   O167      1.0  0.01690  0.32436  0.32436  1.0000 -0.8524366941
O   O168      1.0  0.42564  0.23310  0.82436  1.0000 -0.8524366941
O   O169      1.0  0.92564  0.23310  0.32436  1.0000 -0.8524366941
O   O170      1.0  0.32436  0.73310  0.42564  1.0000 -0.8524366941
O   O171      1.0  0.32436  0.23310  0.92564  1.0000 -0.8524366941
O   O172      1.0  0.82436  0.51690  0.32436  1.0000 -0.8524366941
O   O173      1.0  0.82436  0.42564  0.23310  1.0000 -0.8524366941
O   O174      1.0  0.42564  0.32436  0.73310  1.0000 -0.8524366941
O   O175      1.0  0.92564  0.32436  0.23310  1.0000 -0.8524366941
O   O176      1.0  0.32436  0.82436  0.51690  1.0000 -0.8524366941
O   O177      1.0  0.32436  0.32436  0.01690  1.0000 -0.8524366941
O   O178      1.0  0.17564  0.76690  0.57436  1.0000 -0.8524366941
O   O179      1.0  0.17564  0.26690  0.07436  1.0000 -0.8524366941
O   O180      1.0  0.67564  0.48310  0.17564  1.0000 -0.8524366941
O   O181      1.0  0.57436  0.26690  0.67564  1.0000 -0.8524366941
O   O182      1.0  0.07436  0.26690  0.17564  1.0000 -0.8524366941
O   O183      1.0  0.26690  0.67564  0.57436  1.0000 -0.8524366941
O   O184      1.0  0.26690  0.17564  0.07436  1.0000 -0.8524366941
O   O185      1.0  0.48310  0.17564  0.67564  1.0000 -0.8524366941
O   O186      1.0  0.98310  0.17564  0.17564  1.0000 -0.8524366941
O   O187      1.0  0.76690  0.57436  0.17564  1.0000 -0.8524366941
O   O188      1.0  0.17564  0.67564  0.48310  1.0000 -0.8524366941
O   O189      1.0  0.17564  0.17564  0.98310  1.0000 -0.8524366941
O   O190      1.0  0.67564  0.57436  0.26690  1.0000 -0.8524366941
O   O191      1.0  0.57436  0.17564  0.76690  1.0000 -0.8524366941
O   O192      1.0  0.07436  0.17564  0.26690  1.0000 -0.8524366941
O   O193      1.0  0.99879  0.14020  0.99879  1.0000 -0.9418409468
O   O194      1.0  0.99879  0.64020  0.49879  1.0000 -0.9418409468
O   O195      1.0  0.49879  0.14020  0.49879  1.0000 -0.9418409468
O   O196      1.0  0.49879  0.64020  0.99879  1.0000 -0.9418409468
O   O197      1.0  0.75121  0.10980  0.49879  1.0000 -0.9418409468
O   O198      1.0  0.75121  0.60980  0.99879  1.0000 -0.9418409468
O   O199      1.0  0.25121  0.64020  0.75121  1.0000 -0.9418409468
O   O200      1.0  0.25121  0.14020  0.25121  1.0000 -0.9418409468
O   O201      1.0  0.49879  0.60980  0.25121  1.0000 -0.9418409468
O   O202      1.0  0.99879  0.60980  0.75121  1.0000 -0.9418409468
O   O203      1.0  0.99879  0.99879  0.14020  1.0000 -0.9418409468
O   O204      1.0  0.99879  0.49879  0.64020  1.0000 -0.9418409468
O   O205      1.0  0.49879  0.99879  0.64020  1.0000 -0.9418409468
O   O206      1.0  0.49879  0.49879  0.14020  1.0000 -0.9418409468
O   O207      1.0  0.49879  0.75121  0.10980  1.0000 -0.9418409468
O   O208      1.0  0.99879  0.75121  0.60980  1.0000 -0.9418409468
O   O209      1.0  0.75121  0.25121  0.64020  1.0000 -0.9418409468
O   O210      1.0  0.75121  0.75121  0.14020  1.0000 -0.9418409468
O   O211      1.0  0.25121  0.49879  0.60980  1.0000 -0.9418409468
O   O212      1.0  0.25121  0.99879  0.10980  1.0000 -0.9418409468
O   O213      1.0  0.14020  0.99879  0.99879  1.0000 -0.9418409468
O   O214      1.0  0.14020  0.49879  0.49879  1.0000 -0.9418409468
O   O215      1.0  0.64020  0.99879  0.49879  1.0000 -0.9418409468
O   O216      1.0  0.64020  0.49879  0.99879  1.0000 -0.9418409468
O   O217      1.0  0.10980  0.49879  0.75121  1.0000 -0.9418409468
O   O218      1.0  0.10980  0.99879  0.25121  1.0000 -0.9418409468
O   O219      1.0  0.64020  0.75121  0.25121  1.0000 -0.9418409468
O   O220      1.0  0.14020  0.75121  0.75121  1.0000 -0.9418409468
O   O221      1.0  0.60980  0.25121  0.49879  1.0000 -0.9418409468
O   O222      1.0  0.60980  0.75121  0.99879  1.0000 -0.9418409468
O   O223      1.0  0.89020  0.24879  0.50121  1.0000 -0.9418409468
O   O224      1.0  0.89020  0.74879  0.00121  1.0000 -0.9418409468
O   O225      1.0  0.85980  0.00121  0.00121  1.0000 -0.9418409468
O   O226      1.0  0.85980  0.50121  0.50121  1.0000 -0.9418409468
O   O227      1.0  0.35980  0.00121  0.50121  1.0000 -0.9418409468
O   O228      1.0  0.35980  0.50121  0.00121  1.0000 -0.9418409468
O   O229      1.0  0.39020  0.50121  0.74879  1.0000 -0.9418409468
O   O230      1.0  0.39020  0.00121  0.24879  1.0000 -0.9418409468
O   O231      1.0  0.35980  0.74879  0.24879  1.0000 -0.9418409468
O   O232      1.0  0.85980  0.74879  0.74879  1.0000 -0.9418409468
O   O233      1.0  0.74879  0.24879  0.35980  1.0000 -0.9418409468
O   O234      1.0  0.74879  0.74879  0.85980  1.0000 -0.9418409468
O   O235      1.0  0.50121  0.74879  0.39020  1.0000 -0.9418409468
O   O236      1.0  0.00121  0.74879  0.89020  1.0000 -0.9418409468
O   O237      1.0  0.00121  0.00121  0.85980  1.0000 -0.9418409468
O   O238      1.0  0.00121  0.50121  0.35980  1.0000 -0.9418409468
O   O239      1.0  0.50121  0.00121  0.35980  1.0000 -0.9418409468
O   O240      1.0  0.50121  0.50121  0.85980  1.0000 -0.9418409468
O   O241      1.0  0.24879  0.50121  0.89020  1.0000 -0.9418409468
O   O242      1.0  0.24879  0.00121  0.39020  1.0000 -0.9418409468
O   O243      1.0  0.74879  0.39020  0.50121  1.0000 -0.9418409468
O   O244      1.0  0.74879  0.89020  0.00121  1.0000 -0.9418409468
O   O245      1.0  0.24879  0.35980  0.74879  1.0000 -0.9418409468
O   O246      1.0  0.24879  0.85980  0.24879  1.0000 -0.9418409468
O   O247      1.0  0.50121  0.89020  0.24879  1.0000 -0.9418409468
O   O248      1.0  0.00121  0.89020  0.74879  1.0000 -0.9418409468
O   O249      1.0  0.00121  0.85980  0.00121  1.0000 -0.9418409468
O   O250      1.0  0.00121  0.35980  0.50121  1.0000 -0.9418409468
O   O251      1.0  0.50121  0.85980  0.50121  1.0000 -0.9418409468
O   O252      1.0  0.50121  0.35980  0.00121  1.0000 -0.9418409468
O   O253      1.0  0.24879  0.89020  0.50121  1.0000 -0.9418409468
O   O254      1.0  0.24879  0.39020  0.00121  1.0000 -0.9418409468
O   O255      1.0  0.74879  0.35980  0.24879  1.0000 -0.9418409468
O   O256      1.0  0.74879  0.85980  0.74879  1.0000 -0.9418409468
O   O257      1.0  0.50121  0.39020  0.74879  1.0000 -0.9418409468
O   O258      1.0  0.00121  0.39020  0.24879  1.0000 -0.9418409468
O   O259      1.0  0.50121  0.24879  0.89020  1.0000 -0.9418409468
O   O260      1.0  0.00121  0.24879  0.39020  1.0000 -0.9418409468
O   O261      1.0  0.24879  0.74879  0.35980  1.0000 -0.9418409468
O   O262      1.0  0.24879  0.24879  0.85980  1.0000 -0.9418409468
O   O263      1.0  0.74879  0.50121  0.39020  1.0000 -0.9418409468
O   O264      1.0  0.74879  0.00121  0.89020  1.0000 -0.9418409468
O   O265      1.0  0.89020  0.50121  0.24879  1.0000 -0.9418409468
O   O266      1.0  0.89020  0.00121  0.74879  1.0000 -0.9418409468
O   O267      1.0  0.35980  0.24879  0.74879  1.0000 -0.9418409468
O   O268      1.0  0.85980  0.24879  0.24879  1.0000 -0.9418409468
O   O269      1.0  0.39020  0.74879  0.50121  1.0000 -0.9418409468
O   O270      1.0  0.39020  0.24879  0.00121  1.0000 -0.9418409468
O   O271      1.0  0.10980  0.75121  0.49879  1.0000 -0.9418409468
O   O272      1.0  0.10980  0.25121  0.99879  1.0000 -0.9418409468
O   O273      1.0  0.60980  0.49879  0.25121  1.0000 -0.9418409468
O   O274      1.0  0.60980  0.99879  0.75121  1.0000 -0.9418409468
O   O275      1.0  0.64020  0.25121  0.75121  1.0000 -0.9418409468
O   O276      1.0  0.14020  0.25121  0.25121  1.0000 -0.9418409468
O   O277      1.0  0.25121  0.75121  0.64020  1.0000 -0.9418409468
O   O278      1.0  0.25121  0.25121  0.14020  1.0000 -0.9418409468
O   O279      1.0  0.49879  0.25121  0.60980  1.0000 -0.9418409468
O   O280      1.0  0.99879  0.25121  0.10980  1.0000 -0.9418409468
O   O281      1.0  0.75121  0.49879  0.10980  1.0000 -0.9418409468
O   O282      1.0  0.75121  0.99879  0.60980  1.0000 -0.9418409468
O   O283      1.0  0.25121  0.60980  0.49879  1.0000 -0.9418409468
O   O284      1.0  0.25121  0.10980  0.99879  1.0000 -0.9418409468
O   O285      1.0  0.75121  0.64020  0.25121  1.0000 -0.9418409468
O   O286      1.0  0.75121  0.14020  0.75121  1.0000 -0.9418409468
O   O287      1.0  0.49879  0.10980  0.75121  1.0000 -0.9418409468
O   O288      1.0  0.99879  0.10980  0.25121  1.0000 -0.9418409468
O   O289      1.0  0.93000  0.18000  0.07000  1.0000 -0.9989704405
O   O290      1.0  0.93000  0.68000  0.57000  1.0000 -0.9989704405
O   O291      1.0  0.43000  0.18000  0.57000  1.0000 -0.9989704405
O   O292      1.0  0.82000  0.07000  0.57000  1.0000 -0.9989704405
O   O293      1.0  0.32000  0.07000  0.07000  1.0000 -0.9989704405
O   O294      1.0  0.32000  0.57000  0.57000  1.0000 -0.9989704405
O   O295      1.0  0.32000  0.68000  0.68000  1.0000 -0.9989704405
O   O296      1.0  0.32000  0.18000  0.18000  1.0000 -0.9989704405
O   O297      1.0  0.82000  0.68000  0.18000  1.0000 -0.9989704405
O   O298      1.0  0.82000  0.18000  0.68000  1.0000 -0.9989704405
O   O299      1.0  0.43000  0.57000  0.18000  1.0000 -0.9989704405
O   O300      1.0  0.43000  0.07000  0.68000  1.0000 -0.9989704405
O   O301      1.0  0.07000  0.93000  0.18000  1.0000 -0.9989704405
O   O302      1.0  0.07000  0.43000  0.68000  1.0000 -0.9989704405
O   O303      1.0  0.57000  0.43000  0.18000  1.0000 -0.9989704405
O   O304      1.0  0.57000  0.82000  0.07000  1.0000 -0.9989704405
O   O305      1.0  0.57000  0.32000  0.57000  1.0000 -0.9989704405
O   O306      1.0  0.68000  0.32000  0.68000  1.0000 -0.9989704405
O   O307      1.0  0.68000  0.82000  0.18000  1.0000 -0.9989704405
O   O308      1.0  0.18000  0.32000  0.18000  1.0000 -0.9989704405
O   O309      1.0  0.18000  0.82000  0.68000  1.0000 -0.9989704405
O   O310      1.0  0.18000  0.43000  0.57000  1.0000 -0.9989704405
O   O311      1.0  0.68000  0.43000  0.07000  1.0000 -0.9989704405
O   O312      1.0  0.18000  0.07000  0.93000  1.0000 -0.9989704405
O   O313      1.0  0.18000  0.57000  0.43000  1.0000 -0.9989704405
O   O314      1.0  0.68000  0.07000  0.43000  1.0000 -0.9989704405
O   O315      1.0  0.07000  0.57000  0.82000  1.0000 -0.9989704405
O   O316      1.0  0.07000  0.07000  0.32000  1.0000 -0.9989704405
O   O317      1.0  0.57000  0.57000  0.32000  1.0000 -0.9989704405
O   O318      1.0  0.68000  0.68000  0.32000  1.0000 -0.9989704405
O   O319      1.0  0.68000  0.18000  0.82000  1.0000 -0.9989704405
O   O320      1.0  0.18000  0.68000  0.82000  1.0000 -0.9989704405
O   O321      1.0  0.18000  0.18000  0.32000  1.0000 -0.9989704405
O   O322      1.0  0.57000  0.18000  0.43000  1.0000 -0.9989704405
O   O323      1.0  0.57000  0.68000  0.93000  1.0000 -0.9989704405
O   O324      1.0  0.93000  0.18000  0.43000  1.0000 -0.9989704405
O   O325      1.0  0.93000  0.68000  0.93000  1.0000 -0.9989704405
O   O326      1.0  0.82000  0.07000  0.93000  1.0000 -0.9989704405
O   O327      1.0  0.32000  0.07000  0.43000  1.0000 -0.9989704405
O   O328      1.0  0.43000  0.57000  0.82000  1.0000 -0.9989704405
O   O329      1.0  0.43000  0.07000  0.32000  1.0000 -0.9989704405
O   O330      1.0  0.32000  0.68000  0.32000  1.0000 -0.9989704405
O   O331      1.0  0.32000  0.18000  0.82000  1.0000 -0.9989704405
O   O332      1.0  0.82000  0.68000  0.82000  1.0000 -0.9989704405
O   O333      1.0  0.82000  0.18000  0.32000  1.0000 -0.9989704405
O   O334      1.0  0.68000  0.32000  0.32000  1.0000 -0.9989704405
O   O335      1.0  0.68000  0.82000  0.82000  1.0000 -0.9989704405
O   O336      1.0  0.18000  0.32000  0.82000  1.0000 -0.9989704405
O   O337      1.0  0.18000  0.82000  0.32000  1.0000 -0.9989704405
O   O338      1.0  0.57000  0.82000  0.43000  1.0000 -0.9989704405
O   O339      1.0  0.57000  0.32000  0.93000  1.0000 -0.9989704405
O   O340      1.0  0.07000  0.93000  0.82000  1.0000 -0.9989704405
O   O341      1.0  0.07000  0.43000  0.32000  1.0000 -0.9989704405
O   O342      1.0  0.18000  0.43000  0.93000  1.0000 -0.9989704405
O   O343      1.0  0.68000  0.43000  0.43000  1.0000 -0.9989704405
O   O344      1.0  0.68000  0.93000  0.93000  1.0000 -0.9989704405
O   O345      1.0  0.82000  0.43000  0.57000  1.0000 -0.9989704405
O   O346      1.0  0.32000  0.43000  0.07000  1.0000 -0.9989704405
O   O347      1.0  0.32000  0.32000  0.68000  1.0000 -0.9989704405
O   O348      1.0  0.32000  0.82000  0.18000  1.0000 -0.9989704405
O   O349      1.0  0.82000  0.32000  0.18000  1.0000 -0.9989704405
O   O350      1.0  0.82000  0.82000  0.68000  1.0000 -0.9989704405
O   O351      1.0  0.43000  0.93000  0.18000  1.0000 -0.9989704405
O   O352      1.0  0.43000  0.43000  0.68000  1.0000 -0.9989704405
O   O353      1.0  0.93000  0.93000  0.68000  1.0000 -0.9989704405
O   O354      1.0  0.93000  0.82000  0.07000  1.0000 -0.9989704405
O   O355      1.0  0.93000  0.32000  0.57000  1.0000 -0.9989704405
O   O356      1.0  0.07000  0.82000  0.93000  1.0000 -0.9989704405
O   O357      1.0  0.07000  0.32000  0.43000  1.0000 -0.9989704405
O   O358      1.0  0.18000  0.93000  0.43000  1.0000 -0.9989704405
O   O359      1.0  0.57000  0.43000  0.82000  1.0000 -0.9989704405
O   O360      1.0  0.57000  0.93000  0.32000  1.0000 -0.9989704405
O   O361      1.0  0.93000  0.07000  0.82000  1.0000 -0.9989704405
O   O362      1.0  0.93000  0.57000  0.32000  1.0000 -0.9989704405
O   O363      1.0  0.43000  0.18000  0.93000  1.0000 -0.9989704405
O   O364      1.0  0.43000  0.68000  0.43000  1.0000 -0.9989704405
O   O365      1.0  0.82000  0.57000  0.43000  1.0000 -0.9989704405
O   O366      1.0  0.32000  0.57000  0.93000  1.0000 -0.9989704405
O   O367      1.0  0.82000  0.93000  0.07000  1.0000 -0.9989704405
O   O368      1.0  0.32000  0.93000  0.57000  1.0000 -0.9989704405
O   O369      1.0  0.93000  0.43000  0.18000  1.0000 -0.9989704405
O   O370      1.0  0.43000  0.82000  0.57000  1.0000 -0.9989704405
O   O371      1.0  0.43000  0.32000  0.07000  1.0000 -0.9989704405
O   O372      1.0  0.07000  0.82000  0.57000  1.0000 -0.9989704405
O   O373      1.0  0.07000  0.32000  0.07000  1.0000 -0.9989704405
O   O374      1.0  0.18000  0.93000  0.07000  1.0000 -0.9989704405
O   O375      1.0  0.68000  0.93000  0.57000  1.0000 -0.9989704405
O   O376      1.0  0.57000  0.93000  0.68000  1.0000 -0.9989704405
O   O377      1.0  0.43000  0.68000  0.07000  1.0000 -0.9989704405
O   O378      1.0  0.93000  0.07000  0.18000  1.0000 -0.9989704405
O   O379      1.0  0.93000  0.57000  0.68000  1.0000 -0.9989704405
O   O380      1.0  0.82000  0.57000  0.07000  1.0000 -0.9989704405
O   O381      1.0  0.68000  0.57000  0.93000  1.0000 -0.9989704405
O   O382      1.0  0.57000  0.07000  0.82000  1.0000 -0.9989704405
O   O383      1.0  0.07000  0.18000  0.93000  1.0000 -0.9989704405
O   O384      1.0  0.07000  0.68000  0.43000  1.0000 -0.9989704405
Ni  Ni1       1.0  0.01890  0.23110  0.01890  1.0000 0.8636516846
Ni  Ni2       1.0  0.73110  0.01890  0.51890  1.0000 0.8636516846
Ni  Ni3       1.0  0.23110  0.01890  0.01890  1.0000 0.8636516846
Ni  Ni4       1.0  0.23110  0.73110  0.73110  1.0000 0.8636516846
Ni  Ni5       1.0  0.23110  0.23110  0.23110  1.0000 0.8636516846
Ni  Ni6       1.0  0.51890  0.51890  0.23110  1.0000 0.8636516846
Ni  Ni7       1.0  0.01890  0.01890  0.23110  1.0000 0.8636516846
Ni  Ni8       1.0  0.51890  0.73110  0.01890  1.0000 0.8636516846
Ni  Ni9       1.0  0.73110  0.23110  0.73110  1.0000 0.8636516846
Ni  Ni10      1.0  0.23110  0.51890  0.51890  1.0000 0.8636516846
Ni  Ni11      1.0  0.01890  0.51890  0.73110  1.0000 0.8636516846
Ni  Ni12      1.0  0.73110  0.73110  0.23110  1.0000 0.8636516846
Ni  Ni13      1.0  0.51890  0.23110  0.51890  1.0000 0.8636516846
Ni  Ni14      1.0  0.98110  0.26890  0.48110  1.0000 0.8636516846
Ni  Ni15      1.0  0.76890  0.98110  0.98110  1.0000 0.8636516846
Ni  Ni16      1.0  0.48110  0.48110  0.76890  1.0000 0.8636516846
Ni  Ni17      1.0  0.26890  0.76890  0.26890  1.0000 0.8636516846
Ni  Ni18      1.0  0.76890  0.26890  0.26890  1.0000 0.8636516846
Ni  Ni19      1.0  0.76890  0.76890  0.76890  1.0000 0.8636516846
Ni  Ni20      1.0  0.48110  0.76890  0.48110  1.0000 0.8636516846
Ni  Ni21      1.0  0.98110  0.98110  0.76890  1.0000 0.8636516846
Ni  Ni22      1.0  0.26890  0.48110  0.98110  1.0000 0.8636516846
Ni  Ni23      1.0  0.76890  0.48110  0.48110  1.0000 0.8636516846
Ni  Ni24      1.0  0.26890  0.26890  0.76890  1.0000 0.8636516846
Ni  Ni25      1.0  0.48110  0.98110  0.26890  1.0000 0.8636516846
Ni  Ni26      1.0  0.98110  0.76890  0.98110  1.0000 0.8636516846
Ni  Ni27      1.0  0.26890  0.98110  0.48110  1.0000 0.8636516846
Ni  Ni28      1.0  0.48110  0.26890  0.98110  1.0000 0.8636516846
Ni  Ni29      1.0  0.98110  0.48110  0.26890  1.0000 0.8636516846
Ni  Ni30      1.0  0.01890  0.73110  0.51890  1.0000 0.8636516846
Ni  Ni31      1.0  0.73110  0.51890  0.01890  1.0000 0.8636516846
Ni  Ni32      1.0  0.51890  0.01890  0.73110  1.0000 0.8636516846
  Si  Si97      1.0  0.94930  0.11570  0.03832  1.0000
  Al  Al97      1.0  0.88430  0.05070  0.96168  1.0000
  Si  Si98      1.0  0.94930  0.61570  0.53832  1.0000
  Al  Al98      1.0  0.88430  0.55070  0.46168  1.0000
  Si  Si99      1.0  0.44930  0.11570  0.53832  1.0000
  Al  Al99      1.0  0.38430  0.05070  0.46168  1.0000
  Si  Si100     1.0  0.44930  0.61570  0.03832  1.0000
  Al  Al100     1.0  0.38430  0.55070  0.96168  1.0000
  Si  Si101     1.0  0.80070  0.13430  0.53832  1.0000
  Al  Al101     1.0  0.86570  0.19930  0.46168  1.0000
  Si  Si102     1.0  0.80070  0.63430  0.03832  1.0000
  Al  Al102     1.0  0.86570  0.69930  0.96168  1.0000
  Si  Si103     1.0  0.30070  0.13430  0.03832  1.0000
  Al  Al103     1.0  0.36570  0.19930  0.96168  1.0000
  Si  Si104     1.0  0.30070  0.63430  0.53832  1.0000
  Al  Al104     1.0  0.36570  0.69930  0.46168  1.0000
  Si  Si105     1.0  0.30070  0.61570  0.71168  1.0000
  Al  Al105     1.0  0.36570  0.55070  0.78832  1.0000
  Si  Si106     1.0  0.30070  0.11570  0.21168  1.0000
  Al  Al106     1.0  0.36570  0.05070  0.28832  1.0000
  Si  Si107     1.0  0.80070  0.61570  0.21168  1.0000
  Al  Al107     1.0  0.86570  0.55070  0.28832  1.0000
  Si  Si108     1.0  0.80070  0.11570  0.71168  1.0000
  Al  Al108     1.0  0.86570  0.05070  0.78832  1.0000
  Si  Si109     1.0  0.44930  0.63430  0.21168  1.0000
  Al  Al109     1.0  0.38430  0.69930  0.28832  1.0000
  Si  Si110     1.0  0.44930  0.13430  0.71168  1.0000
  Al  Al110     1.0  0.38430  0.19930  0.78832  1.0000
  Si  Si111     1.0  0.94930  0.63430  0.71168  1.0000
  Al  Al111     1.0  0.88430  0.69930  0.78832  1.0000
  Si  Si112     1.0  0.94930  0.13430  0.21168  1.0000
  Al  Al112     1.0  0.88430  0.19930  0.28832  1.0000
  Si  Si113     1.0  0.03832  0.94930  0.11570  1.0000
  Al  Al113     1.0  0.96168  0.88430  0.05070  1.0000
  Si  Si114     1.0  0.03832  0.44930  0.61570  1.0000
  Al  Al114     1.0  0.96168  0.38430  0.55070  1.0000
  Si  Si115     1.0  0.53832  0.94930  0.61570  1.0000
  Al  Al115     1.0  0.46168  0.88430  0.55070  1.0000
  Si  Si116     1.0  0.53832  0.44930  0.11570  1.0000
  Al  Al116     1.0  0.46168  0.38430  0.05070  1.0000
  Si  Si117     1.0  0.53832  0.80070  0.13430  1.0000
  Al  Al117     1.0  0.46168  0.86570  0.19930  1.0000
  Si  Si118     1.0  0.53832  0.30070  0.63430  1.0000
  Al  Al118     1.0  0.46168  0.36570  0.69930  1.0000
  Si  Si119     1.0  0.03832  0.80070  0.63430  1.0000
  Al  Al119     1.0  0.96168  0.86570  0.69930  1.0000
  Si  Si120     1.0  0.03832  0.30070  0.13430  1.0000
  Al  Al120     1.0  0.96168  0.36570  0.19930  1.0000
  Si  Si121     1.0  0.71168  0.30070  0.61570  1.0000
  Al  Al121     1.0  0.78832  0.36570  0.55070  1.0000
  Si  Si122     1.0  0.71168  0.80070  0.11570  1.0000
  Al  Al122     1.0  0.78832  0.86570  0.05070  1.0000
  Si  Si123     1.0  0.21168  0.30070  0.11570  1.0000
  Al  Al123     1.0  0.28832  0.36570  0.05070  1.0000
  Si  Si124     1.0  0.21168  0.80070  0.61570  1.0000
  Al  Al124     1.0  0.28832  0.86570  0.55070  1.0000
  Si  Si125     1.0  0.21168  0.44930  0.63430  1.0000
  Al  Al125     1.0  0.28832  0.38430  0.69930  1.0000
  Si  Si126     1.0  0.21168  0.94930  0.13430  1.0000
  Al  Al126     1.0  0.28832  0.88430  0.19930  1.0000
  Si  Si127     1.0  0.71168  0.44930  0.13430  1.0000
  Al  Al127     1.0  0.78832  0.38430  0.19930  1.0000
  Si  Si128     1.0  0.71168  0.94930  0.63430  1.0000
  Al  Al128     1.0  0.78832  0.88430  0.69930  1.0000
  Si  Si129     1.0  0.11570  0.03832  0.94930  1.0000
  Al  Al129     1.0  0.05070  0.96168  0.88430  1.0000
  Si  Si130     1.0  0.11570  0.53832  0.44930  1.0000
  Al  Al130     1.0  0.05070  0.46168  0.38430  1.0000
  Si  Si131     1.0  0.61570  0.03832  0.44930  1.0000
  Al  Al131     1.0  0.55070  0.96168  0.38430  1.0000
  Si  Si132     1.0  0.61570  0.53832  0.94930  1.0000
  Al  Al132     1.0  0.55070  0.46168  0.88430  1.0000
  Si  Si133     1.0  0.13430  0.53832  0.80070  1.0000
  Al  Al133     1.0  0.19930  0.46168  0.86570  1.0000
  Si  Si134     1.0  0.13430  0.03832  0.30070  1.0000
  Al  Al134     1.0  0.19930  0.96168  0.36570  1.0000
  Si  Si135     1.0  0.63430  0.53832  0.30070  1.0000
  Al  Al135     1.0  0.69930  0.46168  0.36570  1.0000
  Si  Si136     1.0  0.63430  0.03832  0.80070  1.0000
  Al  Al136     1.0  0.69930  0.96168  0.86570  1.0000
  Si  Si137     1.0  0.61570  0.71168  0.30070  1.0000
  Al  Al137     1.0  0.55070  0.78832  0.36570  1.0000
  Si  Si138     1.0  0.61570  0.21168  0.80070  1.0000
  Al  Al138     1.0  0.55070  0.28832  0.86570  1.0000
  Si  Si139     1.0  0.11570  0.71168  0.80070  1.0000
  Al  Al139     1.0  0.05070  0.78832  0.86570  1.0000
  Si  Si140     1.0  0.11570  0.21168  0.30070  1.0000
  Al  Al140     1.0  0.05070  0.28832  0.36570  1.0000
  Si  Si141     1.0  0.63430  0.21168  0.44930  1.0000
  Al  Al141     1.0  0.69930  0.28832  0.38430  1.0000
  Si  Si142     1.0  0.63430  0.71168  0.94930  1.0000
  Al  Al142     1.0  0.69930  0.78832  0.88430  1.0000
  Si  Si143     1.0  0.13430  0.21168  0.94930  1.0000
  Al  Al143     1.0  0.19930  0.28832  0.88430  1.0000
  Si  Si144     1.0  0.13430  0.71168  0.44930  1.0000
  Al  Al144     1.0  0.19930  0.78832  0.38430  1.0000
  Si  Si145     1.0  0.05070  0.88430  0.96168  1.0000
  Al  Al145     1.0  0.11570  0.94930  0.03832  1.0000
  Si  Si146     1.0  0.05070  0.38430  0.46168  1.0000
  Al  Al146     1.0  0.11570  0.44930  0.53832  1.0000
  Si  Si147     1.0  0.55070  0.88430  0.46168  1.0000
  Al  Al147     1.0  0.61570  0.94930  0.53832  1.0000
  Si  Si148     1.0  0.55070  0.38430  0.96168  1.0000
  Al  Al148     1.0  0.61570  0.44930  0.03832  1.0000
  Si  Si149     1.0  0.19930  0.86570  0.46168  1.0000
  Al  Al149     1.0  0.13430  0.80070  0.53832  1.0000
  Si  Si150     1.0  0.19930  0.36570  0.96168  1.0000
  Al  Al150     1.0  0.13430  0.30070  0.03832  1.0000
  Si  Si151     1.0  0.69930  0.86570  0.96168  1.0000
  Al  Al151     1.0  0.63430  0.80070  0.03832  1.0000
  Si  Si152     1.0  0.69930  0.36570  0.46168  1.0000
  Al  Al152     1.0  0.63430  0.30070  0.53832  1.0000
  Si  Si153     1.0  0.69930  0.38430  0.28832  1.0000
  Al  Al153     1.0  0.63430  0.44930  0.21168  1.0000
  Si  Si154     1.0  0.69930  0.88430  0.78832  1.0000
  Al  Al154     1.0  0.63430  0.94930  0.71168  1.0000
  Si  Si155     1.0  0.19930  0.38430  0.78832  1.0000
  Al  Al155     1.0  0.13430  0.44930  0.71168  1.0000
  Si  Si156     1.0  0.19930  0.88430  0.28832  1.0000
  Al  Al156     1.0  0.13430  0.94930  0.21168  1.0000
  Si  Si157     1.0  0.55070  0.36570  0.78832  1.0000
  Al  Al157     1.0  0.61570  0.30070  0.71168  1.0000
  Si  Si158     1.0  0.55070  0.86570  0.28832  1.0000
  Al  Al158     1.0  0.61570  0.80070  0.21168  1.0000
  Si  Si159     1.0  0.05070  0.36570  0.28832  1.0000
  Al  Al159     1.0  0.11570  0.30070  0.21168  1.0000
  Si  Si160     1.0  0.05070  0.86570  0.78832  1.0000
  Al  Al160     1.0  0.11570  0.80070  0.71168  1.0000
  Si  Si161     1.0  0.96168  0.05070  0.88430  1.0000
  Al  Al161     1.0  0.03832  0.11570  0.94930  1.0000
  Si  Si162     1.0  0.96168  0.55070  0.38430  1.0000
  Al  Al162     1.0  0.03832  0.61570  0.44930  1.0000
  Si  Si163     1.0  0.46168  0.05070  0.38430  1.0000
  Al  Al163     1.0  0.53832  0.11570  0.44930  1.0000
  Si  Si164     1.0  0.46168  0.55070  0.88430  1.0000
  Al  Al164     1.0  0.53832  0.61570  0.94930  1.0000
  Si  Si165     1.0  0.46168  0.19930  0.86570  1.0000
  Al  Al165     1.0  0.53832  0.13430  0.80070  1.0000
  Si  Si166     1.0  0.46168  0.69930  0.36570  1.0000
  Al  Al166     1.0  0.53832  0.63430  0.30070  1.0000
  Si  Si167     1.0  0.96168  0.19930  0.36570  1.0000
  Al  Al167     1.0  0.03832  0.13430  0.30070  1.0000
  Si  Si168     1.0  0.96168  0.69930  0.86570  1.0000
  Al  Al168     1.0  0.03832  0.63430  0.80070  1.0000
  Si  Si169     1.0  0.28832  0.69930  0.38430  1.0000
  Al  Al169     1.0  0.21168  0.63430  0.44930  1.0000
  Si  Si170     1.0  0.28832  0.19930  0.88430  1.0000
  Al  Al170     1.0  0.21168  0.13430  0.94930  1.0000
  Si  Si171     1.0  0.78832  0.69930  0.88430  1.0000
  Al  Al171     1.0  0.71168  0.63430  0.94930  1.0000
  Si  Si172     1.0  0.78832  0.19930  0.38430  1.0000
  Al  Al172     1.0  0.71168  0.13430  0.44930  1.0000
  Si  Si173     1.0  0.78832  0.55070  0.36570  1.0000
  Al  Al173     1.0  0.71168  0.61570  0.30070  1.0000
  Si  Si174     1.0  0.78832  0.05070  0.86570  1.0000
  Al  Al174     1.0  0.71168  0.11570  0.80070  1.0000
  Si  Si175     1.0  0.28832  0.55070  0.86570  1.0000
  Al  Al175     1.0  0.21168  0.61570  0.80070  1.0000
  Si  Si176     1.0  0.28832  0.05070  0.36570  1.0000
  Al  Al176     1.0  0.21168  0.11570  0.30070  1.0000
  Si  Si177     1.0  0.88430  0.96168  0.05070  1.0000
  Al  Al177     1.0  0.94930  0.03832  0.11570  1.0000
  Si  Si178     1.0  0.88430  0.46168  0.55070  1.0000
  Al  Al178     1.0  0.94930  0.53832  0.61570  1.0000
  Si  Si179     1.0  0.38430  0.96168  0.55070  1.0000
  Al  Al179     1.0  0.44930  0.03832  0.61570  1.0000
  Si  Si180     1.0  0.38430  0.46168  0.05070  1.0000
  Al  Al180     1.0  0.44930  0.53832  0.11570  1.0000
  Si  Si181     1.0  0.86570  0.46168  0.19930  1.0000
  Al  Al181     1.0  0.80070  0.53832  0.13430  1.0000
  Si  Si182     1.0  0.86570  0.96168  0.69930  1.0000
  Al  Al182     1.0  0.80070  0.03832  0.63430  1.0000
  Si  Si183     1.0  0.36570  0.46168  0.69930  1.0000
  Al  Al183     1.0  0.30070  0.53832  0.63430  1.0000
  Si  Si184     1.0  0.36570  0.96168  0.19930  1.0000
  Al  Al184     1.0  0.30070  0.03832  0.13430  1.0000
  Si  Si185     1.0  0.38430  0.28832  0.69930  1.0000
  Al  Al185     1.0  0.44930  0.21168  0.63430  1.0000
  Si  Si186     1.0  0.38430  0.78832  0.19930  1.0000
  Al  Al186     1.0  0.44930  0.71168  0.13430  1.0000
  Si  Si187     1.0  0.88430  0.28832  0.19930  1.0000
  Al  Al187     1.0  0.94930  0.21168  0.13430  1.0000
  Si  Si188     1.0  0.88430  0.78832  0.69930  1.0000
  Al  Al188     1.0  0.94930  0.71168  0.63430  1.0000
  Si  Si189     1.0  0.36570  0.78832  0.55070  1.0000
  Al  Al189     1.0  0.30070  0.71168  0.61570  1.0000
  Si  Si190     1.0  0.36570  0.28832  0.05070  1.0000
  Al  Al190     1.0  0.30070  0.21168  0.11570  1.0000
  Si  Si191     1.0  0.86570  0.78832  0.05070  1.0000
  Al  Al191     1.0  0.80070  0.71168  0.11570  1.0000
  Si  Si192     1.0  0.86570  0.28832  0.55070  1.0000
  Al  Al192     1.0  0.80070  0.21168  0.61570  1.0000
