# DDEC6 charges by PACMAN v1.1 (https://github.com/mtap-research/PACMAN-charge/)
data_JUQFAF_FSR_pacman
_chemical_formula_sum              "Si96 Al96 O384 Ni32 Na32"
_cell_length_a       24.845
_cell_length_b       24.845
_cell_length_c       24.845
_cell_angle_alpha    90
_cell_angle_beta     90
_cell_angle_gamma    90

_symmetry_space_group_name_H-M    "P 1"
_symmetry_Int_Tables_number       1

loop_
  _symmetry_equiv_pos_as_xyz
  'x, y, z'

loop_
  _atom_site_type_symbol
  _atom_site_label
  _atom_site_symmetry_multiplicity
  _atom_site_fract_x
  _atom_site_fract_y
  _atom_site_fract_z
  _atom_site_occupancy
 _atom_site_charge
Si  Si1       1.0  0.93700  0.11300  0.02370  1.0000 1.2202898911
Al  Al1       1.0  0.88700  0.06300  0.97630  1.0000 1.3900865616
Si  Si2       1.0  0.93700  0.61300  0.52370  1.0000 1.2202898911
Al  Al2       1.0  0.88700  0.56300  0.47630  1.0000 1.3900865616
Si  Si3       1.0  0.43700  0.11300  0.52370  1.0000 1.2202898911
Al  Al3       1.0  0.38700  0.06300  0.47630  1.0000 1.3900865616
Si  Si4       1.0  0.43700  0.61300  0.02370  1.0000 1.2202898911
Al  Al4       1.0  0.38700  0.56300  0.97630  1.0000 1.3900865616
Si  Si5       1.0  0.81300  0.13700  0.52370  1.0000 1.2202898911
Al  Al5       1.0  0.86300  0.18700  0.47630  1.0000 1.3900865616
Si  Si6       1.0  0.81300  0.63700  0.02370  1.0000 1.2202898911
Al  Al6       1.0  0.86300  0.68700  0.97630  1.0000 1.3900865616
Si  Si7       1.0  0.31300  0.13700  0.02370  1.0000 1.2202898911
Al  Al7       1.0  0.36300  0.18700  0.97630  1.0000 1.3900865616
Si  Si8       1.0  0.31300  0.63700  0.52370  1.0000 1.2202898911
Al  Al8       1.0  0.36300  0.68700  0.47630  1.0000 1.3900865616
Si  Si9       1.0  0.31300  0.61300  0.72630  1.0000 1.2202898911
Al  Al9       1.0  0.36300  0.56300  0.77370  1.0000 1.3900865616
Si  Si10      1.0  0.31300  0.11300  0.22630  1.0000 1.2202898911
Al  Al10      1.0  0.36300  0.06300  0.27370  1.0000 1.3900865616
Si  Si11      1.0  0.81300  0.61300  0.22630  1.0000 1.2202898911
Al  Al11      1.0  0.86300  0.56300  0.27370  1.0000 1.3900865616
Si  Si12      1.0  0.81300  0.11300  0.72630  1.0000 1.2202898911
Al  Al12      1.0  0.86300  0.06300  0.77370  1.0000 1.3900865616
Si  Si13      1.0  0.43700  0.63700  0.22630  1.0000 1.2202898911
Al  Al13      1.0  0.38700  0.68700  0.27370  1.0000 1.3900865616
Si  Si14      1.0  0.43700  0.13700  0.72630  1.0000 1.2202898911
Al  Al14      1.0  0.38700  0.18700  0.77370  1.0000 1.3900865616
Si  Si15      1.0  0.93700  0.63700  0.72630  1.0000 1.2202898911
Al  Al15      1.0  0.88700  0.68700  0.77370  1.0000 1.3900865616
Si  Si16      1.0  0.93700  0.13700  0.22630  1.0000 1.2202898911
Al  Al16      1.0  0.88700  0.18700  0.27370  1.0000 1.3900865616
Si  Si17      1.0  0.02370  0.93700  0.11300  1.0000 1.2202898911
Al  Al17      1.0  0.97630  0.88700  0.06300  1.0000 1.3900865616
Si  Si18      1.0  0.02370  0.43700  0.61300  1.0000 1.2202898911
Al  Al18      1.0  0.97630  0.38700  0.56300  1.0000 1.3900865616
Si  Si19      1.0  0.52370  0.93700  0.61300  1.0000 1.2202898911
Al  Al19      1.0  0.47630  0.88700  0.56300  1.0000 1.3900865616
Si  Si20      1.0  0.52370  0.43700  0.11300  1.0000 1.2202898911
Al  Al20      1.0  0.47630  0.38700  0.06300  1.0000 1.3900865616
Si  Si21      1.0  0.52370  0.81300  0.13700  1.0000 1.2202898911
Al  Al21      1.0  0.47630  0.86300  0.18700  1.0000 1.3900865616
Si  Si22      1.0  0.52370  0.31300  0.63700  1.0000 1.2202898911
Al  Al22      1.0  0.47630  0.36300  0.68700  1.0000 1.3900865616
Si  Si23      1.0  0.02370  0.81300  0.63700  1.0000 1.2202898911
Al  Al23      1.0  0.97630  0.86300  0.68700  1.0000 1.3900865616
Si  Si24      1.0  0.02370  0.31300  0.13700  1.0000 1.2202898911
Al  Al24      1.0  0.97630  0.36300  0.18700  1.0000 1.3900865616
Si  Si25      1.0  0.72630  0.31300  0.61300  1.0000 1.2202898911
Al  Al25      1.0  0.77370  0.36300  0.56300  1.0000 1.3900865616
Si  Si26      1.0  0.72630  0.81300  0.11300  1.0000 1.2202898911
Al  Al26      1.0  0.77370  0.86300  0.06300  1.0000 1.3900865616
Si  Si27      1.0  0.22630  0.31300  0.11300  1.0000 1.2202898911
Al  Al27      1.0  0.27370  0.36300  0.06300  1.0000 1.3900865616
Si  Si28      1.0  0.22630  0.81300  0.61300  1.0000 1.2202898911
Al  Al28      1.0  0.27370  0.86300  0.56300  1.0000 1.3900865616
Si  Si29      1.0  0.22630  0.43700  0.63700  1.0000 1.2202898911
Al  Al29      1.0  0.27370  0.38700  0.68700  1.0000 1.3900865616
Si  Si30      1.0  0.22630  0.93700  0.13700  1.0000 1.2202898911
Al  Al30      1.0  0.27370  0.88700  0.18700  1.0000 1.3900865616
Si  Si31      1.0  0.72630  0.43700  0.13700  1.0000 1.2202898911
Al  Al31      1.0  0.77370  0.38700  0.18700  1.0000 1.3900865616
Si  Si32      1.0  0.72630  0.93700  0.63700  1.0000 1.2202898911
Al  Al32      1.0  0.77370  0.88700  0.68700  1.0000 1.3900865616
Si  Si33      1.0  0.11300  0.02370  0.93700  1.0000 1.2202898911
Al  Al33      1.0  0.06300  0.97630  0.88700  1.0000 1.3900865616
Si  Si34      1.0  0.11300  0.52370  0.43700  1.0000 1.2202898911
Al  Al34      1.0  0.06300  0.47630  0.38700  1.0000 1.3900865616
Si  Si35      1.0  0.61300  0.02370  0.43700  1.0000 1.2202898911
Al  Al35      1.0  0.56300  0.97630  0.38700  1.0000 1.3900865616
Si  Si36      1.0  0.61300  0.52370  0.93700  1.0000 1.2202898911
Al  Al36      1.0  0.56300  0.47630  0.88700  1.0000 1.3900865616
Si  Si37      1.0  0.13700  0.52370  0.81300  1.0000 1.2202898911
Al  Al37      1.0  0.18700  0.47630  0.86300  1.0000 1.3900865616
Si  Si38      1.0  0.13700  0.02370  0.31300  1.0000 1.2202898911
Al  Al38      1.0  0.18700  0.97630  0.36300  1.0000 1.3900865616
Si  Si39      1.0  0.63700  0.52370  0.31300  1.0000 1.2202898911
Al  Al39      1.0  0.68700  0.47630  0.36300  1.0000 1.3900865616
Si  Si40      1.0  0.63700  0.02370  0.81300  1.0000 1.2202898911
Al  Al40      1.0  0.68700  0.97630  0.86300  1.0000 1.3900865616
Si  Si41      1.0  0.61300  0.72630  0.31300  1.0000 1.2202898911
Al  Al41      1.0  0.56300  0.77370  0.36300  1.0000 1.3900865616
Si  Si42      1.0  0.61300  0.22630  0.81300  1.0000 1.2202898911
Al  Al42      1.0  0.56300  0.27370  0.86300  1.0000 1.3900865616
Si  Si43      1.0  0.11300  0.72630  0.81300  1.0000 1.2202898911
Al  Al43      1.0  0.06300  0.77370  0.86300  1.0000 1.3900865616
Si  Si44      1.0  0.11300  0.22630  0.31300  1.0000 1.2202898911
Al  Al44      1.0  0.06300  0.27370  0.36300  1.0000 1.3900865616
Si  Si45      1.0  0.63700  0.22630  0.43700  1.0000 1.2202898911
Al  Al45      1.0  0.68700  0.27370  0.38700  1.0000 1.3900865616
Si  Si46      1.0  0.63700  0.72630  0.93700  1.0000 1.2202898911
Al  Al46      1.0  0.68700  0.77370  0.88700  1.0000 1.3900865616
Si  Si47      1.0  0.13700  0.22630  0.93700  1.0000 1.2202898911
Al  Al47      1.0  0.18700  0.27370  0.88700  1.0000 1.3900865616
Si  Si48      1.0  0.13700  0.72630  0.43700  1.0000 1.2202898911
Al  Al48      1.0  0.18700  0.77370  0.38700  1.0000 1.3900865616
Si  Si49      1.0  0.06300  0.88700  0.97630  1.0000 1.2202898911
Al  Al49      1.0  0.11300  0.93700  0.02370  1.0000 1.3900865616
Si  Si50      1.0  0.06300  0.38700  0.47630  1.0000 1.2202898911
Al  Al50      1.0  0.11300  0.43700  0.52370  1.0000 1.3900865616
Si  Si51      1.0  0.56300  0.88700  0.47630  1.0000 1.2202898911
Al  Al51      1.0  0.61300  0.93700  0.52370  1.0000 1.3900865616
Si  Si52      1.0  0.56300  0.38700  0.97630  1.0000 1.2202898911
Al  Al52      1.0  0.61300  0.43700  0.02370  1.0000 1.3900865616
Si  Si53      1.0  0.18700  0.86300  0.47630  1.0000 1.2202898911
Al  Al53      1.0  0.13700  0.81300  0.52370  1.0000 1.3900865616
Si  Si54      1.0  0.18700  0.36300  0.97630  1.0000 1.2202898911
Al  Al54      1.0  0.13700  0.31300  0.02370  1.0000 1.3900865616
Si  Si55      1.0  0.68700  0.86300  0.97630  1.0000 1.2202898911
Al  Al55      1.0  0.63700  0.81300  0.02370  1.0000 1.3900865616
Si  Si56      1.0  0.68700  0.36300  0.47630  1.0000 1.2202898911
Al  Al56      1.0  0.63700  0.31300  0.52370  1.0000 1.3900865616
Si  Si57      1.0  0.68700  0.38700  0.27370  1.0000 1.2202898911
Al  Al57      1.0  0.63700  0.43700  0.22630  1.0000 1.3900865616
Si  Si58      1.0  0.68700  0.88700  0.77370  1.0000 1.2202898911
Al  Al58      1.0  0.63700  0.93700  0.72630  1.0000 1.3900865616
Si  Si59      1.0  0.18700  0.38700  0.77370  1.0000 1.2202898911
Al  Al59      1.0  0.13700  0.43700  0.72630  1.0000 1.3900865616
Si  Si60      1.0  0.18700  0.88700  0.27370  1.0000 1.2202898911
Al  Al60      1.0  0.13700  0.93700  0.22630  1.0000 1.3900865616
Si  Si61      1.0  0.56300  0.36300  0.77370  1.0000 1.2202898911
Al  Al61      1.0  0.61300  0.31300  0.72630  1.0000 1.3900865616
Si  Si62      1.0  0.56300  0.86300  0.27370  1.0000 1.2202898911
Al  Al62      1.0  0.61300  0.81300  0.22630  1.0000 1.3900865616
Si  Si63      1.0  0.06300  0.36300  0.27370  1.0000 1.2202898911
Al  Al63      1.0  0.11300  0.31300  0.22630  1.0000 1.3900865616
Si  Si64      1.0  0.06300  0.86300  0.77370  1.0000 1.2202898911
Al  Al64      1.0  0.11300  0.81300  0.72630  1.0000 1.3900865616
Si  Si65      1.0  0.97630  0.06300  0.88700  1.0000 1.2202898911
Al  Al65      1.0  0.02370  0.11300  0.93700  1.0000 1.3900865616
Si  Si66      1.0  0.97630  0.56300  0.38700  1.0000 1.2202898911
Al  Al66      1.0  0.02370  0.61300  0.43700  1.0000 1.3900865616
Si  Si67      1.0  0.47630  0.06300  0.38700  1.0000 1.2202898911
Al  Al67      1.0  0.52370  0.11300  0.43700  1.0000 1.3900865616
Si  Si68      1.0  0.47630  0.56300  0.88700  1.0000 1.2202898911
Al  Al68      1.0  0.52370  0.61300  0.93700  1.0000 1.3900865616
Si  Si69      1.0  0.47630  0.18700  0.86300  1.0000 1.2202898911
Al  Al69      1.0  0.52370  0.13700  0.81300  1.0000 1.3900865616
Si  Si70      1.0  0.47630  0.68700  0.36300  1.0000 1.2202898911
Al  Al70      1.0  0.52370  0.63700  0.31300  1.0000 1.3900865616
Si  Si71      1.0  0.97630  0.18700  0.36300  1.0000 1.2202898911
Al  Al71      1.0  0.02370  0.13700  0.31300  1.0000 1.3900865616
Si  Si72      1.0  0.97630  0.68700  0.86300  1.0000 1.2202898911
Al  Al72      1.0  0.02370  0.63700  0.81300  1.0000 1.3900865616
Si  Si73      1.0  0.27370  0.68700  0.38700  1.0000 1.2202898911
Al  Al73      1.0  0.22630  0.63700  0.43700  1.0000 1.3900865616
Si  Si74      1.0  0.27370  0.18700  0.88700  1.0000 1.2202898911
Al  Al74      1.0  0.22630  0.13700  0.93700  1.0000 1.3900865616
Si  Si75      1.0  0.77370  0.68700  0.88700  1.0000 1.2202898911
Al  Al75      1.0  0.72630  0.63700  0.93700  1.0000 1.3900865616
Si  Si76      1.0  0.77370  0.18700  0.38700  1.0000 1.2202898911
Al  Al76      1.0  0.72630  0.13700  0.43700  1.0000 1.3900865616
Si  Si77      1.0  0.77370  0.56300  0.36300  1.0000 1.2202898911
Al  Al77      1.0  0.72630  0.61300  0.31300  1.0000 1.3900865616
Si  Si78      1.0  0.77370  0.06300  0.86300  1.0000 1.2202898911
Al  Al78      1.0  0.72630  0.11300  0.81300  1.0000 1.3900865616
Si  Si79      1.0  0.27370  0.56300  0.86300  1.0000 1.2202898911
Al  Al79      1.0  0.22630  0.61300  0.81300  1.0000 1.3900865616
Si  Si80      1.0  0.27370  0.06300  0.36300  1.0000 1.2202898911
Al  Al80      1.0  0.22630  0.11300  0.31300  1.0000 1.3900865616
Si  Si81      1.0  0.88700  0.97630  0.06300  1.0000 1.2202898911
Al  Al81      1.0  0.93700  0.02370  0.11300  1.0000 1.3900865616
Si  Si82      1.0  0.88700  0.47630  0.56300  1.0000 1.2202898911
Al  Al82      1.0  0.93700  0.52370  0.61300  1.0000 1.3900865616
Si  Si83      1.0  0.38700  0.97630  0.56300  1.0000 1.2202898911
Al  Al83      1.0  0.43700  0.02370  0.61300  1.0000 1.3900865616
Si  Si84      1.0  0.38700  0.47630  0.06300  1.0000 1.2202898911
Al  Al84      1.0  0.43700  0.52370  0.11300  1.0000 1.3900865616
Si  Si85      1.0  0.86300  0.47630  0.18700  1.0000 1.2202898911
Al  Al85      1.0  0.81300  0.52370  0.13700  1.0000 1.3900865616
Si  Si86      1.0  0.86300  0.97630  0.68700  1.0000 1.2202898911
Al  Al86      1.0  0.81300  0.02370  0.63700  1.0000 1.3900865616
Si  Si87      1.0  0.36300  0.47630  0.68700  1.0000 1.2202898911
Al  Al87      1.0  0.31300  0.52370  0.63700  1.0000 1.3900865616
Si  Si88      1.0  0.36300  0.97630  0.18700  1.0000 1.2202898911
Al  Al88      1.0  0.31300  0.02370  0.13700  1.0000 1.3900865616
Si  Si89      1.0  0.38700  0.27370  0.68700  1.0000 1.2202898911
Al  Al89      1.0  0.43700  0.22630  0.63700  1.0000 1.3900865616
Si  Si90      1.0  0.38700  0.77370  0.18700  1.0000 1.2202898911
Al  Al90      1.0  0.43700  0.72630  0.13700  1.0000 1.3900865616
Si  Si91      1.0  0.88700  0.27370  0.18700  1.0000 1.2202898911
Al  Al91      1.0  0.93700  0.22630  0.13700  1.0000 1.3900865616
Si  Si92      1.0  0.88700  0.77370  0.68700  1.0000 1.2202898911
Al  Al92      1.0  0.93700  0.72630  0.63700  1.0000 1.3900865616
Si  Si93      1.0  0.36300  0.77370  0.56300  1.0000 1.2202898911
Al  Al93      1.0  0.31300  0.72630  0.61300  1.0000 1.3900865616
Si  Si94      1.0  0.36300  0.27370  0.06300  1.0000 1.2202898911
Al  Al94      1.0  0.31300  0.22630  0.11300  1.0000 1.3900865616
Si  Si95      1.0  0.86300  0.77370  0.06300  1.0000 1.2202898911
Al  Al95      1.0  0.81300  0.72630  0.11300  1.0000 1.3900865616
Si  Si96      1.0  0.86300  0.27370  0.56300  1.0000 1.2202898911
Al  Al96      1.0  0.81300  0.22630  0.61300  1.0000 1.3900865616
O   O1        1.0  0.88874  0.11126  0.00000  1.0000 -0.6439146299
O   O2        1.0  0.88874  0.61126  0.50000  1.0000 -0.6439146299
O   O3        1.0  0.38874  0.11126  0.50000  1.0000 -0.6439146299
O   O4        1.0  0.38874  0.61126  0.00000  1.0000 -0.6439146299
O   O5        1.0  0.86126  0.13874  0.50000  1.0000 -0.6439146299
O   O6        1.0  0.86126  0.63874  0.00000  1.0000 -0.6439146299
O   O7        1.0  0.36126  0.13874  0.00000  1.0000 -0.6439146299
O   O8        1.0  0.36126  0.63874  0.50000  1.0000 -0.6439146299
O   O9        1.0  0.36126  0.61126  0.75000  1.0000 -0.6439146299
O   O10       1.0  0.36126  0.11126  0.25000  1.0000 -0.6439146299
O   O11       1.0  0.86126  0.61126  0.25000  1.0000 -0.6439146299
O   O12       1.0  0.86126  0.11126  0.75000  1.0000 -0.6439146299
O   O13       1.0  0.38874  0.63874  0.25000  1.0000 -0.6439146299
O   O14       1.0  0.38874  0.13874  0.75000  1.0000 -0.6439146299
O   O15       1.0  0.88874  0.63874  0.75000  1.0000 -0.6439146299
O   O16       1.0  0.88874  0.13874  0.25000  1.0000 -0.6439146299
O   O17       1.0  0.00000  0.88874  0.11126  1.0000 -0.6439146299
O   O18       1.0  0.00000  0.38874  0.61126  1.0000 -0.6439146299
O   O19       1.0  0.50000  0.88874  0.61126  1.0000 -0.6439146299
O   O20       1.0  0.50000  0.38874  0.11126  1.0000 -0.6439146299
O   O21       1.0  0.50000  0.86126  0.13874  1.0000 -0.6439146299
O   O22       1.0  0.50000  0.36126  0.63874  1.0000 -0.6439146299
O   O23       1.0  0.00000  0.86126  0.63874  1.0000 -0.6439146299
O   O24       1.0  0.00000  0.36126  0.13874  1.0000 -0.6439146299
O   O25       1.0  0.75000  0.36126  0.61126  1.0000 -0.6439146299
O   O26       1.0  0.75000  0.86126  0.11126  1.0000 -0.6439146299
O   O27       1.0  0.25000  0.36126  0.11126  1.0000 -0.6439146299
O   O28       1.0  0.25000  0.86126  0.61126  1.0000 -0.6439146299
O   O29       1.0  0.25000  0.38874  0.63874  1.0000 -0.6439146299
O   O30       1.0  0.25000  0.88874  0.13874  1.0000 -0.6439146299
O   O31       1.0  0.75000  0.38874  0.13874  1.0000 -0.6439146299
O   O32       1.0  0.75000  0.88874  0.63874  1.0000 -0.6439146299
O   O33       1.0  0.11126  0.00000  0.88874  1.0000 -0.6439146299
O   O34       1.0  0.11126  0.50000  0.38874  1.0000 -0.6439146299
O   O35       1.0  0.61126  0.00000  0.38874  1.0000 -0.6439146299
O   O36       1.0  0.61126  0.50000  0.88874  1.0000 -0.6439146299
O   O37       1.0  0.13874  0.50000  0.86126  1.0000 -0.6439146299
O   O38       1.0  0.13874  0.00000  0.36126  1.0000 -0.6439146299
O   O39       1.0  0.63874  0.50000  0.36126  1.0000 -0.6439146299
O   O40       1.0  0.63874  0.00000  0.86126  1.0000 -0.6439146299
O   O41       1.0  0.61126  0.75000  0.36126  1.0000 -0.6439146299
O   O42       1.0  0.61126  0.25000  0.86126  1.0000 -0.6439146299
O   O43       1.0  0.11126  0.75000  0.86126  1.0000 -0.6439146299
O   O44       1.0  0.11126  0.25000  0.36126  1.0000 -0.6439146299
O   O45       1.0  0.63874  0.25000  0.38874  1.0000 -0.6439146299
O   O46       1.0  0.63874  0.75000  0.88874  1.0000 -0.6439146299
O   O47       1.0  0.13874  0.25000  0.88874  1.0000 -0.6439146299
O   O48       1.0  0.13874  0.75000  0.38874  1.0000 -0.6439146299
O   O49       1.0  0.11126  0.88874  0.00000  1.0000 -0.6439146299
O   O50       1.0  0.11126  0.38874  0.50000  1.0000 -0.6439146299
O   O51       1.0  0.61126  0.88874  0.50000  1.0000 -0.6439146299
O   O52       1.0  0.61126  0.38874  0.00000  1.0000 -0.6439146299
O   O53       1.0  0.13874  0.86126  0.50000  1.0000 -0.6439146299
O   O54       1.0  0.13874  0.36126  0.00000  1.0000 -0.6439146299
O   O55       1.0  0.63874  0.86126  0.00000  1.0000 -0.6439146299
O   O56       1.0  0.63874  0.36126  0.50000  1.0000 -0.6439146299
O   O57       1.0  0.63874  0.38874  0.25000  1.0000 -0.6439146299
O   O58       1.0  0.63874  0.88874  0.75000  1.0000 -0.6439146299
O   O59       1.0  0.13874  0.38874  0.75000  1.0000 -0.6439146299
O   O60       1.0  0.13874  0.88874  0.25000  1.0000 -0.6439146299
O   O61       1.0  0.61126  0.36126  0.75000  1.0000 -0.6439146299
O   O62       1.0  0.61126  0.86126  0.25000  1.0000 -0.6439146299
O   O63       1.0  0.11126  0.36126  0.25000  1.0000 -0.6439146299
O   O64       1.0  0.11126  0.86126  0.75000  1.0000 -0.6439146299
O   O65       1.0  0.00000  0.11126  0.88874  1.0000 -0.6439146299
O   O66       1.0  0.00000  0.61126  0.38874  1.0000 -0.6439146299
O   O67       1.0  0.50000  0.11126  0.38874  1.0000 -0.6439146299
O   O68       1.0  0.50000  0.61126  0.88874  1.0000 -0.6439146299
O   O69       1.0  0.50000  0.13874  0.86126  1.0000 -0.6439146299
O   O70       1.0  0.50000  0.63874  0.36126  1.0000 -0.6439146299
O   O71       1.0  0.00000  0.13874  0.36126  1.0000 -0.6439146299
O   O72       1.0  0.00000  0.63874  0.86126  1.0000 -0.6439146299
O   O73       1.0  0.25000  0.63874  0.38874  1.0000 -0.6439146299
O   O74       1.0  0.25000  0.13874  0.88874  1.0000 -0.6439146299
O   O75       1.0  0.75000  0.63874  0.88874  1.0000 -0.6439146299
O   O76       1.0  0.75000  0.13874  0.38874  1.0000 -0.6439146299
O   O77       1.0  0.75000  0.61126  0.36126  1.0000 -0.6439146299
O   O78       1.0  0.75000  0.11126  0.86126  1.0000 -0.6439146299
O   O79       1.0  0.25000  0.61126  0.86126  1.0000 -0.6439146299
O   O80       1.0  0.25000  0.11126  0.36126  1.0000 -0.6439146299
O   O81       1.0  0.88874  0.00000  0.11126  1.0000 -0.6439146299
O   O82       1.0  0.88874  0.50000  0.61126  1.0000 -0.6439146299
O   O83       1.0  0.38874  0.00000  0.61126  1.0000 -0.6439146299
O   O84       1.0  0.38874  0.50000  0.11126  1.0000 -0.6439146299
O   O85       1.0  0.86126  0.50000  0.13874  1.0000 -0.6439146299
O   O86       1.0  0.86126  0.00000  0.63874  1.0000 -0.6439146299
O   O87       1.0  0.36126  0.50000  0.63874  1.0000 -0.6439146299
O   O88       1.0  0.36126  0.00000  0.13874  1.0000 -0.6439146299
O   O89       1.0  0.38874  0.25000  0.63874  1.0000 -0.6439146299
O   O90       1.0  0.38874  0.75000  0.13874  1.0000 -0.6439146299
O   O91       1.0  0.88874  0.25000  0.13874  1.0000 -0.6439146299
O   O92       1.0  0.88874  0.75000  0.63874  1.0000 -0.6439146299
O   O93       1.0  0.36126  0.75000  0.61126  1.0000 -0.6439146299
O   O94       1.0  0.36126  0.25000  0.11126  1.0000 -0.6439146299
O   O95       1.0  0.86126  0.75000  0.11126  1.0000 -0.6439146299
O   O96       1.0  0.86126  0.25000  0.61126  1.0000 -0.6439146299
O   O97       1.0  0.98330  0.06628  0.06628  1.0000 -0.7232900105
O   O98       1.0  0.98330  0.56628  0.56628  1.0000 -0.7232900105
O   O99       1.0  0.48330  0.06628  0.56628  1.0000 -0.7232900105
O   O100      1.0  0.48330  0.56628  0.06628  1.0000 -0.7232900105
O   O101      1.0  0.76670  0.18372  0.56628  1.0000 -0.7232900105
O   O102      1.0  0.76670  0.68372  0.06628  1.0000 -0.7232900105
O   O103      1.0  0.26670  0.56628  0.68372  1.0000 -0.7232900105
O   O104      1.0  0.26670  0.06628  0.18372  1.0000 -0.7232900105
O   O105      1.0  0.76670  0.06628  0.68372  1.0000 -0.7232900105
O   O106      1.0  0.48330  0.68372  0.18372  1.0000 -0.7232900105
O   O107      1.0  0.98330  0.68372  0.68372  1.0000 -0.7232900105
O   O108      1.0  0.06628  0.98330  0.06628  1.0000 -0.7232900105
O   O109      1.0  0.06628  0.48330  0.56628  1.0000 -0.7232900105
O   O110      1.0  0.56628  0.98330  0.56628  1.0000 -0.7232900105
O   O111      1.0  0.56628  0.48330  0.06628  1.0000 -0.7232900105
O   O112      1.0  0.56628  0.76670  0.18372  1.0000 -0.7232900105
O   O113      1.0  0.06628  0.76670  0.68372  1.0000 -0.7232900105
O   O114      1.0  0.68372  0.26670  0.56628  1.0000 -0.7232900105
O   O115      1.0  0.68372  0.76670  0.06628  1.0000 -0.7232900105
O   O116      1.0  0.18372  0.48330  0.68372  1.0000 -0.7232900105
O   O117      1.0  0.18372  0.98330  0.18372  1.0000 -0.7232900105
O   O118      1.0  0.68372  0.98330  0.68372  1.0000 -0.7232900105
O   O119      1.0  0.06628  0.06628  0.98330  1.0000 -0.7232900105
O   O120      1.0  0.06628  0.56628  0.48330  1.0000 -0.7232900105
O   O121      1.0  0.56628  0.06628  0.48330  1.0000 -0.7232900105
O   O122      1.0  0.56628  0.56628  0.98330  1.0000 -0.7232900105
O   O123      1.0  0.18372  0.56628  0.76670  1.0000 -0.7232900105
O   O124      1.0  0.18372  0.06628  0.26670  1.0000 -0.7232900105
O   O125      1.0  0.68372  0.06628  0.76670  1.0000 -0.7232900105
O   O126      1.0  0.56628  0.68372  0.26670  1.0000 -0.7232900105
O   O127      1.0  0.06628  0.68372  0.76670  1.0000 -0.7232900105
O   O128      1.0  0.68372  0.18372  0.48330  1.0000 -0.7232900105
O   O129      1.0  0.68372  0.68372  0.98330  1.0000 -0.7232900105
O   O130      1.0  0.81628  0.23330  0.43372  1.0000 -0.7232900105
O   O131      1.0  0.81628  0.73330  0.93372  1.0000 -0.7232900105
O   O132      1.0  0.93372  0.01670  0.93372  1.0000 -0.7232900105
O   O133      1.0  0.93372  0.51670  0.43372  1.0000 -0.7232900105
O   O134      1.0  0.43372  0.01670  0.43372  1.0000 -0.7232900105
O   O135      1.0  0.43372  0.51670  0.93372  1.0000 -0.7232900105
O   O136      1.0  0.31628  0.51670  0.81628  1.0000 -0.7232900105
O   O137      1.0  0.31628  0.01670  0.31628  1.0000 -0.7232900105
O   O138      1.0  0.81628  0.01670  0.81628  1.0000 -0.7232900105
O   O139      1.0  0.43372  0.73330  0.31628  1.0000 -0.7232900105
O   O140      1.0  0.93372  0.73330  0.81628  1.0000 -0.7232900105
O   O141      1.0  0.73330  0.31628  0.43372  1.0000 -0.7232900105
O   O142      1.0  0.73330  0.81628  0.93372  1.0000 -0.7232900105
O   O143      1.0  0.51670  0.81628  0.31628  1.0000 -0.7232900105
O   O144      1.0  0.01670  0.81628  0.81628  1.0000 -0.7232900105
O   O145      1.0  0.01670  0.93372  0.93372  1.0000 -0.7232900105
O   O146      1.0  0.01670  0.43372  0.43372  1.0000 -0.7232900105
O   O147      1.0  0.51670  0.93372  0.43372  1.0000 -0.7232900105
O   O148      1.0  0.51670  0.43372  0.93372  1.0000 -0.7232900105
O   O149      1.0  0.23330  0.43372  0.81628  1.0000 -0.7232900105
O   O150      1.0  0.23330  0.93372  0.31628  1.0000 -0.7232900105
O   O151      1.0  0.73330  0.93372  0.81628  1.0000 -0.7232900105
O   O152      1.0  0.81628  0.31628  0.51670  1.0000 -0.7232900105
O   O153      1.0  0.81628  0.81628  0.01670  1.0000 -0.7232900105
O   O154      1.0  0.31628  0.43372  0.73330  1.0000 -0.7232900105
O   O155      1.0  0.31628  0.93372  0.23330  1.0000 -0.7232900105
O   O156      1.0  0.81628  0.93372  0.73330  1.0000 -0.7232900105
O   O157      1.0  0.43372  0.81628  0.23330  1.0000 -0.7232900105
O   O158      1.0  0.93372  0.81628  0.73330  1.0000 -0.7232900105
O   O159      1.0  0.93372  0.93372  0.01670  1.0000 -0.7232900105
O   O160      1.0  0.93372  0.43372  0.51670  1.0000 -0.7232900105
O   O161      1.0  0.43372  0.93372  0.51670  1.0000 -0.7232900105
O   O162      1.0  0.43372  0.43372  0.01670  1.0000 -0.7232900105
O   O163      1.0  0.23330  0.81628  0.43372  1.0000 -0.7232900105
O   O164      1.0  0.23330  0.31628  0.93372  1.0000 -0.7232900105
O   O165      1.0  0.73330  0.43372  0.31628  1.0000 -0.7232900105
O   O166      1.0  0.51670  0.31628  0.81628  1.0000 -0.7232900105
O   O167      1.0  0.01670  0.31628  0.31628  1.0000 -0.7232900105
O   O168      1.0  0.43372  0.23330  0.81628  1.0000 -0.7232900105
O   O169      1.0  0.93372  0.23330  0.31628  1.0000 -0.7232900105
O   O170      1.0  0.31628  0.73330  0.43372  1.0000 -0.7232900105
O   O171      1.0  0.31628  0.23330  0.93372  1.0000 -0.7232900105
O   O172      1.0  0.81628  0.51670  0.31628  1.0000 -0.7232900105
O   O173      1.0  0.81628  0.43372  0.23330  1.0000 -0.7232900105
O   O174      1.0  0.43372  0.31628  0.73330  1.0000 -0.7232900105
O   O175      1.0  0.93372  0.31628  0.23330  1.0000 -0.7232900105
O   O176      1.0  0.31628  0.81628  0.51670  1.0000 -0.7232900105
O   O177      1.0  0.31628  0.31628  0.01670  1.0000 -0.7232900105
O   O178      1.0  0.18372  0.76670  0.56628  1.0000 -0.7232900105
O   O179      1.0  0.18372  0.26670  0.06628  1.0000 -0.7232900105
O   O180      1.0  0.68372  0.48330  0.18372  1.0000 -0.7232900105
O   O181      1.0  0.56628  0.26670  0.68372  1.0000 -0.7232900105
O   O182      1.0  0.06628  0.26670  0.18372  1.0000 -0.7232900105
O   O183      1.0  0.26670  0.68372  0.56628  1.0000 -0.7232900105
O   O184      1.0  0.26670  0.18372  0.06628  1.0000 -0.7232900105
O   O185      1.0  0.48330  0.18372  0.68372  1.0000 -0.7232900105
O   O186      1.0  0.98330  0.18372  0.18372  1.0000 -0.7232900105
O   O187      1.0  0.76670  0.56628  0.18372  1.0000 -0.7232900105
O   O188      1.0  0.18372  0.68372  0.48330  1.0000 -0.7232900105
O   O189      1.0  0.18372  0.18372  0.98330  1.0000 -0.7232900105
O   O190      1.0  0.68372  0.56628  0.26670  1.0000 -0.7232900105
O   O191      1.0  0.56628  0.18372  0.76670  1.0000 -0.7232900105
O   O192      1.0  0.06628  0.18372  0.26670  1.0000 -0.7232900105
O   O193      1.0  0.99650  0.13330  0.99650  1.0000 -0.7862894031
O   O194      1.0  0.99650  0.63330  0.49650  1.0000 -0.7862894031
O   O195      1.0  0.49650  0.13330  0.49650  1.0000 -0.7862894031
O   O196      1.0  0.49650  0.63330  0.99650  1.0000 -0.7862894031
O   O197      1.0  0.75350  0.11670  0.49650  1.0000 -0.7862894031
O   O198      1.0  0.75350  0.61670  0.99650  1.0000 -0.7862894031
O   O199      1.0  0.25350  0.63330  0.75350  1.0000 -0.7862894031
O   O200      1.0  0.25350  0.13330  0.25350  1.0000 -0.7862894031
O   O201      1.0  0.49650  0.61670  0.25350  1.0000 -0.7862894031
O   O202      1.0  0.99650  0.61670  0.75350  1.0000 -0.7862894031
O   O203      1.0  0.99650  0.99650  0.13330  1.0000 -0.7862894031
O   O204      1.0  0.99650  0.49650  0.63330  1.0000 -0.7862894031
O   O205      1.0  0.49650  0.99650  0.63330  1.0000 -0.7862894031
O   O206      1.0  0.49650  0.49650  0.13330  1.0000 -0.7862894031
O   O207      1.0  0.49650  0.75350  0.11670  1.0000 -0.7862894031
O   O208      1.0  0.99650  0.75350  0.61670  1.0000 -0.7862894031
O   O209      1.0  0.75350  0.25350  0.63330  1.0000 -0.7862894031
O   O210      1.0  0.75350  0.75350  0.13330  1.0000 -0.7862894031
O   O211      1.0  0.25350  0.49650  0.61670  1.0000 -0.7862894031
O   O212      1.0  0.25350  0.99650  0.11670  1.0000 -0.7862894031
O   O213      1.0  0.13330  0.99650  0.99650  1.0000 -0.7862894031
O   O214      1.0  0.13330  0.49650  0.49650  1.0000 -0.7862894031
O   O215      1.0  0.63330  0.99650  0.49650  1.0000 -0.7862894031
O   O216      1.0  0.63330  0.49650  0.99650  1.0000 -0.7862894031
O   O217      1.0  0.11670  0.49650  0.75350  1.0000 -0.7862894031
O   O218      1.0  0.11670  0.99650  0.25350  1.0000 -0.7862894031
O   O219      1.0  0.63330  0.75350  0.25350  1.0000 -0.7862894031
O   O220      1.0  0.13330  0.75350  0.75350  1.0000 -0.7862894031
O   O221      1.0  0.61670  0.25350  0.49650  1.0000 -0.7862894031
O   O222      1.0  0.61670  0.75350  0.99650  1.0000 -0.7862894031
O   O223      1.0  0.88330  0.24650  0.50350  1.0000 -0.7862894031
O   O224      1.0  0.88330  0.74650  0.00350  1.0000 -0.7862894031
O   O225      1.0  0.86670  0.00350  0.00350  1.0000 -0.7862894031
O   O226      1.0  0.86670  0.50350  0.50350  1.0000 -0.7862894031
O   O227      1.0  0.36670  0.00350  0.50350  1.0000 -0.7862894031
O   O228      1.0  0.36670  0.50350  0.00350  1.0000 -0.7862894031
O   O229      1.0  0.38330  0.50350  0.74650  1.0000 -0.7862894031
O   O230      1.0  0.38330  0.00350  0.24650  1.0000 -0.7862894031
O   O231      1.0  0.36670  0.74650  0.24650  1.0000 -0.7862894031
O   O232      1.0  0.86670  0.74650  0.74650  1.0000 -0.7862894031
O   O233      1.0  0.74650  0.24650  0.36670  1.0000 -0.7862894031
O   O234      1.0  0.74650  0.74650  0.86670  1.0000 -0.7862894031
O   O235      1.0  0.50350  0.74650  0.38330  1.0000 -0.7862894031
O   O236      1.0  0.00350  0.74650  0.88330  1.0000 -0.7862894031
O   O237      1.0  0.00350  0.00350  0.86670  1.0000 -0.7862894031
O   O238      1.0  0.00350  0.50350  0.36670  1.0000 -0.7862894031
O   O239      1.0  0.50350  0.00350  0.36670  1.0000 -0.7862894031
O   O240      1.0  0.50350  0.50350  0.86670  1.0000 -0.7862894031
O   O241      1.0  0.24650  0.50350  0.88330  1.0000 -0.7862894031
O   O242      1.0  0.24650  0.00350  0.38330  1.0000 -0.7862894031
O   O243      1.0  0.74650  0.38330  0.50350  1.0000 -0.7862894031
O   O244      1.0  0.74650  0.88330  0.00350  1.0000 -0.7862894031
O   O245      1.0  0.24650  0.36670  0.74650  1.0000 -0.7862894031
O   O246      1.0  0.24650  0.86670  0.24650  1.0000 -0.7862894031
O   O247      1.0  0.50350  0.88330  0.24650  1.0000 -0.7862894031
O   O248      1.0  0.00350  0.88330  0.74650  1.0000 -0.7862894031
O   O249      1.0  0.00350  0.86670  0.00350  1.0000 -0.7862894031
O   O250      1.0  0.00350  0.36670  0.50350  1.0000 -0.7862894031
O   O251      1.0  0.50350  0.86670  0.50350  1.0000 -0.7862894031
O   O252      1.0  0.50350  0.36670  0.00350  1.0000 -0.7862894031
O   O253      1.0  0.24650  0.88330  0.50350  1.0000 -0.7862894031
O   O254      1.0  0.24650  0.38330  0.00350  1.0000 -0.7862894031
O   O255      1.0  0.74650  0.36670  0.24650  1.0000 -0.7862894031
O   O256      1.0  0.74650  0.86670  0.74650  1.0000 -0.7862894031
O   O257      1.0  0.50350  0.38330  0.74650  1.0000 -0.7862894031
O   O258      1.0  0.00350  0.38330  0.24650  1.0000 -0.7862894031
O   O259      1.0  0.50350  0.24650  0.88330  1.0000 -0.7862894031
O   O260      1.0  0.00350  0.24650  0.38330  1.0000 -0.7862894031
O   O261      1.0  0.24650  0.74650  0.36670  1.0000 -0.7862894031
O   O262      1.0  0.24650  0.24650  0.86670  1.0000 -0.7862894031
O   O263      1.0  0.74650  0.50350  0.38330  1.0000 -0.7862894031
O   O264      1.0  0.74650  0.00350  0.88330  1.0000 -0.7862894031
O   O265      1.0  0.88330  0.50350  0.24650  1.0000 -0.7862894031
O   O266      1.0  0.88330  0.00350  0.74650  1.0000 -0.7862894031
O   O267      1.0  0.36670  0.24650  0.74650  1.0000 -0.7862894031
O   O268      1.0  0.86670  0.24650  0.24650  1.0000 -0.7862894031
O   O269      1.0  0.38330  0.74650  0.50350  1.0000 -0.7862894031
O   O270      1.0  0.38330  0.24650  0.00350  1.0000 -0.7862894031
O   O271      1.0  0.11670  0.75350  0.49650  1.0000 -0.7862894031
O   O272      1.0  0.11670  0.25350  0.99650  1.0000 -0.7862894031
O   O273      1.0  0.61670  0.49650  0.25350  1.0000 -0.7862894031
O   O274      1.0  0.61670  0.99650  0.75350  1.0000 -0.7862894031
O   O275      1.0  0.63330  0.25350  0.75350  1.0000 -0.7862894031
O   O276      1.0  0.13330  0.25350  0.25350  1.0000 -0.7862894031
O   O277      1.0  0.25350  0.75350  0.63330  1.0000 -0.7862894031
O   O278      1.0  0.25350  0.25350  0.13330  1.0000 -0.7862894031
O   O279      1.0  0.49650  0.25350  0.61670  1.0000 -0.7862894031
O   O280      1.0  0.99650  0.25350  0.11670  1.0000 -0.7862894031
O   O281      1.0  0.75350  0.49650  0.11670  1.0000 -0.7862894031
O   O282      1.0  0.75350  0.99650  0.61670  1.0000 -0.7862894031
O   O283      1.0  0.25350  0.61670  0.49650  1.0000 -0.7862894031
O   O284      1.0  0.25350  0.11670  0.99650  1.0000 -0.7862894031
O   O285      1.0  0.75350  0.63330  0.25350  1.0000 -0.7862894031
O   O286      1.0  0.75350  0.13330  0.75350  1.0000 -0.7862894031
O   O287      1.0  0.49650  0.11670  0.75350  1.0000 -0.7862894031
O   O288      1.0  0.99650  0.11670  0.25350  1.0000 -0.7862894031
O   O289      1.0  0.93680  0.18680  0.06320  1.0000 -0.7315923397
O   O290      1.0  0.93680  0.68680  0.56320  1.0000 -0.7315923397
O   O291      1.0  0.43680  0.18680  0.56320  1.0000 -0.7315923397
O   O292      1.0  0.81320  0.06320  0.56320  1.0000 -0.7315923397
O   O293      1.0  0.31320  0.06320  0.06320  1.0000 -0.7315923397
O   O294      1.0  0.31320  0.56320  0.56320  1.0000 -0.7315923397
O   O295      1.0  0.31320  0.68680  0.68680  1.0000 -0.7315923397
O   O296      1.0  0.31320  0.18680  0.18680  1.0000 -0.7315923397
O   O297      1.0  0.81320  0.68680  0.18680  1.0000 -0.7315923397
O   O298      1.0  0.81320  0.18680  0.68680  1.0000 -0.7315923397
O   O299      1.0  0.43680  0.56320  0.18680  1.0000 -0.7315923397
O   O300      1.0  0.43680  0.06320  0.68680  1.0000 -0.7315923397
O   O301      1.0  0.06320  0.93680  0.18680  1.0000 -0.7315923397
O   O302      1.0  0.06320  0.43680  0.68680  1.0000 -0.7315923397
O   O303      1.0  0.56320  0.43680  0.18680  1.0000 -0.7315923397
O   O304      1.0  0.56320  0.81320  0.06320  1.0000 -0.7315923397
O   O305      1.0  0.56320  0.31320  0.56320  1.0000 -0.7315923397
O   O306      1.0  0.68680  0.31320  0.68680  1.0000 -0.7315923397
O   O307      1.0  0.68680  0.81320  0.18680  1.0000 -0.7315923397
O   O308      1.0  0.18680  0.31320  0.18680  1.0000 -0.7315923397
O   O309      1.0  0.18680  0.81320  0.68680  1.0000 -0.7315923397
O   O310      1.0  0.18680  0.43680  0.56320  1.0000 -0.7315923397
O   O311      1.0  0.68680  0.43680  0.06320  1.0000 -0.7315923397
O   O312      1.0  0.18680  0.06320  0.93680  1.0000 -0.7315923397
O   O313      1.0  0.18680  0.56320  0.43680  1.0000 -0.7315923397
O   O314      1.0  0.68680  0.06320  0.43680  1.0000 -0.7315923397
O   O315      1.0  0.06320  0.56320  0.81320  1.0000 -0.7315923397
O   O316      1.0  0.06320  0.06320  0.31320  1.0000 -0.7315923397
O   O317      1.0  0.56320  0.56320  0.31320  1.0000 -0.7315923397
O   O318      1.0  0.68680  0.68680  0.31320  1.0000 -0.7315923397
O   O319      1.0  0.68680  0.18680  0.81320  1.0000 -0.7315923397
O   O320      1.0  0.18680  0.68680  0.81320  1.0000 -0.7315923397
O   O321      1.0  0.18680  0.18680  0.31320  1.0000 -0.7315923397
O   O322      1.0  0.56320  0.18680  0.43680  1.0000 -0.7315923397
O   O323      1.0  0.56320  0.68680  0.93680  1.0000 -0.7315923397
O   O324      1.0  0.93680  0.18680  0.43680  1.0000 -0.7315923397
O   O325      1.0  0.93680  0.68680  0.93680  1.0000 -0.7315923397
O   O326      1.0  0.81320  0.06320  0.93680  1.0000 -0.7315923397
O   O327      1.0  0.31320  0.06320  0.43680  1.0000 -0.7315923397
O   O328      1.0  0.43680  0.56320  0.81320  1.0000 -0.7315923397
O   O329      1.0  0.43680  0.06320  0.31320  1.0000 -0.7315923397
O   O330      1.0  0.31320  0.68680  0.31320  1.0000 -0.7315923397
O   O331      1.0  0.31320  0.18680  0.81320  1.0000 -0.7315923397
O   O332      1.0  0.81320  0.68680  0.81320  1.0000 -0.7315923397
O   O333      1.0  0.81320  0.18680  0.31320  1.0000 -0.7315923397
O   O334      1.0  0.68680  0.31320  0.31320  1.0000 -0.7315923397
O   O335      1.0  0.68680  0.81320  0.81320  1.0000 -0.7315923397
O   O336      1.0  0.18680  0.31320  0.81320  1.0000 -0.7315923397
O   O337      1.0  0.18680  0.81320  0.31320  1.0000 -0.7315923397
O   O338      1.0  0.56320  0.81320  0.43680  1.0000 -0.7315923397
O   O339      1.0  0.56320  0.31320  0.93680  1.0000 -0.7315923397
O   O340      1.0  0.06320  0.93680  0.81320  1.0000 -0.7315923397
O   O341      1.0  0.06320  0.43680  0.31320  1.0000 -0.7315923397
O   O342      1.0  0.18680  0.43680  0.93680  1.0000 -0.7315923397
O   O343      1.0  0.68680  0.43680  0.43680  1.0000 -0.7315923397
O   O344      1.0  0.68680  0.93680  0.93680  1.0000 -0.7315923397
O   O345      1.0  0.81320  0.43680  0.56320  1.0000 -0.7315923397
O   O346      1.0  0.31320  0.43680  0.06320  1.0000 -0.7315923397
O   O347      1.0  0.31320  0.31320  0.68680  1.0000 -0.7315923397
O   O348      1.0  0.31320  0.81320  0.18680  1.0000 -0.7315923397
O   O349      1.0  0.81320  0.31320  0.18680  1.0000 -0.7315923397
O   O350      1.0  0.81320  0.81320  0.68680  1.0000 -0.7315923397
O   O351      1.0  0.43680  0.93680  0.18680  1.0000 -0.7315923397
O   O352      1.0  0.43680  0.43680  0.68680  1.0000 -0.7315923397
O   O353      1.0  0.93680  0.93680  0.68680  1.0000 -0.7315923397
O   O354      1.0  0.93680  0.81320  0.06320  1.0000 -0.7315923397
O   O355      1.0  0.93680  0.31320  0.56320  1.0000 -0.7315923397
O   O356      1.0  0.06320  0.81320  0.93680  1.0000 -0.7315923397
O   O357      1.0  0.06320  0.31320  0.43680  1.0000 -0.7315923397
O   O358      1.0  0.18680  0.93680  0.43680  1.0000 -0.7315923397
O   O359      1.0  0.56320  0.43680  0.81320  1.0000 -0.7315923397
O   O360      1.0  0.56320  0.93680  0.31320  1.0000 -0.7315923397
O   O361      1.0  0.93680  0.06320  0.81320  1.0000 -0.7315923397
O   O362      1.0  0.93680  0.56320  0.31320  1.0000 -0.7315923397
O   O363      1.0  0.43680  0.18680  0.93680  1.0000 -0.7315923397
O   O364      1.0  0.43680  0.68680  0.43680  1.0000 -0.7315923397
O   O365      1.0  0.81320  0.56320  0.43680  1.0000 -0.7315923397
O   O366      1.0  0.31320  0.56320  0.93680  1.0000 -0.7315923397
O   O367      1.0  0.81320  0.93680  0.06320  1.0000 -0.7315923397
O   O368      1.0  0.31320  0.93680  0.56320  1.0000 -0.7315923397
O   O369      1.0  0.93680  0.43680  0.18680  1.0000 -0.7315923397
O   O370      1.0  0.43680  0.81320  0.56320  1.0000 -0.7315923397
O   O371      1.0  0.43680  0.31320  0.06320  1.0000 -0.7315923397
O   O372      1.0  0.06320  0.81320  0.56320  1.0000 -0.7315923397
O   O373      1.0  0.06320  0.31320  0.06320  1.0000 -0.7315923397
O   O374      1.0  0.18680  0.93680  0.06320  1.0000 -0.7315923397
O   O375      1.0  0.68680  0.93680  0.56320  1.0000 -0.7315923397
O   O376      1.0  0.56320  0.93680  0.68680  1.0000 -0.7315923397
O   O377      1.0  0.43680  0.68680  0.06320  1.0000 -0.7315923397
O   O378      1.0  0.93680  0.06320  0.18680  1.0000 -0.7315923397
O   O379      1.0  0.93680  0.56320  0.68680  1.0000 -0.7315923397
O   O380      1.0  0.81320  0.56320  0.06320  1.0000 -0.7315923397
O   O381      1.0  0.68680  0.56320  0.93680  1.0000 -0.7315923397
O   O382      1.0  0.56320  0.06320  0.81320  1.0000 -0.7315923397
O   O383      1.0  0.06320  0.18680  0.93680  1.0000 -0.7315923397
O   O384      1.0  0.06320  0.68680  0.43680  1.0000 -0.7315923397
Ni  Ni1       1.0  0.03510  0.21490  0.03510  1.0000 0.8961243823
Na  Na1       1.0  0.09927  0.15073  0.09927  1.0000 -0.0719945908
Ni  Ni2       1.0  0.71490  0.03510  0.53510  1.0000 0.8961243823
Na  Na2       1.0  0.65073  0.09927  0.59927  1.0000 -0.0719945908
Ni  Ni3       1.0  0.21490  0.03510  0.03510  1.0000 0.8961243823
Na  Na3       1.0  0.15073  0.09927  0.09927  1.0000 -0.0719945908
Ni  Ni4       1.0  0.21490  0.71490  0.71490  1.0000 0.8961243823
Na  Na4       1.0  0.15073  0.65073  0.65073  1.0000 -0.0719945908
Ni  Ni5       1.0  0.21490  0.21490  0.21490  1.0000 0.8961243823
Na  Na5       1.0  0.15073  0.15073  0.15073  1.0000 -0.0719945908
Ni  Ni6       1.0  0.53510  0.53510  0.21490  1.0000 0.8961243823
Na  Na6       1.0  0.59927  0.59927  0.15073  1.0000 -0.0719945908
Ni  Ni7       1.0  0.03510  0.03510  0.21490  1.0000 0.8961243823
Na  Na7       1.0  0.09927  0.09927  0.15073  1.0000 -0.0719945908
Ni  Ni8       1.0  0.53510  0.71490  0.03510  1.0000 0.8961243823
Na  Na8       1.0  0.59927  0.65073  0.09927  1.0000 -0.0719945908
Ni  Ni9       1.0  0.71490  0.21490  0.71490  1.0000 0.8961243823
Na  Na9       1.0  0.65073  0.15073  0.65073  1.0000 -0.0719945908
Ni  Ni10      1.0  0.21490  0.53510  0.53510  1.0000 0.8961243823
Na  Na10      1.0  0.15073  0.59927  0.59927  1.0000 -0.0719945908
Ni  Ni11      1.0  0.03510  0.53510  0.71490  1.0000 0.8961243823
Na  Na11      1.0  0.09927  0.59927  0.65073  1.0000 -0.0719945908
Ni  Ni12      1.0  0.71490  0.71490  0.21490  1.0000 0.8961243823
Na  Na12      1.0  0.65073  0.65073  0.15073  1.0000 -0.0719945908
Ni  Ni13      1.0  0.53510  0.21490  0.53510  1.0000 0.8961243823
Na  Na13      1.0  0.59927  0.15073  0.59927  1.0000 -0.0719945908
Ni  Ni14      1.0  0.96490  0.28510  0.46490  1.0000 0.8961243823
Na  Na14      1.0  0.90073  0.34927  0.40073  1.0000 -0.0719945908
Ni  Ni15      1.0  0.78510  0.96490  0.96490  1.0000 0.8961243823
Na  Na15      1.0  0.84927  0.90073  0.90073  1.0000 -0.0719945908
Ni  Ni16      1.0  0.46490  0.46490  0.78510  1.0000 0.8961243823
Na  Na16      1.0  0.40073  0.40073  0.84927  1.0000 -0.0719945908
Ni  Ni17      1.0  0.28510  0.78510  0.28510  1.0000 0.8961243823
Na  Na17      1.0  0.34927  0.84927  0.34927  1.0000 -0.0719945908
Ni  Ni18      1.0  0.78510  0.28510  0.28510  1.0000 0.8961243823
Na  Na18      1.0  0.84927  0.34927  0.34927  1.0000 -0.0719945908
Ni  Ni19      1.0  0.78510  0.78510  0.78510  1.0000 0.8961243823
Na  Na19      1.0  0.84927  0.84927  0.84927  1.0000 -0.0719945908
Ni  Ni20      1.0  0.46490  0.78510  0.46490  1.0000 0.8961243823
Na  Na20      1.0  0.40073  0.84927  0.40073  1.0000 -0.0719945908
Ni  Ni21      1.0  0.96490  0.96490  0.78510  1.0000 0.8961243823
Na  Na21      1.0  0.90073  0.90073  0.84927  1.0000 -0.0719945908
Ni  Ni22      1.0  0.28510  0.46490  0.96490  1.0000 0.8961243823
Na  Na22      1.0  0.34927  0.40073  0.90073  1.0000 -0.0719945908
Ni  Ni23      1.0  0.78510  0.46490  0.46490  1.0000 0.8961243823
Na  Na23      1.0  0.84927  0.40073  0.40073  1.0000 -0.0719945908
Ni  Ni24      1.0  0.28510  0.28510  0.78510  1.0000 0.8961243823
Na  Na24      1.0  0.34927  0.34927  0.84927  1.0000 -0.0719945908
Ni  Ni25      1.0  0.46490  0.96490  0.28510  1.0000 0.8961243823
Na  Na25      1.0  0.40073  0.90073  0.34927  1.0000 -0.0719945908
Ni  Ni26      1.0  0.96490  0.78510  0.96490  1.0000 0.8961243823
Na  Na26      1.0  0.90073  0.84927  0.90073  1.0000 -0.0719945908
Ni  Ni27      1.0  0.28510  0.96490  0.46490  1.0000 0.8961243823
Na  Na27      1.0  0.34927  0.90073  0.40073  1.0000 -0.0719945908
Ni  Ni28      1.0  0.46490  0.28510  0.96490  1.0000 0.8961243823
Na  Na28      1.0  0.40073  0.34927  0.90073  1.0000 -0.0719945908
Ni  Ni29      1.0  0.96490  0.46490  0.28510  1.0000 0.8961243823
Na  Na29      1.0  0.90073  0.40073  0.34927  1.0000 -0.0719945908
Ni  Ni30      1.0  0.03510  0.71490  0.53510  1.0000 0.8961243823
Na  Na30      1.0  0.09927  0.65073  0.59927  1.0000 -0.0719945908
Ni  Ni31      1.0  0.71490  0.53510  0.03510  1.0000 0.8961243823
Na  Na31      1.0  0.65073  0.59927  0.09927  1.0000 -0.0719945908
Ni  Ni32      1.0  0.53510  0.03510  0.71490  1.0000 0.8961243823
Na  Na32      1.0  0.59927  0.09927  0.65073  1.0000 -0.0719945908
  Al  Al97      1.0  0.93700  0.11300  0.02370  1.0000
  Si  Si97      1.0  0.88700  0.06300  0.97630  1.0000
  Al  Al98      1.0  0.93700  0.61300  0.52370  1.0000
  Si  Si98      1.0  0.88700  0.56300  0.47630  1.0000
  Al  Al99      1.0  0.43700  0.11300  0.52370  1.0000
  Si  Si99      1.0  0.38700  0.06300  0.47630  1.0000
  Al  Al100     1.0  0.43700  0.61300  0.02370  1.0000
  Si  Si100     1.0  0.38700  0.56300  0.97630  1.0000
  Al  Al101     1.0  0.81300  0.13700  0.52370  1.0000
  Si  Si101     1.0  0.86300  0.18700  0.47630  1.0000
  Al  Al102     1.0  0.81300  0.63700  0.02370  1.0000
  Si  Si102     1.0  0.86300  0.68700  0.97630  1.0000
  Al  Al103     1.0  0.31300  0.13700  0.02370  1.0000
  Si  Si103     1.0  0.36300  0.18700  0.97630  1.0000
  Al  Al104     1.0  0.31300  0.63700  0.52370  1.0000
  Si  Si104     1.0  0.36300  0.68700  0.47630  1.0000
  Al  Al105     1.0  0.31300  0.61300  0.72630  1.0000
  Si  Si105     1.0  0.36300  0.56300  0.77370  1.0000
  Al  Al106     1.0  0.31300  0.11300  0.22630  1.0000
  Si  Si106     1.0  0.36300  0.06300  0.27370  1.0000
  Al  Al107     1.0  0.81300  0.61300  0.22630  1.0000
  Si  Si107     1.0  0.86300  0.56300  0.27370  1.0000
  Al  Al108     1.0  0.81300  0.11300  0.72630  1.0000
  Si  Si108     1.0  0.86300  0.06300  0.77370  1.0000
  Al  Al109     1.0  0.43700  0.63700  0.22630  1.0000
  Si  Si109     1.0  0.38700  0.68700  0.27370  1.0000
  Al  Al110     1.0  0.43700  0.13700  0.72630  1.0000
  Si  Si110     1.0  0.38700  0.18700  0.77370  1.0000
  Al  Al111     1.0  0.93700  0.63700  0.72630  1.0000
  Si  Si111     1.0  0.88700  0.68700  0.77370  1.0000
  Al  Al112     1.0  0.93700  0.13700  0.22630  1.0000
  Si  Si112     1.0  0.88700  0.18700  0.27370  1.0000
  Al  Al113     1.0  0.02370  0.93700  0.11300  1.0000
  Si  Si113     1.0  0.97630  0.88700  0.06300  1.0000
  Al  Al114     1.0  0.02370  0.43700  0.61300  1.0000
  Si  Si114     1.0  0.97630  0.38700  0.56300  1.0000
  Al  Al115     1.0  0.52370  0.93700  0.61300  1.0000
  Si  Si115     1.0  0.47630  0.88700  0.56300  1.0000
  Al  Al116     1.0  0.52370  0.43700  0.11300  1.0000
  Si  Si116     1.0  0.47630  0.38700  0.06300  1.0000
  Al  Al117     1.0  0.52370  0.81300  0.13700  1.0000
  Si  Si117     1.0  0.47630  0.86300  0.18700  1.0000
  Al  Al118     1.0  0.52370  0.31300  0.63700  1.0000
  Si  Si118     1.0  0.47630  0.36300  0.68700  1.0000
  Al  Al119     1.0  0.02370  0.81300  0.63700  1.0000
  Si  Si119     1.0  0.97630  0.86300  0.68700  1.0000
  Al  Al120     1.0  0.02370  0.31300  0.13700  1.0000
  Si  Si120     1.0  0.97630  0.36300  0.18700  1.0000
  Al  Al121     1.0  0.72630  0.31300  0.61300  1.0000
  Si  Si121     1.0  0.77370  0.36300  0.56300  1.0000
  Al  Al122     1.0  0.72630  0.81300  0.11300  1.0000
  Si  Si122     1.0  0.77370  0.86300  0.06300  1.0000
  Al  Al123     1.0  0.22630  0.31300  0.11300  1.0000
  Si  Si123     1.0  0.27370  0.36300  0.06300  1.0000
  Al  Al124     1.0  0.22630  0.81300  0.61300  1.0000
  Si  Si124     1.0  0.27370  0.86300  0.56300  1.0000
  Al  Al125     1.0  0.22630  0.43700  0.63700  1.0000
  Si  Si125     1.0  0.27370  0.38700  0.68700  1.0000
  Al  Al126     1.0  0.22630  0.93700  0.13700  1.0000
  Si  Si126     1.0  0.27370  0.88700  0.18700  1.0000
  Al  Al127     1.0  0.72630  0.43700  0.13700  1.0000
  Si  Si127     1.0  0.77370  0.38700  0.18700  1.0000
  Al  Al128     1.0  0.72630  0.93700  0.63700  1.0000
  Si  Si128     1.0  0.77370  0.88700  0.68700  1.0000
  Al  Al129     1.0  0.11300  0.02370  0.93700  1.0000
  Si  Si129     1.0  0.06300  0.97630  0.88700  1.0000
  Al  Al130     1.0  0.11300  0.52370  0.43700  1.0000
  Si  Si130     1.0  0.06300  0.47630  0.38700  1.0000
  Al  Al131     1.0  0.61300  0.02370  0.43700  1.0000
  Si  Si131     1.0  0.56300  0.97630  0.38700  1.0000
  Al  Al132     1.0  0.61300  0.52370  0.93700  1.0000
  Si  Si132     1.0  0.56300  0.47630  0.88700  1.0000
  Al  Al133     1.0  0.13700  0.52370  0.81300  1.0000
  Si  Si133     1.0  0.18700  0.47630  0.86300  1.0000
  Al  Al134     1.0  0.13700  0.02370  0.31300  1.0000
  Si  Si134     1.0  0.18700  0.97630  0.36300  1.0000
  Al  Al135     1.0  0.63700  0.52370  0.31300  1.0000
  Si  Si135     1.0  0.68700  0.47630  0.36300  1.0000
  Al  Al136     1.0  0.63700  0.02370  0.81300  1.0000
  Si  Si136     1.0  0.68700  0.97630  0.86300  1.0000
  Al  Al137     1.0  0.61300  0.72630  0.31300  1.0000
  Si  Si137     1.0  0.56300  0.77370  0.36300  1.0000
  Al  Al138     1.0  0.61300  0.22630  0.81300  1.0000
  Si  Si138     1.0  0.56300  0.27370  0.86300  1.0000
  Al  Al139     1.0  0.11300  0.72630  0.81300  1.0000
  Si  Si139     1.0  0.06300  0.77370  0.86300  1.0000
  Al  Al140     1.0  0.11300  0.22630  0.31300  1.0000
  Si  Si140     1.0  0.06300  0.27370  0.36300  1.0000
  Al  Al141     1.0  0.63700  0.22630  0.43700  1.0000
  Si  Si141     1.0  0.68700  0.27370  0.38700  1.0000
  Al  Al142     1.0  0.63700  0.72630  0.93700  1.0000
  Si  Si142     1.0  0.68700  0.77370  0.88700  1.0000
  Al  Al143     1.0  0.13700  0.22630  0.93700  1.0000
  Si  Si143     1.0  0.18700  0.27370  0.88700  1.0000
  Al  Al144     1.0  0.13700  0.72630  0.43700  1.0000
  Si  Si144     1.0  0.18700  0.77370  0.38700  1.0000
  Al  Al145     1.0  0.06300  0.88700  0.97630  1.0000
  Si  Si145     1.0  0.11300  0.93700  0.02370  1.0000
  Al  Al146     1.0  0.06300  0.38700  0.47630  1.0000
  Si  Si146     1.0  0.11300  0.43700  0.52370  1.0000
  Al  Al147     1.0  0.56300  0.88700  0.47630  1.0000
  Si  Si147     1.0  0.61300  0.93700  0.52370  1.0000
  Al  Al148     1.0  0.56300  0.38700  0.97630  1.0000
  Si  Si148     1.0  0.61300  0.43700  0.02370  1.0000
  Al  Al149     1.0  0.18700  0.86300  0.47630  1.0000
  Si  Si149     1.0  0.13700  0.81300  0.52370  1.0000
  Al  Al150     1.0  0.18700  0.36300  0.97630  1.0000
  Si  Si150     1.0  0.13700  0.31300  0.02370  1.0000
  Al  Al151     1.0  0.68700  0.86300  0.97630  1.0000
  Si  Si151     1.0  0.63700  0.81300  0.02370  1.0000
  Al  Al152     1.0  0.68700  0.36300  0.47630  1.0000
  Si  Si152     1.0  0.63700  0.31300  0.52370  1.0000
  Al  Al153     1.0  0.68700  0.38700  0.27370  1.0000
  Si  Si153     1.0  0.63700  0.43700  0.22630  1.0000
  Al  Al154     1.0  0.68700  0.88700  0.77370  1.0000
  Si  Si154     1.0  0.63700  0.93700  0.72630  1.0000
  Al  Al155     1.0  0.18700  0.38700  0.77370  1.0000
  Si  Si155     1.0  0.13700  0.43700  0.72630  1.0000
  Al  Al156     1.0  0.18700  0.88700  0.27370  1.0000
  Si  Si156     1.0  0.13700  0.93700  0.22630  1.0000
  Al  Al157     1.0  0.56300  0.36300  0.77370  1.0000
  Si  Si157     1.0  0.61300  0.31300  0.72630  1.0000
  Al  Al158     1.0  0.56300  0.86300  0.27370  1.0000
  Si  Si158     1.0  0.61300  0.81300  0.22630  1.0000
  Al  Al159     1.0  0.06300  0.36300  0.27370  1.0000
  Si  Si159     1.0  0.11300  0.31300  0.22630  1.0000
  Al  Al160     1.0  0.06300  0.86300  0.77370  1.0000
  Si  Si160     1.0  0.11300  0.81300  0.72630  1.0000
  Al  Al161     1.0  0.97630  0.06300  0.88700  1.0000
  Si  Si161     1.0  0.02370  0.11300  0.93700  1.0000
  Al  Al162     1.0  0.97630  0.56300  0.38700  1.0000
  Si  Si162     1.0  0.02370  0.61300  0.43700  1.0000
  Al  Al163     1.0  0.47630  0.06300  0.38700  1.0000
  Si  Si163     1.0  0.52370  0.11300  0.43700  1.0000
  Al  Al164     1.0  0.47630  0.56300  0.88700  1.0000
  Si  Si164     1.0  0.52370  0.61300  0.93700  1.0000
  Al  Al165     1.0  0.47630  0.18700  0.86300  1.0000
  Si  Si165     1.0  0.52370  0.13700  0.81300  1.0000
  Al  Al166     1.0  0.47630  0.68700  0.36300  1.0000
  Si  Si166     1.0  0.52370  0.63700  0.31300  1.0000
  Al  Al167     1.0  0.97630  0.18700  0.36300  1.0000
  Si  Si167     1.0  0.02370  0.13700  0.31300  1.0000
  Al  Al168     1.0  0.97630  0.68700  0.86300  1.0000
  Si  Si168     1.0  0.02370  0.63700  0.81300  1.0000
  Al  Al169     1.0  0.27370  0.68700  0.38700  1.0000
  Si  Si169     1.0  0.22630  0.63700  0.43700  1.0000
  Al  Al170     1.0  0.27370  0.18700  0.88700  1.0000
  Si  Si170     1.0  0.22630  0.13700  0.93700  1.0000
  Al  Al171     1.0  0.77370  0.68700  0.88700  1.0000
  Si  Si171     1.0  0.72630  0.63700  0.93700  1.0000
  Al  Al172     1.0  0.77370  0.18700  0.38700  1.0000
  Si  Si172     1.0  0.72630  0.13700  0.43700  1.0000
  Al  Al173     1.0  0.77370  0.56300  0.36300  1.0000
  Si  Si173     1.0  0.72630  0.61300  0.31300  1.0000
  Al  Al174     1.0  0.77370  0.06300  0.86300  1.0000
  Si  Si174     1.0  0.72630  0.11300  0.81300  1.0000
  Al  Al175     1.0  0.27370  0.56300  0.86300  1.0000
  Si  Si175     1.0  0.22630  0.61300  0.81300  1.0000
  Al  Al176     1.0  0.27370  0.06300  0.36300  1.0000
  Si  Si176     1.0  0.22630  0.11300  0.31300  1.0000
  Al  Al177     1.0  0.88700  0.97630  0.06300  1.0000
  Si  Si177     1.0  0.93700  0.02370  0.11300  1.0000
  Al  Al178     1.0  0.88700  0.47630  0.56300  1.0000
  Si  Si178     1.0  0.93700  0.52370  0.61300  1.0000
  Al  Al179     1.0  0.38700  0.97630  0.56300  1.0000
  Si  Si179     1.0  0.43700  0.02370  0.61300  1.0000
  Al  Al180     1.0  0.38700  0.47630  0.06300  1.0000
  Si  Si180     1.0  0.43700  0.52370  0.11300  1.0000
  Al  Al181     1.0  0.86300  0.47630  0.18700  1.0000
  Si  Si181     1.0  0.81300  0.52370  0.13700  1.0000
  Al  Al182     1.0  0.86300  0.97630  0.68700  1.0000
  Si  Si182     1.0  0.81300  0.02370  0.63700  1.0000
  Al  Al183     1.0  0.36300  0.47630  0.68700  1.0000
  Si  Si183     1.0  0.31300  0.52370  0.63700  1.0000
  Al  Al184     1.0  0.36300  0.97630  0.18700  1.0000
  Si  Si184     1.0  0.31300  0.02370  0.13700  1.0000
  Al  Al185     1.0  0.38700  0.27370  0.68700  1.0000
  Si  Si185     1.0  0.43700  0.22630  0.63700  1.0000
  Al  Al186     1.0  0.38700  0.77370  0.18700  1.0000
  Si  Si186     1.0  0.43700  0.72630  0.13700  1.0000
  Al  Al187     1.0  0.88700  0.27370  0.18700  1.0000
  Si  Si187     1.0  0.93700  0.22630  0.13700  1.0000
  Al  Al188     1.0  0.88700  0.77370  0.68700  1.0000
  Si  Si188     1.0  0.93700  0.72630  0.63700  1.0000
  Al  Al189     1.0  0.36300  0.77370  0.56300  1.0000
  Si  Si189     1.0  0.31300  0.72630  0.61300  1.0000
  Al  Al190     1.0  0.36300  0.27370  0.06300  1.0000
  Si  Si190     1.0  0.31300  0.22630  0.11300  1.0000
  Al  Al191     1.0  0.86300  0.77370  0.06300  1.0000
  Si  Si191     1.0  0.81300  0.72630  0.11300  1.0000
  Al  Al192     1.0  0.86300  0.27370  0.56300  1.0000
  Si  Si192     1.0  0.81300  0.22630  0.61300  1.0000
