# DDEC6 charges by PACMAN v1.1 (https://github.com/mtap-research/PACMAN-charge/)
data_JUQVAU_ASR_pacman
_symmetry_space_group_name_H-M   'P 1'
_cell_length_a   17.52790000
_cell_length_b   17.52790000
_cell_length_c   17.52790000
_cell_angle_alpha   90.00000000
_cell_angle_beta   90.00000000
_cell_angle_gamma   90.00000000
_symmetry_Int_Tables_number   1
_chemical_formula_structural   CoH2C4(NO)2
_chemical_formula_sum   'Co24 H48 C96 N48 O48'
_cell_volume   5385.04901324
_cell_formula_units_Z   24
loop_
 _symmetry_equiv_pos_site_id
 _symmetry_equiv_pos_as_xyz
  1  'x, y, z'
loop_
 _atom_site_type_symbol
 _atom_site_label
 _atom_site_symmetry_multiplicity
 _atom_site_fract_x
 _atom_site_fract_y
 _atom_site_fract_z
 _atom_site_occupancy
 _atom_site_charge
Co  Co1  1  0.87133000  0.10553000  0.23826000  1.0 0.8401621892
Co  Co2  1  0.62867000  0.89447000  0.73826000  1.0 0.8401621892
Co  Co3  1  0.12867000  0.60553000  0.26174000  1.0 0.8401621892
Co  Co4  1  0.37133000  0.39447000  0.76174000  1.0 0.8401621892
Co  Co5  1  0.23826000  0.87133000  0.10553000  1.0 0.8401621892
Co  Co6  1  0.73826000  0.62867000  0.89447000  1.0 0.8401621892
Co  Co7  1  0.26174000  0.12867000  0.60553000  1.0 0.8401621892
Co  Co8  1  0.76174000  0.37133000  0.39447000  1.0 0.8401621892
Co  Co9  1  0.10553000  0.23826000  0.87133000  1.0 0.8401621892
Co  Co10  1  0.89447000  0.73826000  0.62867000  1.0 0.8401621892
Co  Co11  1  0.60553000  0.26174000  0.12867000  1.0 0.8401621892
Co  Co12  1  0.39447000  0.76174000  0.37133000  1.0 0.8401621892
Co  Co13  1  0.78704000  0.28704000  0.21296000  1.0 1.0863725855
Co  Co14  1  0.71296000  0.71296000  0.71296000  1.0 1.0863725855
Co  Co15  1  0.21296000  0.78704000  0.28704000  1.0 1.0863725855
Co  Co16  1  0.28704000  0.21296000  0.78704000  1.0 1.0863725855
Co  Co17  1  0.68409000  0.81591000  0.18409000  1.0 0.5314566408
Co  Co18  1  0.81591000  0.18409000  0.68409000  1.0 0.5314566408
Co  Co19  1  0.31591000  0.31591000  0.31591000  1.0 0.5466609909
Co  Co20  1  0.18409000  0.68409000  0.81591000  1.0 0.5314566408
Co  Co21  1  0.88895000  0.38895000  0.11105000  1.0 0.751773627
Co  Co22  1  0.61105000  0.61105000  0.61105000  1.0 0.751773627
Co  Co23  1  0.11105000  0.88895000  0.38895000  1.0 0.751773627
Co  Co24  1  0.38895000  0.11105000  0.88895000  1.0 0.751773627
H  H1  1  0.82540000  0.91950000  0.23380000  1.0 0.0968566949
H  H2  1  0.67460000  0.08050000  0.73380000  1.0 0.0968566949
H  H3  1  0.17460000  0.41950000  0.26620000  1.0 0.0968566949
H  H4  1  0.32540000  0.58050000  0.76620000  1.0 0.0968566949
H  H5  1  0.23380000  0.82540000  0.91950000  1.0 0.0968566949
H  H6  1  0.73380000  0.67460000  0.08050000  1.0 0.0968566949
H  H7  1  0.26620000  0.17460000  0.41950000  1.0 0.0968566949
H  H8  1  0.76620000  0.32540000  0.58050000  1.0 0.0968566949
H  H9  1  0.91950000  0.23380000  0.82540000  1.0 0.0968566949
H  H10  1  0.08050000  0.73380000  0.67460000  1.0 0.0968566949
H  H11  1  0.41950000  0.26620000  0.17460000  1.0 0.0968566949
H  H12  1  0.58050000  0.76620000  0.32540000  1.0 0.0968566949
H  H13  1  0.02220000  0.03320000  0.16630000  1.0 0.1278188267
H  H14  1  0.47780000  0.96680000  0.66630000  1.0 0.1278188267
H  H15  1  0.97780000  0.53320000  0.33370000  1.0 0.1278188267
H  H16  1  0.52220000  0.46680000  0.83370000  1.0 0.1278188267
H  H17  1  0.16630000  0.02220000  0.03320000  1.0 0.1278188267
H  H18  1  0.66630000  0.47780000  0.96680000  1.0 0.1278188267
H  H19  1  0.33370000  0.97780000  0.53320000  1.0 0.1278188267
H  H20  1  0.83370000  0.52220000  0.46680000  1.0 0.1278188267
H  H21  1  0.03320000  0.16630000  0.02220000  1.0 0.1278188267
H  H22  1  0.96680000  0.66630000  0.47780000  1.0 0.1278188267
H  H23  1  0.53320000  0.33370000  0.97780000  1.0 0.1278188267
H  H24  1  0.46680000  0.83370000  0.52220000  1.0 0.1278188267
H  H25  1  0.95150000  0.00170000  0.37430000  1.0 0.0968566949
H  H26  1  0.54850000  0.99830000  0.87430000  1.0 0.0968566949
H  H27  1  0.04850000  0.50170000  0.12570000  1.0 0.0968566949
H  H28  1  0.45150000  0.49830000  0.62570000  1.0 0.0968566949
H  H29  1  0.37430000  0.95150000  0.00170000  1.0 0.0968566949
H  H30  1  0.87430000  0.54850000  0.99830000  1.0 0.0968566949
H  H31  1  0.12570000  0.04850000  0.50170000  1.0 0.0968566949
H  H32  1  0.62570000  0.45150000  0.49830000  1.0 0.0968566949
H  H33  1  0.00170000  0.37430000  0.95150000  1.0 0.0968566949
H  H34  1  0.99830000  0.87430000  0.54850000  1.0 0.0968566949
H  H35  1  0.50170000  0.12570000  0.04850000  1.0 0.0968566949
H  H36  1  0.49830000  0.62570000  0.45150000  1.0 0.0968566949
H  H37  1  0.63020000  0.99020000  0.15110000  1.0 0.1222611519
H  H38  1  0.86980000  0.00980000  0.65110000  1.0 0.1222611519
H  H39  1  0.36980000  0.49020000  0.34890000  1.0 0.1222611519
H  H40  1  0.13020000  0.50980000  0.84890000  1.0 0.1222611519
H  H41  1  0.15110000  0.63020000  0.99020000  1.0 0.1222611519
H  H42  1  0.65110000  0.86980000  0.00980000  1.0 0.1222611519
H  H43  1  0.34890000  0.36980000  0.49020000  1.0 0.1222611519
H  H44  1  0.84890000  0.13020000  0.50980000  1.0 0.1222611519
H  H45  1  0.99020000  0.15110000  0.63020000  1.0 0.1222611519
H  H46  1  0.00980000  0.65110000  0.86980000  1.0 0.1222611519
H  H47  1  0.49020000  0.34890000  0.36980000  1.0 0.1222611519
H  H48  1  0.50980000  0.84890000  0.13020000  1.0 0.1222611519
C  C1  1  0.78520000  0.95190000  0.21460000  1.0 0.1763061448
C  C2  1  0.71480000  0.04810000  0.71460000  1.0 0.1763061448
C  C3  1  0.21480000  0.45190000  0.28540000  1.0 0.1763061448
C  C4  1  0.28520000  0.54810000  0.78540000  1.0 0.1763061448
C  C5  1  0.21460000  0.78520000  0.95190000  1.0 0.1763061448
C  C6  1  0.71460000  0.71480000  0.04810000  1.0 0.1763061448
C  C7  1  0.28540000  0.21480000  0.45190000  1.0 0.1763061448
C  C8  1  0.78540000  0.28520000  0.54810000  1.0 0.1763061448
C  C9  1  0.95190000  0.21460000  0.78520000  1.0 0.1763061448
C  C10  1  0.04810000  0.71460000  0.71480000  1.0 0.1763061448
C  C11  1  0.45190000  0.28540000  0.21480000  1.0 0.1763061448
C  C12  1  0.54810000  0.78540000  0.28520000  1.0 0.1763061448
C  C13  1  0.72310000  0.05200000  0.18120000  1.0 -0.014771841
C  C14  1  0.77690000  0.94800000  0.68120000  1.0 -0.014771841
C  C15  1  0.27690000  0.55200000  0.31880000  1.0 -0.0151481391
C  C16  1  0.22310000  0.44800000  0.81880000  1.0 -0.0151481391
C  C17  1  0.18120000  0.72310000  0.05200000  1.0 -0.0151481391
C  C18  1  0.68120000  0.77690000  0.94800000  1.0 -0.0151481391
C  C19  1  0.31880000  0.27690000  0.55200000  1.0 -0.0151481391
C  C20  1  0.81880000  0.22310000  0.44800000  1.0 -0.014771841
C  C21  1  0.05200000  0.18120000  0.72310000  1.0 -0.014771841
C  C22  1  0.94800000  0.68120000  0.77690000  1.0 -0.014771841
C  C23  1  0.55200000  0.31880000  0.27690000  1.0 -0.014771841
C  C24  1  0.44800000  0.81880000  0.22310000  1.0 -0.0151481391
C  C25  1  0.71280000  0.13430000  0.17320000  1.0 0.5909890745
C  C26  1  0.78720000  0.86570000  0.67320000  1.0 0.5909890745
C  C27  1  0.28720000  0.63430000  0.32680000  1.0 0.5909890745
C  C28  1  0.21280000  0.36570000  0.82680000  1.0 0.5909890745
C  C29  1  0.17320000  0.71280000  0.13430000  1.0 0.5909890745
C  C30  1  0.67320000  0.78720000  0.86570000  1.0 0.5909890745
C  C31  1  0.32680000  0.28720000  0.63430000  1.0 0.5909890745
C  C32  1  0.82680000  0.21280000  0.36570000  1.0 0.5909890745
C  C33  1  0.13430000  0.17320000  0.71280000  1.0 0.5909890745
C  C34  1  0.86570000  0.67320000  0.78720000  1.0 0.5909890745
C  C35  1  0.63430000  0.32680000  0.28720000  1.0 0.5909890745
C  C36  1  0.36570000  0.82680000  0.21280000  1.0 0.5909890745
C  C37  1  0.01800000  0.01810000  0.21560000  1.0 -0.0416886091
C  C38  1  0.48200000  0.98190000  0.71560000  1.0 -0.0416886091
C  C39  1  0.98200000  0.51810000  0.28440000  1.0 -0.0416886091
C  C40  1  0.51800000  0.48190000  0.78440000  1.0 -0.0416886091
C  C41  1  0.21560000  0.01800000  0.01810000  1.0 -0.0416886091
C  C42  1  0.71560000  0.48200000  0.98190000  1.0 -0.0416886091
C  C43  1  0.28440000  0.98200000  0.51810000  1.0 -0.0416886091
C  C44  1  0.78440000  0.51800000  0.48190000  1.0 -0.0416886091
C  C45  1  0.01810000  0.21560000  0.01800000  1.0 -0.0416886091
C  C46  1  0.98190000  0.71560000  0.48200000  1.0 -0.0416886091
C  C47  1  0.51810000  0.28440000  0.98200000  1.0 -0.0416886091
C  C48  1  0.48190000  0.78440000  0.51800000  1.0 -0.0416886091
C  C49  1  0.97980000  0.00050000  0.32910000  1.0 0.1496384009
C  C50  1  0.52020000  0.99950000  0.82910000  1.0 0.1496384009
C  C51  1  0.02020000  0.50050000  0.17090000  1.0 0.1496384009
C  C52  1  0.47980000  0.49950000  0.67090000  1.0 0.1496384009
C  C53  1  0.32910000  0.97980000  0.00050000  1.0 0.1496384009
C  C54  1  0.82910000  0.52020000  0.99950000  1.0 0.1496384009
C  C55  1  0.17090000  0.02020000  0.50050000  1.0 0.1496384009
C  C56  1  0.67090000  0.47980000  0.49950000  1.0 0.1496384009
C  C57  1  0.00050000  0.32910000  0.97980000  1.0 0.1496384009
C  C58  1  0.99950000  0.82910000  0.52020000  1.0 0.1496384009
C  C59  1  0.50050000  0.17090000  0.02020000  1.0 0.1496384009
C  C60  1  0.49950000  0.67090000  0.47980000  1.0 0.1496384009
C  C61  1  0.93140000  0.22540000  0.13810000  1.0 0.5824645474
C  C62  1  0.56860000  0.77460000  0.63810000  1.0 0.5824645474
C  C63  1  0.06860000  0.72540000  0.36190000  1.0 0.5824645474
C  C64  1  0.43140000  0.27460000  0.86190000  1.0 0.5824645474
C  C65  1  0.13810000  0.93140000  0.22540000  1.0 0.5824645474
C  C66  1  0.63810000  0.56860000  0.77460000  1.0 0.5824645474
C  C67  1  0.36190000  0.06860000  0.72540000  1.0 0.5824645474
C  C68  1  0.86190000  0.43140000  0.27460000  1.0 0.5824645474
C  C69  1  0.22540000  0.13810000  0.93140000  1.0 0.5824645474
C  C70  1  0.77460000  0.63810000  0.56860000  1.0 0.5824645474
C  C71  1  0.72540000  0.36190000  0.06860000  1.0 0.5824645474
C  C72  1  0.27460000  0.86190000  0.43140000  1.0 0.5824645474
C  C73  1  0.67840000  0.98910000  0.16860000  1.0 -0.0503884428
C  C74  1  0.82160000  0.01090000  0.66860000  1.0 -0.0503884428
C  C75  1  0.32160000  0.48910000  0.33140000  1.0 -0.0503884428
C  C76  1  0.17840000  0.51090000  0.83140000  1.0 -0.0503884428
C  C77  1  0.16860000  0.67840000  0.98910000  1.0 -0.0503884428
C  C78  1  0.66860000  0.82160000  0.01090000  1.0 -0.0503884428
C  C79  1  0.33140000  0.32160000  0.48910000  1.0 -0.0503884428
C  C80  1  0.83140000  0.17840000  0.51090000  1.0 -0.0503884428
C  C81  1  0.98910000  0.16860000  0.67840000  1.0 -0.0503884428
C  C82  1  0.01090000  0.66860000  0.82160000  1.0 -0.0503884428
C  C83  1  0.48910000  0.33140000  0.32160000  1.0 -0.0503884428
C  C84  1  0.51090000  0.83140000  0.17840000  1.0 -0.0503884428
C  C85  1  0.06750000  0.97020000  0.25110000  1.0 -0.0032670772
C  C86  1  0.43250000  0.02980000  0.75110000  1.0 -0.0032670772
C  C87  1  0.93250000  0.47020000  0.24890000  1.0 -0.0032670772
C  C88  1  0.56750000  0.52980000  0.74890000  1.0 -0.0032670772
C  C89  1  0.25110000  0.06750000  0.97020000  1.0 -0.0032670772
C  C90  1  0.75110000  0.43250000  0.02980000  1.0 -0.0032670772
C  C91  1  0.24890000  0.93250000  0.47020000  1.0 -0.0032670772
C  C92  1  0.74890000  0.56750000  0.52980000  1.0 -0.0032670772
C  C93  1  0.97020000  0.25110000  0.06750000  1.0 -0.0032670772
C  C94  1  0.02980000  0.75110000  0.43250000  1.0 -0.0032670772
C  C95  1  0.47020000  0.24890000  0.93250000  1.0 -0.0032670772
C  C96  1  0.52980000  0.74890000  0.56750000  1.0 -0.0032670772
N  N1  1  0.79240000  0.02570000  0.21110000  1.0 -0.3400339967
N  N2  1  0.70760000  0.97430000  0.71110000  1.0 -0.3400339967
N  N3  1  0.20760000  0.52570000  0.28890000  1.0 -0.3400339967
N  N4  1  0.29240000  0.47430000  0.78890000  1.0 -0.3400339967
N  N5  1  0.21110000  0.79240000  0.02570000  1.0 -0.3400339967
N  N6  1  0.71110000  0.70760000  0.97430000  1.0 -0.3400339967
N  N7  1  0.28890000  0.20760000  0.52570000  1.0 -0.3400339967
N  N8  1  0.78890000  0.29240000  0.47430000  1.0 -0.3400339967
N  N9  1  0.02570000  0.21110000  0.79240000  1.0 -0.3400339967
N  N10  1  0.97430000  0.71110000  0.70760000  1.0 -0.3400339967
N  N11  1  0.52570000  0.28890000  0.20760000  1.0 -0.3400339967
N  N12  1  0.47430000  0.78890000  0.29240000  1.0 -0.3400339967
N  N13  1  0.96180000  0.03730000  0.26530000  1.0 -0.3184607462
N  N14  1  0.53820000  0.96270000  0.76530000  1.0 -0.3184607462
N  N15  1  0.03820000  0.53730000  0.23470000  1.0 -0.3184607462
N  N16  1  0.46180000  0.46270000  0.73470000  1.0 -0.3184607462
N  N17  1  0.26530000  0.96180000  0.03730000  1.0 -0.3184607462
N  N18  1  0.76530000  0.53820000  0.96270000  1.0 -0.3184607462
N  N19  1  0.23470000  0.03820000  0.53730000  1.0 -0.3184607462
N  N20  1  0.73470000  0.46180000  0.46270000  1.0 -0.3184607462
N  N21  1  0.03730000  0.26530000  0.96180000  1.0 -0.3184607462
N  N22  1  0.96270000  0.76530000  0.53820000  1.0 -0.3184607462
N  N23  1  0.53730000  0.23470000  0.03820000  1.0 -0.3184607462
N  N24  1  0.46270000  0.73470000  0.46180000  1.0 -0.3184607462
N  N25  1  0.71810000  0.92550000  0.19040000  1.0 -0.309057125
N  N26  1  0.78190000  0.07450000  0.69040000  1.0 -0.309057125
N  N27  1  0.28190000  0.42550000  0.30960000  1.0 -0.309057125
N  N28  1  0.21810000  0.57450000  0.80960000  1.0 -0.309057125
N  N29  1  0.19040000  0.71810000  0.92550000  1.0 -0.309057125
N  N30  1  0.69040000  0.78190000  0.07450000  1.0 -0.309057125
N  N31  1  0.30960000  0.28190000  0.42550000  1.0 -0.309057125
N  N32  1  0.80960000  0.21810000  0.57450000  1.0 -0.309057125
N  N33  1  0.92550000  0.19040000  0.71810000  1.0 -0.309057125
N  N34  1  0.07450000  0.69040000  0.78190000  1.0 -0.309057125
N  N35  1  0.42550000  0.30960000  0.28190000  1.0 -0.309057125
N  N36  1  0.57450000  0.80960000  0.21810000  1.0 -0.309057125
N  N37  1  0.04290000  0.95970000  0.32470000  1.0 -0.3184607462
N  N38  1  0.45710000  0.04030000  0.82470000  1.0 -0.3184607462
N  N39  1  0.95710000  0.45970000  0.17530000  1.0 -0.3184607462
N  N40  1  0.54290000  0.54030000  0.67530000  1.0 -0.3184607462
N  N41  1  0.32470000  0.04290000  0.95970000  1.0 -0.3184607462
N  N42  1  0.82470000  0.45710000  0.04030000  1.0 -0.3184607462
N  N43  1  0.17530000  0.95710000  0.45970000  1.0 -0.3184607462
N  N44  1  0.67530000  0.54290000  0.54030000  1.0 -0.3184607462
N  N45  1  0.95970000  0.32470000  0.04290000  1.0 -0.3184607462
N  N46  1  0.04030000  0.82470000  0.45710000  1.0 -0.3184607462
N  N47  1  0.45970000  0.17530000  0.95710000  1.0 -0.3184607462
N  N48  1  0.54030000  0.67530000  0.54290000  1.0 -0.3184607462
O  O1  1  0.76964000  0.17342000  0.19427000  1.0 -0.568152048
O  O2  1  0.73036000  0.82658000  0.69427000  1.0 -0.568152048
O  O3  1  0.23036000  0.67342000  0.30573000  1.0 -0.568152048
O  O4  1  0.26964000  0.32658000  0.80573000  1.0 -0.568152048
O  O5  1  0.19427000  0.76964000  0.17342000  1.0 -0.568152048
O  O6  1  0.69427000  0.73036000  0.82658000  1.0 -0.568152048
O  O7  1  0.30573000  0.23036000  0.67342000  1.0 -0.568152048
O  O8  1  0.80573000  0.26964000  0.32658000  1.0 -0.568152048
O  O9  1  0.17342000  0.19427000  0.76964000  1.0 -0.568152048
O  O10  1  0.82658000  0.69427000  0.73036000  1.0 -0.568152048
O  O11  1  0.67342000  0.30573000  0.23036000  1.0 -0.568152048
O  O12  1  0.32658000  0.80573000  0.26964000  1.0 -0.568152048
O  O13  1  0.93080000  0.15590000  0.15410000  1.0 -0.5176728403
O  O14  1  0.56920000  0.84410000  0.65410000  1.0 -0.5176728403
O  O15  1  0.06920000  0.65590000  0.34590000  1.0 -0.5176728403
O  O16  1  0.43080000  0.34410000  0.84590000  1.0 -0.5176728403
O  O17  1  0.15410000  0.93080000  0.15590000  1.0 -0.5176728403
O  O18  1  0.65410000  0.56920000  0.84410000  1.0 -0.5176728403
O  O19  1  0.34590000  0.06920000  0.65590000  1.0 -0.5176728403
O  O20  1  0.84590000  0.43080000  0.34410000  1.0 -0.5176728403
O  O21  1  0.15590000  0.15410000  0.93080000  1.0 -0.5176728403
O  O22  1  0.84410000  0.65410000  0.56920000  1.0 -0.5176728403
O  O23  1  0.65590000  0.34590000  0.06920000  1.0 -0.5176728403
O  O24  1  0.34410000  0.84590000  0.43080000  1.0 -0.5176728403
O  O25  1  0.85460000  0.15220000  0.34035000  1.0 -0.5176728403
O  O26  1  0.64540000  0.84780000  0.84035000  1.0 -0.5176728403
O  O27  1  0.14540000  0.65220000  0.15965000  1.0 -0.5176728403
O  O28  1  0.35460000  0.34780000  0.65965000  1.0 -0.5176728403
O  O29  1  0.34035000  0.85460000  0.15220000  1.0 -0.5176728403
O  O30  1  0.84035000  0.64540000  0.84780000  1.0 -0.5176728403
O  O31  1  0.15965000  0.14540000  0.65220000  1.0 -0.5176728403
O  O32  1  0.65965000  0.35460000  0.34780000  1.0 -0.5176728403
O  O33  1  0.15220000  0.34035000  0.85460000  1.0 -0.5176728403
O  O34  1  0.84780000  0.84035000  0.64540000  1.0 -0.5176728403
O  O35  1  0.65220000  0.15965000  0.14540000  1.0 -0.5176728403
O  O36  1  0.34780000  0.65965000  0.35460000  1.0 -0.5176728403
O  O37  1  0.90124000  0.27904000  0.17816000  1.0 -0.5752668069
O  O38  1  0.59876000  0.72096000  0.67816000  1.0 -0.5752668069
O  O39  1  0.09876000  0.77904000  0.32184000  1.0 -0.568152048
O  O40  1  0.40124000  0.22096000  0.82184000  1.0 -0.5752668069
O  O41  1  0.17816000  0.90124000  0.27904000  1.0 -0.5752668069
O  O42  1  0.67816000  0.59876000  0.72096000  1.0 -0.5752668069
O  O43  1  0.32184000  0.09876000  0.77904000  1.0 -0.5752668069
O  O44  1  0.82184000  0.40124000  0.22096000  1.0 -0.5752668069
O  O45  1  0.27904000  0.17816000  0.90124000  1.0 -0.5752668069
O  O46  1  0.72096000  0.67816000  0.59876000  1.0 -0.5752668069
O  O47  1  0.77904000  0.32184000  0.09876000  1.0 -0.5752668069
O  O48  1  0.22096000  0.82184000  0.40124000  1.0 -0.5752668069
