# DDEC6 charges by PACMAN v1.1 (https://github.com/mtap-research/PACMAN-charge/)
data_JURKIS_FSR_pacman
_symmetry_space_group_name_H-M   'P 1'
_cell_length_a   14.83440000
_cell_length_b   22.77030000
_cell_length_c   19.67860000
_cell_angle_alpha   90.00000000
_cell_angle_beta   104.14700000
_cell_angle_gamma   90.00000000
_symmetry_Int_Tables_number   1
_chemical_formula_structural   Mn2H53C59NO15
_chemical_formula_sum   'Mn8 H212 C236 N4 O60'
_cell_volume   6445.51649416
_cell_formula_units_Z   4
loop_
 _symmetry_equiv_pos_site_id
 _symmetry_equiv_pos_as_xyz
  1  'x, y, z'
loop_
 _atom_site_type_symbol
 _atom_site_label
 _atom_site_symmetry_multiplicity
 _atom_site_fract_x
 _atom_site_fract_y
 _atom_site_fract_z
 _atom_site_occupancy
 _atom_site_charge
Mn  Mn1  1  0.46622000  0.43038000  0.96945000  1.0 1.0590963019
Mn  Mn2  1  0.03378000  0.93038000  0.03055000  1.0 1.0590963019
Mn  Mn3  1  0.53378000  0.56962000  0.03055000  1.0 1.0590963019
Mn  Mn4  1  0.96622000  0.06962000  0.96945000  1.0 1.0590963019
Mn  Mn5  1  0.21186000  0.43931000  0.94286000  1.0 1.0672877384
Mn  Mn6  1  0.28814000  0.93931000  0.05714000  1.0 1.0672877384
Mn  Mn7  1  0.78814000  0.56069000  0.05714000  1.0 1.0672877384
Mn  Mn8  1  0.71186000  0.06069000  0.94286000  1.0 1.0672877384
H  H1  1  0.37030000  0.62770000  0.90970000  1.0 0.1587850337
H  H2  1  0.12970000  0.12770000  0.09030000  1.0 0.1587850337
H  H3  1  0.62970000  0.37230000  0.09030000  1.0 0.1483583749
H  H4  1  0.87030000  0.87230000  0.90970000  1.0 0.1483583749
H  H5  1  0.41070000  0.58860000  0.85850000  1.0 0.1301138746
H  H6  1  0.08930000  0.08860000  0.14150000  1.0 0.1301138746
H  H7  1  0.58930000  0.41140000  0.14150000  1.0 0.1301138746
H  H8  1  0.91070000  0.91140000  0.85850000  1.0 0.1301138746
H  H9  1  0.14970000  0.62120000  0.71500000  1.0 0.1483583749
H  H10  1  0.35030000  0.12120000  0.28500000  1.0 0.1483583749
H  H11  1  0.85030000  0.37880000  0.28500000  1.0 0.1483583749
H  H12  1  0.64970000  0.87880000  0.71500000  1.0 0.1483583749
H  H13  1  0.36890000  0.51590000  0.79160000  1.0 0.1483583749
H  H14  1  0.13110000  0.01590000  0.20840000  1.0 0.1483583749
H  H15  1  0.63110000  0.48410000  0.20840000  1.0 0.1483583749
H  H16  1  0.86890000  0.98410000  0.79160000  1.0 0.1483583749
H  H17  1  0.39730000  0.43350000  0.72980000  1.0 0.1407740491
H  H18  1  0.10270000  0.93350000  0.27020000  1.0 0.1407740491
H  H19  1  0.60270000  0.56650000  0.27020000  1.0 0.1407740491
H  H20  1  0.89730000  0.06650000  0.72980000  1.0 0.1407740491
H  H21  1  0.40520000  0.46020000  0.65810000  1.0 0.1483583749
H  H22  1  0.09480000  0.96020000  0.34190000  1.0 0.1483583749
H  H23  1  0.59480000  0.53980000  0.34190000  1.0 0.1483583749
H  H24  1  0.90520000  0.03980000  0.65810000  1.0 0.1483583749
H  H25  1  0.32720000  0.41420000  0.66010000  1.0 0.1301138746
H  H26  1  0.17280000  0.91420000  0.33990000  1.0 0.1301138746
H  H27  1  0.67280000  0.58580000  0.33990000  1.0 0.1301138746
H  H28  1  0.82720000  0.08580000  0.66010000  1.0 0.1301138746
H  H29  1  0.05200000  0.54350000  0.56690000  1.0 0.1407740491
H  H30  1  0.44800000  0.04350000  0.43310000  1.0 0.1407740491
H  H31  1  0.94800000  0.45650000  0.43310000  1.0 0.1407740491
H  H32  1  0.55200000  0.95650000  0.56690000  1.0 0.1407740491
H  H33  1  0.10900000  0.59860000  0.55410000  1.0 0.1483583749
H  H34  1  0.39100000  0.09860000  0.44590000  1.0 0.1483583749
H  H35  1  0.89100000  0.40140000  0.44590000  1.0 0.1483583749
H  H36  1  0.60900000  0.90140000  0.55410000  1.0 0.1483583749
H  H37  1  0.04520000  0.60230000  0.60680000  1.0 0.1407740491
H  H38  1  0.45480000  0.10230000  0.39320000  1.0 0.1407740491
H  H39  1  0.95480000  0.39770000  0.39320000  1.0 0.1407740491
H  H40  1  0.54520000  0.89770000  0.60680000  1.0 0.1407740491
H  H41  1  0.25450000  0.52800000  0.51490000  1.0 0.1407740491
H  H42  1  0.24550000  0.02800000  0.48510000  1.0 0.1407740491
H  H43  1  0.74550000  0.47200000  0.48510000  1.0 0.1407740491
H  H44  1  0.75450000  0.97200000  0.51490000  1.0 0.1407740491
H  H45  1  0.13650000  0.42130000  0.67350000  1.0 0.1301138746
H  H46  1  0.36350000  0.92130000  0.32650000  1.0 0.1301138746
H  H47  1  0.86350000  0.57870000  0.32650000  1.0 0.1301138746
H  H48  1  0.63650000  0.07870000  0.67350000  1.0 0.1301138746
H  H49  1  0.06260000  0.33370000  0.67160000  1.0 0.1301138746
H  H50  1  0.43740000  0.83370000  0.32840000  1.0 0.1301138746
H  H51  1  0.93740000  0.66630000  0.32840000  1.0 0.1301138746
H  H52  1  0.56260000  0.16630000  0.67160000  1.0 0.1301138746
H  H53  1  0.09390000  0.29130000  0.34980000  1.0 0.1207017959
H  H54  1  0.40610000  0.79130000  0.65020000  1.0 0.1207017959
H  H55  1  0.90610000  0.70870000  0.65020000  1.0 0.1207017959
H  H56  1  0.59390000  0.20870000  0.34980000  1.0 0.1207017959
H  H57  1  0.16900000  0.37790000  0.35250000  1.0 0.1207017959
H  H58  1  0.33100000  0.87790000  0.64750000  1.0 0.1207017959
H  H59  1  0.83100000  0.62210000  0.64750000  1.0 0.1207017959
H  H60  1  0.66900000  0.12210000  0.35250000  1.0 0.1207017959
H  H61  1  0.96820000  0.18640000  0.50690000  1.0 0.1301138746
H  H62  1  0.53180000  0.68640000  0.49310000  1.0 0.1301138746
H  H63  1  0.03180000  0.81360000  0.49310000  1.0 0.1301138746
H  H64  1  0.46820000  0.31360000  0.50690000  1.0 0.1301138746
H  H65  1  0.17690000  0.18370000  0.73470000  1.0 0.1483583749
H  H66  1  0.32310000  0.68370000  0.26530000  1.0 0.1483583749
H  H67  1  0.82310000  0.81630000  0.26530000  1.0 0.1483583749
H  H68  1  0.67690000  0.31630000  0.73470000  1.0 0.1483583749
H  H69  1  0.16980000  0.23020000  0.67490000  1.0 0.1301138746
H  H70  1  0.33020000  0.73020000  0.32510000  1.0 0.1301138746
H  H71  1  0.83020000  0.76980000  0.32510000  1.0 0.1301138746
H  H72  1  0.66980000  0.26980000  0.67490000  1.0 0.1301138746
H  H73  1  0.14850000  0.16390000  0.65600000  1.0 0.1483583749
H  H74  1  0.35150000  0.66390000  0.34400000  1.0 0.1483583749
H  H75  1  0.85150000  0.83610000  0.34400000  1.0 0.1483583749
H  H76  1  0.64850000  0.33610000  0.65600000  1.0 0.1483583749
H  H77  1  0.76100000  0.26510000  0.57670000  1.0 0.1483583749
H  H78  1  0.73900000  0.76510000  0.42330000  1.0 0.1483583749
H  H79  1  0.23900000  0.73490000  0.42330000  1.0 0.1483583749
H  H80  1  0.26100000  0.23490000  0.57670000  1.0 0.1483583749
H  H81  1  0.82580000  0.24920000  0.52720000  1.0 0.1407740491
H  H82  1  0.67420000  0.74920000  0.47280000  1.0 0.1407740491
H  H83  1  0.17420000  0.75080000  0.47280000  1.0 0.1407740491
H  H84  1  0.32580000  0.25080000  0.52720000  1.0 0.1407740491
H  H85  1  0.83930000  0.30880000  0.56830000  1.0 0.1483583749
H  H86  1  0.66070000  0.80880000  0.43170000  1.0 0.1483583749
H  H87  1  0.16070000  0.69120000  0.43170000  1.0 0.1483583749
H  H88  1  0.33930000  0.19120000  0.56830000  1.0 0.1483583749
H  H89  1  0.79530000  0.21920000  0.68610000  1.0 0.1301138746
H  H90  1  0.70470000  0.71920000  0.31390000  1.0 0.1301138746
H  H91  1  0.20470000  0.78080000  0.31390000  1.0 0.1301138746
H  H92  1  0.29530000  0.28080000  0.68610000  1.0 0.1301138746
H  H93  1  0.05120000  0.16670000  0.78020000  1.0 0.1483583749
H  H94  1  0.44880000  0.66666667  0.21980000  1.0 0.1483583749
H  H95  1  0.94880000  0.83330000  0.21980000  1.0 0.1483583749
H  H96  1  0.55120000  0.33333333  0.78020000  1.0 0.1483583749
H  H97  1  0.76750000  0.14720000  0.74930000  1.0 0.1301138746
H  H98  1  0.73250000  0.64720000  0.25070000  1.0 0.1301138746
H  H99  1  0.23250000  0.85280000  0.25070000  1.0 0.1301138746
H  H100  1  0.26750000  0.35280000  0.74930000  1.0 0.1301138746
H  H101  1  0.77350000  0.20120000  0.79980000  1.0 0.1407740491
H  H102  1  0.72650000  0.70120000  0.20020000  1.0 0.1407740491
H  H103  1  0.22650000  0.79880000  0.20020000  1.0 0.1407740491
H  H104  1  0.27350000  0.29880000  0.79980000  1.0 0.1407740491
H  H105  1  0.08180000  0.10940000  0.29050000  1.0 0.1407740491
H  H106  1  0.41820000  0.60940000  0.70950000  1.0 0.1407740491
H  H107  1  0.91820000  0.89060000  0.70950000  1.0 0.1407740491
H  H108  1  0.58180000  0.39060000  0.29050000  1.0 0.1407740491
H  H109  1  0.82660000  0.17960000  0.24820000  1.0 0.1301138746
H  H110  1  0.67340000  0.67960000  0.75180000  1.0 0.1301138746
H  H111  1  0.17340000  0.82040000  0.75180000  1.0 0.1301138746
H  H112  1  0.32660000  0.32040000  0.24820000  1.0 0.1301138746
H  H113  1  0.78900000  0.25530000  0.31700000  1.0 0.1483583749
H  H114  1  0.71100000  0.75530000  0.68300000  1.0 0.1483583749
H  H115  1  0.21100000  0.74470000  0.68300000  1.0 0.1483583749
H  H116  1  0.28900000  0.24470000  0.31700000  1.0 0.1483583749
H  H117  1  0.86570000  0.28420000  0.37670000  1.0 0.1407740491
H  H118  1  0.63430000  0.78420000  0.62330000  1.0 0.1407740491
H  H119  1  0.13430000  0.71580000  0.62330000  1.0 0.1407740491
H  H120  1  0.36570000  0.21580000  0.37670000  1.0 0.1407740491
H  H121  1  0.81210000  0.22860000  0.39270000  1.0 0.1483583749
H  H122  1  0.68790000  0.72860000  0.60730000  1.0 0.1483583749
H  H123  1  0.18790000  0.77140000  0.60730000  1.0 0.1483583749
H  H124  1  0.31210000  0.27140000  0.39270000  1.0 0.1483583749
H  H125  1  0.19030000  0.12630000  0.39510000  1.0 0.1407740491
H  H126  1  0.30970000  0.62630000  0.60490000  1.0 0.1407740491
H  H127  1  0.80970000  0.87370000  0.60490000  1.0 0.1407740491
H  H128  1  0.69030000  0.37370000  0.39510000  1.0 0.1407740491
H  H129  1  0.15230000  0.14690000  0.45890000  1.0 0.1407740491
H  H130  1  0.34770000  0.64690000  0.54110000  1.0 0.1407740491
H  H131  1  0.84770000  0.85310000  0.54110000  1.0 0.1407740491
H  H132  1  0.65230000  0.35310000  0.45890000  1.0 0.1407740491
H  H133  1  0.19350000  0.19290000  0.41540000  1.0 0.1483583749
H  H134  1  0.30650000  0.69290000  0.58460000  1.0 0.1483583749
H  H135  1  0.80650000  0.80710000  0.58460000  1.0 0.1483583749
H  H136  1  0.69350000  0.30710000  0.41540000  1.0 0.1483583749
H  H137  1  0.81810000  0.14630000  0.15110000  1.0 0.1301138746
H  H138  1  0.68190000  0.64630000  0.84890000  1.0 0.1301138746
H  H139  1  0.18190000  0.85370000  0.84890000  1.0 0.1301138746
H  H140  1  0.31810000  0.35370000  0.15110000  1.0 0.1301138746
H  H141  1  0.80750000  0.08110000  0.17410000  1.0 0.1301138746
H  H142  1  0.69250000  0.58110000  0.82590000  1.0 0.1301138746
H  H143  1  0.19250000  0.91890000  0.82590000  1.0 0.1301138746
H  H144  1  0.30750000  0.41890000  0.17410000  1.0 0.1301138746
H  H145  1  0.41040000  0.48340000  0.31480000  1.0 0.1407740491
H  H146  1  0.08960000  0.98340000  0.68520000  1.0 0.1407740491
H  H147  1  0.58960000  0.51660000  0.68520000  1.0 0.1407740491
H  H148  1  0.91040000  0.01660000  0.31480000  1.0 0.1407740491
H  H149  1  0.16500000  0.56260000  0.25260000  1.0 0.1587850337
H  H150  1  0.33500000  0.06260000  0.74740000  1.0 0.1587850337
H  H151  1  0.83500000  0.43740000  0.74740000  1.0 0.1587850337
H  H152  1  0.66500000  0.93740000  0.25260000  1.0 0.1587850337
H  H153  1  0.04860000  0.55360000  0.31190000  1.0 0.1483583749
H  H154  1  0.45140000  0.05360000  0.68810000  1.0 0.1483583749
H  H155  1  0.95140000  0.44640000  0.68810000  1.0 0.1483583749
H  H156  1  0.54860000  0.94640000  0.31190000  1.0 0.1483583749
H  H157  1  0.08860000  0.55430000  0.39340000  1.0 0.1483583749
H  H158  1  0.41140000  0.05430000  0.60660000  1.0 0.1483583749
H  H159  1  0.91140000  0.44570000  0.60660000  1.0 0.1483583749
H  H160  1  0.58860000  0.94570000  0.39340000  1.0 0.1483583749
H  H161  1  0.04950000  0.49580000  0.35540000  1.0 0.1407740491
H  H162  1  0.45050000  0.99580000  0.64460000  1.0 0.1407740491
H  H163  1  0.95050000  0.50420000  0.64460000  1.0 0.1407740491
H  H164  1  0.54950000  0.00420000  0.35540000  1.0 0.1407740491
H  H165  1  0.44990000  0.42910000  0.41800000  1.0 0.1483583749
H  H166  1  0.05010000  0.92910000  0.58200000  1.0 0.1483583749
H  H167  1  0.55010000  0.57090000  0.58200000  1.0 0.1483583749
H  H168  1  0.94990000  0.07090000  0.41800000  1.0 0.1483583749
H  H169  1  0.36670000  0.39460000  0.43510000  1.0 0.1483583749
H  H170  1  0.13330000  0.89460000  0.56490000  1.0 0.1483583749
H  H171  1  0.63330000  0.60540000  0.56490000  1.0 0.1483583749
H  H172  1  0.86670000  0.10540000  0.43510000  1.0 0.1407740491
H  H173  1  0.40500000  0.45130000  0.47760000  1.0 0.1483583749
H  H174  1  0.09500000  0.95130000  0.52240000  1.0 0.1483583749
H  H175  1  0.59500000  0.54870000  0.52240000  1.0 0.1483583749
H  H176  1  0.90500000  0.04870000  0.47760000  1.0 0.1407740491
H  H177  1  0.40820000  0.49620000  0.20170000  1.0 0.1115609789
H  H178  1  0.09180000  0.99620000  0.79830000  1.0 0.1115609789
H  H179  1  0.59180000  0.50380000  0.79830000  1.0 0.1115609789
H  H180  1  0.90820000  0.00380000  0.20170000  1.0 0.1115609789
H  H181  1  0.44530000  0.55330000  0.24400000  1.0 0.1207017959
H  H182  1  0.05470000  0.05330000  0.75600000  1.0 0.1207017959
H  H183  1  0.55470000  0.44670000  0.75600000  1.0 0.1207017959
H  H184  1  0.94530000  0.94670000  0.24400000  1.0 0.1207017959
H  H185  1  0.10100000  0.52400000  0.84240000  1.0 0.1115609789
H  H186  1  0.39900000  0.02400000  0.15760000  1.0 0.1115609789
H  H187  1  0.89900000  0.47600000  0.15760000  1.0 0.1115609789
H  H188  1  0.60100000  0.97600000  0.84240000  1.0 0.1115609789
H  H189  1  0.88970000  0.59400000  0.79330000  1.0 0.1301138746
H  H190  1  0.61030000  0.09400000  0.20670000  1.0 0.1301138746
H  H191  1  0.11030000  0.40600000  0.20670000  1.0 0.1301138746
H  H192  1  0.38970000  0.90600000  0.79330000  1.0 0.1301138746
H  H193  1  0.96240000  0.56400000  0.75860000  1.0 0.1407740491
H  H194  1  0.53760000  0.06400000  0.24140000  1.0 0.1407740491
H  H195  1  0.03760000  0.43600000  0.24140000  1.0 0.1407740491
H  H196  1  0.46240000  0.93600000  0.75860000  1.0 0.1407740491
H  H197  1  0.99240000  0.61690000  0.81020000  1.0 0.1407740491
H  H198  1  0.50760000  0.11690000  0.18980000  1.0 0.1407740491
H  H199  1  0.00760000  0.38310000  0.18980000  1.0 0.1407740491
H  H200  1  0.49240000  0.88310000  0.81020000  1.0 0.1407740491
H  H201  1  0.91710000  0.56210000  0.93090000  1.0 0.1483583749
H  H202  1  0.58290000  0.06210000  0.06910000  1.0 0.1483583749
H  H203  1  0.08290000  0.43790000  0.06910000  1.0 0.1483583749
H  H204  1  0.41710000  0.93790000  0.93090000  1.0 0.1483583749
H  H205  1  0.91010000  0.49580000  0.90880000  1.0 0.1483583749
H  H206  1  0.58990000  0.99580000  0.09120000  1.0 0.1483583749
H  H207  1  0.08990000  0.50420000  0.09120000  1.0 0.1483583749
H  H208  1  0.41010000  0.00420000  0.90880000  1.0 0.1483583749
H  H209  1  0.84790000  0.54270000  0.86080000  1.0 0.1207017959
H  H210  1  0.65210000  0.04270000  0.13920000  1.0 0.1207017959
H  H211  1  0.15210000  0.45730000  0.13920000  1.0 0.1207017959
H  H212  1  0.34790000  0.95730000  0.86080000  1.0 0.1207017959
C  C1  1  0.34180000  0.54030000  0.91780000  1.0 0.6271307124
C  C2  1  0.15820000  0.04030000  0.08220000  1.0 0.6271307124
C  C3  1  0.65820000  0.45970000  0.08220000  1.0 0.6271307124
C  C4  1  0.84180000  0.95970000  0.91780000  1.0 0.6271307124
C  C5  1  0.35710000  0.59460000  0.87770000  1.0 -0.1860697167
C  C6  1  0.14290000  0.09460000  0.12230000  1.0 -0.1860697167
C  C7  1  0.64290000  0.40540000  0.12230000  1.0 -0.1860697167
C  C8  1  0.85710000  0.90540000  0.87770000  1.0 -0.1860697167
C  C9  1  0.26260000  0.57390000  0.76330000  1.0 0.2674590303
C  C10  1  0.23740000  0.07390000  0.23670000  1.0 0.2674590303
C  C11  1  0.73740000  0.42610000  0.23670000  1.0 0.2674590303
C  C12  1  0.76260000  0.92610000  0.76330000  1.0 0.2674590303
C  C13  1  0.18670000  0.58950000  0.70920000  1.0 -0.3089054174
C  C14  1  0.31330000  0.08950000  0.29080000  1.0 -0.3089054174
C  C15  1  0.81330000  0.41050000  0.29080000  1.0 -0.3089054174
C  C16  1  0.68670000  0.91050000  0.70920000  1.0 -0.3089054174
C  C17  1  0.16560000  0.55820000  0.64680000  1.0 0.1483583749
C  C18  1  0.33440000  0.05820000  0.35320000  1.0 0.1483583749
C  C19  1  0.83440000  0.44180000  0.35320000  1.0 0.1483583749
C  C20  1  0.66560000  0.94180000  0.64680000  1.0 0.1483583749
C  C21  1  0.22230000  0.51069000  0.63890000  1.0 -0.0886284607
C  C22  1  0.27770000  0.01069000  0.36110000  1.0 -0.0886284607
C  C23  1  0.77770000  0.48931000  0.36110000  1.0 -0.0886284607
C  C24  1  0.72230000  0.98931000  0.63890000  1.0 -0.0886284607
C  C25  1  0.29780000  0.49580000  0.69290000  1.0 0.1587850337
C  C26  1  0.20220000  0.99580000  0.30710000  1.0 0.1587850337
C  C27  1  0.70220000  0.50420000  0.30710000  1.0 0.1587850337
C  C28  1  0.79780000  0.00420000  0.69290000  1.0 0.1587850337
C  C29  1  0.31850000  0.52660000  0.75540000  1.0 -0.3089054174
C  C30  1  0.18150000  0.02660000  0.24460000  1.0 -0.3089054174
C  C31  1  0.68150000  0.47340000  0.24460000  1.0 -0.3089054174
C  C32  1  0.81850000  0.97340000  0.75540000  1.0 -0.3089054174
C  C33  1  0.36280000  0.44640000  0.68440000  1.0 -0.4536775546
C  C34  1  0.13720000  0.94640000  0.31560000  1.0 -0.4574723458
C  C35  1  0.63720000  0.55360000  0.31560000  1.0 -0.4536775546
C  C36  1  0.86280000  0.05360000  0.68440000  1.0 -0.4536775546
C  C37  1  0.08580000  0.57730000  0.58840000  1.0 -0.4662476427
C  C38  1  0.41420000  0.07730000  0.41160000  1.0 -0.4662476427
C  C39  1  0.91420000  0.42270000  0.41160000  1.0 -0.4662476427
C  C40  1  0.58580000  0.92270000  0.58840000  1.0 -0.4662476427
C  C41  1  0.20040000  0.47365000  0.57380000  1.0 0.0427855194
C  C42  1  0.29960000  0.97365000  0.42620000  1.0 0.0427855194
C  C43  1  0.79960000  0.52635000  0.42620000  1.0 0.0427855194
C  C44  1  0.70040000  0.02635000  0.57380000  1.0 0.0427855194
C  C45  1  0.22540000  0.49180000  0.51430000  1.0 -0.1723715759
C  C46  1  0.27460000  0.99180000  0.48570000  1.0 -0.1723715759
C  C47  1  0.77460000  0.50820000  0.48570000  1.0 -0.1723715759
C  C48  1  0.72540000  0.00820000  0.51430000  1.0 -0.1723715759
C  C49  1  0.20960000  0.45880000  0.45330000  1.0 0.0427855194
C  C50  1  0.29040000  0.95880000  0.54670000  1.0 0.0427855194
C  C51  1  0.79040000  0.54120000  0.54670000  1.0 0.0427855194
C  C52  1  0.70960000  0.04120000  0.45330000  1.0 0.0427855194
C  C53  1  0.16680000  0.40330000  0.45170000  1.0 0.0255556563
C  C54  1  0.33320000  0.90330000  0.54830000  1.0 0.0255556563
C  C55  1  0.83320000  0.59670000  0.54830000  1.0 0.0255556563
C  C56  1  0.66680000  0.09670000  0.45170000  1.0 0.0255556563
C  C57  1  0.13880000  0.38370000  0.51190000  1.0 -0.0115859778
C  C58  1  0.36120000  0.88370000  0.48810000  1.0 -0.0115859778
C  C59  1  0.86120000  0.61630000  0.48810000  1.0 -0.0115859778
C  C60  1  0.63880000  0.11630000  0.51190000  1.0 -0.0115859778
C  C61  1  0.15580000  0.41948000  0.57340000  1.0 0.0255556563
C  C62  1  0.34420000  0.91948000  0.42660000  1.0 0.0255556563
C  C63  1  0.84420000  0.58052000  0.42660000  1.0 0.0255556563
C  C64  1  0.65580000  0.08052000  0.57340000  1.0 0.0255556563
C  C65  1  0.12560000  0.39840000  0.63310000  1.0 -0.1342914257
C  C66  1  0.37440000  0.89840000  0.36690000  1.0 -0.1342914257
C  C67  1  0.87440000  0.60160000  0.36690000  1.0 -0.1342914257
C  C68  1  0.62560000  0.10160000  0.63310000  1.0 -0.1342914257
C  C69  1  0.08140000  0.34590000  0.63210000  1.0 -0.1378135999
C  C70  1  0.41860000  0.84590000  0.36790000  1.0 -0.1378135999
C  C71  1  0.91860000  0.65410000  0.36790000  1.0 -0.1378135999
C  C72  1  0.58140000  0.15410000  0.63210000  1.0 -0.1378135999
C  C73  1  0.06330000  0.30897000  0.57120000  1.0 0.0217960597
C  C74  1  0.43670000  0.80897000  0.42880000  1.0 0.0217960597
C  C75  1  0.93670000  0.69103000  0.42880000  1.0 0.0217960597
C  C76  1  0.56330000  0.19103000  0.57120000  1.0 0.0217960597
C  C77  1  0.09190000  0.32840000  0.51130000  1.0 -0.0115859778
C  C78  1  0.40810000  0.82840000  0.48870000  1.0 -0.0115859778
C  C79  1  0.90810000  0.67160000  0.48870000  1.0 -0.0115859778
C  C80  1  0.59190000  0.17160000  0.51130000  1.0 -0.0115859778
C  C81  1  0.07430000  0.29310000  0.44940000  1.0 0.0217960597
C  C82  1  0.42570000  0.79310000  0.55060000  1.0 0.0217960597
C  C83  1  0.92570000  0.70690000  0.55060000  1.0 0.0217960597
C  C84  1  0.57430000  0.20690000  0.44940000  1.0 0.0217960597
C  C85  1  0.10480000  0.31400000  0.39030000  1.0 -0.1378135999
C  C86  1  0.39520000  0.81400000  0.60970000  1.0 -0.1378135999
C  C87  1  0.89520000  0.68600000  0.60970000  1.0 -0.1378135999
C  C88  1  0.60480000  0.18600000  0.39030000  1.0 -0.1378135999
C  C89  1  0.14930000  0.36610000  0.39170000  1.0 -0.1378135999
C  C90  1  0.35070000  0.86610000  0.60830000  1.0 -0.1378135999
C  C91  1  0.85070000  0.63390000  0.60830000  1.0 -0.1378135999
C  C92  1  0.64930000  0.13390000  0.39170000  1.0 -0.1378135999
C  C93  1  0.02570000  0.23960000  0.44850000  1.0 0.0427855194
C  C94  1  0.47430000  0.73960000  0.55150000  1.0 0.0427855194
C  C95  1  0.97430000  0.76040000  0.55150000  1.0 0.0427855194
C  C96  1  0.52570000  0.26040000  0.44850000  1.0 0.0427855194
C  C97  1  0.99910000  0.22200000  0.50800000  1.0 -0.1825797604
C  C98  1  0.50090000  0.72200000  0.49200000  1.0 -0.1825797604
C  C99  1  0.00090000  0.77800000  0.49200000  1.0 -0.1825797604
C  C100  1  0.49910000  0.27800000  0.50800000  1.0 -0.1825797604
C  C101  1  0.01600000  0.25510000  0.56940000  1.0 0.0456176056
C  C102  1  0.48400000  0.75510000  0.43060000  1.0 0.0456176056
C  C103  1  0.98400000  0.74490000  0.43060000  1.0 0.0456176056
C  C104  1  0.51600000  0.24490000  0.56940000  1.0 0.0456176056
C  C105  1  0.14370000  0.19480000  0.68830000  1.0 -0.4536775546
C  C106  1  0.35630000  0.69480000  0.31170000  1.0 -0.4536775546
C  C107  1  0.85630000  0.80520000  0.31170000  1.0 -0.4536775546
C  C108  1  0.64370000  0.30520000  0.68830000  1.0 -0.4536775546
C  C109  1  0.98240000  0.23290000  0.63060000  1.0 -0.0831389934
C  C110  1  0.51760000  0.73290000  0.36940000  1.0 -0.0831389934
C  C111  1  0.01760000  0.76710000  0.36940000  1.0 -0.0831389934
C  C112  1  0.48240000  0.26710000  0.63060000  1.0 -0.0831389934
C  C113  1  0.89010000  0.23890000  0.63050000  1.0 0.1483583749
C  C114  1  0.60990000  0.73890000  0.36950000  1.0 0.1483583749
C  C115  1  0.10990000  0.76110000  0.36950000  1.0 0.1483583749
C  C116  1  0.39010000  0.26110000  0.63050000  1.0 0.1483583749
C  C117  1  0.82300000  0.26810000  0.57020000  1.0 -0.4536775546
C  C118  1  0.67700000  0.76810000  0.42980000  1.0 -0.4574723458
C  C119  1  0.17700000  0.73190000  0.42980000  1.0 -0.4574723458
C  C120  1  0.32300000  0.23190000  0.57020000  1.0 -0.4574723458
C  C121  1  0.85800000  0.21670000  0.68660000  1.0 -0.320374324
C  C122  1  0.64200000  0.71670000  0.31340000  1.0 -0.320374324
C  C123  1  0.14200000  0.78330000  0.31340000  1.0 -0.320374324
C  C124  1  0.35800000  0.28330000  0.68660000  1.0 -0.320374324
C  C125  1  0.91990000  0.19080000  0.74300000  1.0 0.2402509255
C  C126  1  0.58010000  0.69080000  0.25700000  1.0 0.2402509255
C  C127  1  0.08010000  0.80920000  0.25700000  1.0 0.2402509255
C  C128  1  0.41990000  0.30920000  0.74300000  1.0 0.2402509255
C  C129  1  0.01040000  0.18470000  0.74250000  1.0 -0.2676289724
C  C130  1  0.48960000  0.68470000  0.25750000  1.0 -0.2676289724
C  C131  1  0.98960000  0.81530000  0.25750000  1.0 -0.2676289724
C  C132  1  0.51040000  0.31530000  0.74250000  1.0 -0.2676289724
C  C133  1  0.04300000  0.20480000  0.68690000  1.0 0.1587850337
C  C134  1  0.45700000  0.70480000  0.31310000  1.0 0.1587850337
C  C135  1  0.95700000  0.79520000  0.31310000  1.0 0.1587850337
C  C136  1  0.54300000  0.29520000  0.68690000  1.0 0.1587850337
C  C137  1  0.79850000  0.16250000  0.79500000  1.0 -0.1610919283
C  C138  1  0.70150000  0.66250000  0.20500000  1.0 -0.1610919283
C  C139  1  0.20150000  0.83750000  0.20500000  1.0 -0.1610919283
C  C140  1  0.29850000  0.33750000  0.79500000  1.0 -0.1610919283
C  C141  1  0.77980000  0.12210000  0.85180000  1.0 0.5935401274
C  C142  1  0.72020000  0.62210000  0.14820000  1.0 0.5935401274
C  C143  1  0.22020000  0.87790000  0.14820000  1.0 0.5935401274
C  C144  1  0.27980000  0.37790000  0.85180000  1.0 0.5935401274
C  C145  1  0.99990000  0.20400000  0.38350000  1.0 -0.0831389934
C  C146  1  0.50010000  0.70400000  0.61650000  1.0 -0.0831389934
C  C147  1  0.00010000  0.79600000  0.61650000  1.0 -0.0831389934
C  C148  1  0.49990000  0.29600000  0.38350000  1.0 -0.0831389934
C  C149  1  0.06410000  0.16570000  0.36510000  1.0 0.1483583749
C  C150  1  0.43590000  0.66570000  0.63490000  1.0 0.1483583749
C  C151  1  0.93590000  0.83430000  0.63490000  1.0 0.1483583749
C  C152  1  0.56410000  0.33430000  0.36510000  1.0 0.1483583749
C  C153  1  0.03900000  0.13450000  0.30290000  1.0 -0.2908281582
C  C154  1  0.46100000  0.63450000  0.69710000  1.0 -0.2908281582
C  C155  1  0.96100000  0.86550000  0.69710000  1.0 -0.2908281582
C  C156  1  0.53900000  0.36550000  0.30290000  1.0 -0.2908281582
C  C157  1  0.95050000  0.14020000  0.25870000  1.0 0.2492985604
C  C158  1  0.54950000  0.64020000  0.74130000  1.0 0.2492985604
C  C159  1  0.04950000  0.85980000  0.74130000  1.0 0.2492985604
C  C160  1  0.45050000  0.35980000  0.25870000  1.0 0.2492985604
C  C161  1  0.88610000  0.17650000  0.27730000  1.0 -0.320374324
C  C162  1  0.61390000  0.67650000  0.72270000  1.0 -0.320374324
C  C163  1  0.11390000  0.82350000  0.72270000  1.0 -0.320374324
C  C164  1  0.38610000  0.32350000  0.27730000  1.0 -0.320374324
C  C165  1  0.90980000  0.20880000  0.33950000  1.0 0.1587850337
C  C166  1  0.59020000  0.70880000  0.66050000  1.0 0.1587850337
C  C167  1  0.09020000  0.79120000  0.66050000  1.0 0.1587850337
C  C168  1  0.40980000  0.29120000  0.33950000  1.0 0.1587850337
C  C169  1  0.83760000  0.24780000  0.35820000  1.0 -0.4662476427
C  C170  1  0.66240000  0.74780000  0.64180000  1.0 -0.4662476427
C  C171  1  0.16240000  0.75220000  0.64180000  1.0 -0.4662476427
C  C172  1  0.33760000  0.25220000  0.35820000  1.0 -0.4662476427
C  C173  1  0.15850000  0.15720000  0.41290000  1.0 -0.4574723458
C  C174  1  0.34150000  0.65720000  0.58710000  1.0 -0.4574723458
C  C175  1  0.84150000  0.84280000  0.58710000  1.0 -0.4574723458
C  C176  1  0.65850000  0.34280000  0.41290000  1.0 -0.4574723458
C  C177  1  0.84550000  0.10740000  0.15400000  1.0 -0.1610919283
C  C178  1  0.65450000  0.60740000  0.84600000  1.0 -0.1723715759
C  C179  1  0.15450000  0.89260000  0.84600000  1.0 -0.1723715759
C  C180  1  0.34550000  0.39260000  0.15400000  1.0 -0.1610919283
C  C181  1  0.84730000  0.08600000  0.08030000  1.0 0.6000671638
C  C182  1  0.65270000  0.58600000  0.91970000  1.0 0.6000671638
C  C183  1  0.15270000  0.91400000  0.91970000  1.0 0.6000671638
C  C184  1  0.34730000  0.41400000  0.08030000  1.0 0.6000671638
C  C185  1  0.23820000  0.48180000  0.39060000  1.0 -0.0831389934
C  C186  1  0.26180000  0.98180000  0.60940000  1.0 -0.0831389934
C  C187  1  0.76180000  0.51820000  0.60940000  1.0 -0.0831389934
C  C188  1  0.73820000  0.01820000  0.39060000  1.0 -0.0831389934
C  C189  1  0.32620000  0.46930000  0.38060000  1.0 0.1587850337
C  C190  1  0.17380000  0.96930000  0.61940000  1.0 0.1587850337
C  C191  1  0.67380000  0.53070000  0.61940000  1.0 0.1587850337
C  C192  1  0.82620000  0.03070000  0.38060000  1.0 0.1587850337
C  C193  1  0.35200000  0.49180000  0.32170000  1.0 -0.3299814808
C  C194  1  0.14800000  0.99180000  0.67830000  1.0 -0.3299814808
C  C195  1  0.64800000  0.50820000  0.67830000  1.0 -0.3299814808
C  C196  1  0.85200000  0.00820000  0.32170000  1.0 -0.3299814808
C  C197  1  0.29110000  0.52640000  0.27400000  1.0 0.2492985604
C  C198  1  0.20890000  0.02640000  0.72600000  1.0 0.2492985604
C  C199  1  0.70890000  0.47360000  0.72600000  1.0 0.2492985604
C  C200  1  0.79110000  0.97360000  0.27400000  1.0 0.2492985604
C  C201  1  0.20530000  0.53880000  0.28460000  1.0 -0.2832828807
C  C202  1  0.29470000  0.03880000  0.71540000  1.0 -0.2832828807
C  C203  1  0.79470000  0.46120000  0.71540000  1.0 -0.2832828807
C  C204  1  0.70530000  0.96120000  0.28460000  1.0 -0.2832828807
C  C205  1  0.17700000  0.51690000  0.34190000  1.0 0.1483583749
C  C206  1  0.32300000  0.01690000  0.65810000  1.0 0.1483583749
C  C207  1  0.82300000  0.48310000  0.65810000  1.0 0.1483583749
C  C208  1  0.67700000  0.98310000  0.34190000  1.0 0.1483583749
C  C209  1  0.08240000  0.53150000  0.35150000  1.0 -0.4662476427
C  C210  1  0.41760000  0.03150000  0.64850000  1.0 -0.4662476427
C  C211  1  0.91760000  0.46850000  0.64850000  1.0 -0.4662476427
C  C212  1  0.58240000  0.96850000  0.35150000  1.0 -0.4662476427
C  C213  1  0.39290000  0.43290000  0.43240000  1.0 -0.4574723458
C  C214  1  0.10710000  0.93290000  0.56760000  1.0 -0.4574723458
C  C215  1  0.60710000  0.56710000  0.56760000  1.0 -0.4574723458
C  C216  1  0.89290000  0.06710000  0.43240000  1.0 -0.4574723458
C  C217  1  0.39900000  0.53820000  0.20410000  1.0 -0.1723715759
C  C218  1  0.10100000  0.03820000  0.79590000  1.0 -0.1825797604
C  C219  1  0.60100000  0.46180000  0.79590000  1.0 -0.1723715759
C  C220  1  0.89900000  0.96180000  0.20410000  1.0 -0.1723715759
C  C221  1  0.41270000  0.56690000  0.13720000  1.0 0.5845822645
C  C222  1  0.08730000  0.06690000  0.86280000  1.0 0.5845822645
C  C223  1  0.58730000  0.43310000  0.86280000  1.0 0.5845822645
C  C224  1  0.91270000  0.93310000  0.13720000  1.0 0.5845822645
C  C225  1  0.05770000  0.51520000  0.86800000  1.0 0.1760150036
C  C226  1  0.44230000  0.01520000  0.13200000  1.0 0.1760150036
C  C227  1  0.94230000  0.48480000  0.13200000  1.0 0.1760150036
C  C228  1  0.55770000  0.98480000  0.86800000  1.0 0.1760150036
C  C229  1  0.95360000  0.58270000  0.80030000  1.0 -0.320374324
C  C230  1  0.54640000  0.08270000  0.19970000  1.0 -0.320374324
C  C231  1  0.04640000  0.41730000  0.19970000  1.0 -0.320374324
C  C232  1  0.45360000  0.91730000  0.80030000  1.0 -0.320374324
C  C233  1  0.90760000  0.53550000  0.89200000  1.0 -0.320374324
C  C234  1  0.59240000  0.03550000  0.10800000  1.0 -0.320374324
C  C235  1  0.09240000  0.46450000  0.10800000  1.0 -0.320374324
C  C236  1  0.40760000  0.96450000  0.89200000  1.0 -0.320374324
N  N1  1  0.97720000  0.54390000  0.85600000  1.0 0.0836114427
N  N2  1  0.52280000  0.04390000  0.14400000  1.0 0.0836114427
N  N3  1  0.02280000  0.45610000  0.14400000  1.0 0.0836114427
N  N4  1  0.47720000  0.95610000  0.85600000  1.0 0.0836114427
O  O1  1  0.41360000  0.52165000  0.96285000  1.0 -0.5906977104
O  O2  1  0.08640000  0.02165000  0.03715000  1.0 -0.5906977104
O  O3  1  0.58640000  0.47835000  0.03715000  1.0 -0.5906977104
O  O4  1  0.91360000  0.97835000  0.96285000  1.0 -0.5906977104
O  O5  1  0.26390000  0.51672000  0.90528000  1.0 -0.5433415221
O  O6  1  0.23610000  0.01672000  0.09472000  1.0 -0.5433415221
O  O7  1  0.73610000  0.48328000  0.09472000  1.0 -0.5433415221
O  O8  1  0.76390000  0.98328000  0.90528000  1.0 -0.5433415221
O  O9  1  0.27740000  0.60834000  0.82137000  1.0 -0.1492040688
O  O10  1  0.22260000  0.10834000  0.17863000  1.0 -0.1492040688
O  O11  1  0.72260000  0.39166000  0.17863000  1.0 -0.1492040688
O  O12  1  0.77740000  0.89166000  0.82137000  1.0 -0.1492040688
O  O13  1  0.48360000  0.54955000  0.12036000  1.0 -0.5473816441
O  O14  1  0.01640000  0.04955000  0.87964000  1.0 -0.5473816441
O  O15  1  0.51640000  0.45045000  0.87964000  1.0 -0.5473816441
O  O16  1  0.98360000  0.95045000  0.12036000  1.0 -0.5473816441
O  O17  1  0.35870000  0.60700000  0.10830000  1.0 -0.4574723458
O  O18  1  0.14130000  0.10700000  0.89170000  1.0 -0.4574723458
O  O19  1  0.64130000  0.39300000  0.89170000  1.0 -0.4574723458
O  O20  1  0.85870000  0.89300000  0.10830000  1.0 -0.4574723458
O  O21  1  0.30930000  0.54910000  0.21432000  1.0 -0.1378135999
O  O22  1  0.19070000  0.04910000  0.78568000  1.0 -0.1378135999
O  O23  1  0.69070000  0.45090000  0.78568000  1.0 -0.1378135999
O  O24  1  0.80930000  0.95090000  0.21432000  1.0 -0.1378135999
O  O25  1  0.91830000  0.09100000  0.06053000  1.0 -0.4946292685
O  O26  1  0.58170000  0.59100000  0.93947000  1.0 -0.4946292685
O  O27  1  0.08170000  0.90900000  0.93947000  1.0 -0.4946292685
O  O28  1  0.41830000  0.40900000  0.06053000  1.0 -0.4946292685
O  O29  1  0.77270000  0.06440000  0.04760000  1.0 -0.5312957214
O  O30  1  0.72730000  0.56440000  0.95240000  1.0 -0.5312957214
O  O31  1  0.22730000  0.93560000  0.95240000  1.0 -0.5312957214
O  O32  1  0.27270000  0.43560000  0.04760000  1.0 -0.5312957214
O  O33  1  0.84030000  0.10809000  0.90490000  1.0 -0.5433415221
O  O34  1  0.65970000  0.60809000  0.09510000  1.0 -0.5433415221
O  O35  1  0.15970000  0.89191000  0.09510000  1.0 -0.5433415221
O  O36  1  0.34030000  0.39191000  0.90490000  1.0 -0.5433415221
O  O37  1  0.69680000  0.10670000  0.84210000  1.0 -0.5194742726
O  O38  1  0.80320000  0.60670000  0.15790000  1.0 -0.5194742726
O  O39  1  0.30320000  0.89330000  0.15790000  1.0 -0.5194742726
O  O40  1  0.19680000  0.39330000  0.84210000  1.0 -0.5194742726
O  O41  1  0.89420000  0.16672000  0.80022000  1.0 -0.1378135999
O  O42  1  0.60580000  0.66666667  0.19978000  1.0 -0.1342914257
O  O43  1  0.10580000  0.83328000  0.19978000  1.0 -0.1342914257
O  O44  1  0.39420000  0.33328000  0.80022000  1.0 -0.1342914257
O  O45  1  0.54320000  0.34732000  0.97814000  1.0 -0.2908281582
O  O46  1  0.95680000  0.84732000  0.02186000  1.0 -0.2908281582
O  O47  1  0.45680000  0.65268000  0.02186000  1.0 -0.2908281582
O  O48  1  0.04320000  0.15268000  0.97814000  1.0 -0.2908281582
O  O49  1  0.07730000  0.46890000  0.92260000  1.0 -0.5593711184
O  O50  1  0.42270000  0.96890000  0.07740000  1.0 -0.5593711184
O  O51  1  0.92270000  0.53110000  0.07740000  1.0 -0.5593711184
O  O52  1  0.57730000  0.03110000  0.92260000  1.0 -0.5593711184
O  O53  1  0.93630000  0.10911000  0.19738000  1.0 -0.1492040688
O  O54  1  0.56370000  0.60911000  0.80262000  1.0 -0.1492040688
O  O55  1  0.06370000  0.89089000  0.80262000  1.0 -0.1492040688
O  O56  1  0.43630000  0.39089000  0.19738000  1.0 -0.1492040688
O  O57  1  0.15650000  0.35280000  0.96790000  1.0 -0.3089054174
O  O58  1  0.34350000  0.85280000  0.03210000  1.0 -0.3089054174
O  O59  1  0.84350000  0.64720000  0.03210000  1.0 -0.3089054174
O  O60  1  0.65650000  0.14720000  0.96790000  1.0 -0.3089054174
