# DDEC6 charges by PACMAN v1.1 (https://github.com/mtap-research/PACMAN-charge/)
data_JUSGAI_FSR_pacman
_symmetry_space_group_name_H-M   'P 1'
_cell_length_a   9.31900000
_cell_length_b   17.26600000
_cell_length_c   18.47800000
_cell_angle_alpha   115.69800000
_cell_angle_beta   91.91600000
_cell_angle_gamma   99.71300000
_symmetry_Int_Tables_number   1
_chemical_formula_structural   Co3H25C35(NO5)3
_chemical_formula_sum   'Co6 H50 C70 N6 O30'
_cell_volume   2621.58710047
_cell_formula_units_Z   2
loop_
 _symmetry_equiv_pos_site_id
 _symmetry_equiv_pos_as_xyz
  1  'x, y, z'
loop_
 _atom_site_type_symbol
 _atom_site_label
 _atom_site_symmetry_multiplicity
 _atom_site_fract_x
 _atom_site_fract_y
 _atom_site_fract_z
 _atom_site_occupancy
 _atom_site_charge
Co  Co1  1  0.83351000  0.18782000  0.70439000  1.0 1.1735157633
Co  Co2  1  0.12847000  0.30946000  0.80643000  1.0 1.2293898129
Co  Co3  1  0.07821000  0.14858000  0.84409000  1.0 1.4538532758
Co  Co4  1  0.16649000  0.81218000  0.29561000  1.0 1.1735157633
Co  Co5  1  0.87153000  0.69054000  0.19357000  1.0 1.2293898129
Co  Co6  1  0.92179000  0.85142000  0.15591000  1.0 1.4538532758
H  H1  1  0.02870000  0.47660000  0.72280000  1.0 0.1300074584
H  H2  1  0.26780000  0.48170000  0.70820000  1.0 0.1400374564
H  H3  1  0.71290000  0.59710000  0.61090000  1.0 0.1200575675
H  H4  1  0.81220000  0.66270000  0.53380000  1.0 0.1300074584
H  H5  1  0.66080000  0.70710000  0.46390000  1.0 0.1400374564
H  H6  1  0.41950000  0.69420000  0.47430000  1.0 0.1300074584
H  H7  1  0.98070000  0.59890000  0.58850000  1.0 0.1300074584
H  H8  1  0.88160000  0.53460000  0.66310000  1.0 0.1300074584
H  H9  1  0.20410000  0.66870000  0.46970000  1.0 0.1200575675
H  H10  1  0.06470000  0.62560000  0.49510000  1.0 0.1200575675
H  H11  1  0.46680000  0.47020000  0.67550000  1.0 0.1200575675
H  H12  1  0.60570000  0.50050000  0.64120000  1.0 0.1107383558
H  H13  1  0.68310000  0.43950000  0.71980000  1.0 0.1300074584
H  H14  1  0.89270000  0.51240000  0.94000000  1.0 0.1504137554
H  H15  1  0.66810000  0.67430000  0.90180000  1.0 0.1400374564
H  H16  1  0.07740000  0.89440000  0.66920000  1.0 0.1504137554
H  H17  1  0.86030000  0.94390000  0.50880000  1.0 0.1200575675
H  H18  1  0.02470000  0.72340000  0.43300000  1.0 0.1400374564
H  H19  1  0.78610000  0.07300000  0.52360000  1.0 0.1200575675
H  H20  1  0.44330000  0.12660000  0.52700000  1.0 0.1504137554
H  H21  1  0.38880000  0.05840000  0.43690000  1.0 0.1400374564
H  H22  1  0.48390000  0.15070000  0.45650000  1.0 0.1400374564
H  H23  1  0.71920000  0.99140000  0.39110000  1.0 0.1400374564
H  H24  1  0.60950000  0.02350000  0.34940000  1.0 0.1504137554
H  H25  1  0.55140000  0.94950000  0.37500000  1.0 0.1641844848
H  H26  1  0.97130000  0.52340000  0.27720000  1.0 0.1300074584
H  H27  1  0.73220000  0.51830000  0.29180000  1.0 0.1400374564
H  H28  1  0.28710000  0.40290000  0.38910000  1.0 0.1200575675
H  H29  1  0.18780000  0.33730000  0.46620000  1.0 0.1300074584
H  H30  1  0.33920000  0.29290000  0.53610000  1.0 0.1400374564
H  H31  1  0.58050000  0.30580000  0.52570000  1.0 0.1300074584
H  H32  1  0.01930000  0.40110000  0.41150000  1.0 0.1300074584
H  H33  1  0.11840000  0.46540000  0.33690000  1.0 0.1300074584
H  H34  1  0.79590000  0.33130000  0.53030000  1.0 0.1200575675
H  H35  1  0.93530000  0.37440000  0.50490000  1.0 0.1200575675
H  H36  1  0.53320000  0.52980000  0.32450000  1.0 0.1200575675
H  H37  1  0.39430000  0.49950000  0.35880000  1.0 0.1107383558
H  H38  1  0.31690000  0.56050000  0.28020000  1.0 0.1300074584
H  H39  1  0.10730000  0.48760000  0.06000000  1.0 0.1504137554
H  H40  1  0.33190000  0.32570000  0.09820000  1.0 0.1400374564
H  H41  1  0.92260000  0.10560000  0.33080000  1.0 0.1504137554
H  H42  1  0.13970000  0.05610000  0.49120000  1.0 0.1200575675
H  H43  1  0.97530000  0.27660000  0.56700000  1.0 0.1400374564
H  H44  1  0.21390000  0.92700000  0.47640000  1.0 0.1200575675
H  H45  1  0.55670000  0.87340000  0.47300000  1.0 0.1504137554
H  H46  1  0.61120000  0.94160000  0.56310000  1.0 0.1400374564
H  H47  1  0.51610000  0.84930000  0.54350000  1.0 0.1400374564
H  H48  1  0.28080000  0.00860000  0.60890000  1.0 0.1400374564
H  H49  1  0.39050000  0.97650000  0.65060000  1.0 0.1504137554
H  H50  1  0.44860000  0.05050000  0.62500000  1.0 0.1641844848
C  C1  1  0.07040000  0.50310000  0.69200000  1.0 -0.0698502528
C  C2  1  0.21300000  0.50620000  0.68370000  1.0 -0.1192248897
C  C3  1  0.28200000  0.54720000  0.63710000  1.0 0.0423468515
C  C4  1  0.43280000  0.55680000  0.63040000  1.0 0.0196525097
C  C5  1  0.49560000  0.59870000  0.58660000  1.0 0.0423468515
C  C6  1  0.65180000  0.61430000  0.58230000  1.0 -0.1192248897
C  C7  1  0.71180000  0.65420000  0.53690000  1.0 -0.0791786498
C  C8  1  0.62060000  0.68160000  0.49590000  1.0 -0.0698502528
C  C9  1  0.47540000  0.67240000  0.50100000  1.0 -0.1326738893
C  C10  1  0.40480000  0.63130000  0.54480000  1.0 0.0423468515
C  C11  1  0.25650000  0.62590000  0.55290000  1.0 0.0266704877
C  C12  1  0.19300000  0.58410000  0.59860000  1.0 0.0505972618
C  C13  1  0.04070000  0.57610000  0.61210000  1.0 -0.1391823179
C  C14  1  0.98040000  0.53800000  0.65620000  1.0 -0.0892839878
C  C15  1  0.16090000  0.66370000  0.51500000  1.0 -0.1192248897
C  C16  1  0.52640000  0.52030000  0.67260000  1.0 -0.100973416
C  C17  1  0.66490000  0.56210000  0.80200000  1.0 0.2025729084
C  C18  1  0.71140000  0.48160000  0.77300000  1.0 -0.1698118156
C  C19  1  0.80050000  0.46570000  0.82530000  1.0 -0.0085545898
C  C20  1  0.83550000  0.52470000  0.90560000  1.0 -0.0892839878
C  C21  1  0.78450000  0.60340000  0.93530000  1.0 0.0196525097
C  C22  1  0.70030000  0.62160000  0.88240000  1.0 -0.1476309112
C  C23  1  0.86290000  0.38420000  0.79430000  1.0 0.5901534323
C  C24  1  0.81640000  0.66520000  0.02370000  1.0 0.5901534323
C  C25  1  0.06910000  0.79960000  0.55480000  1.0 0.2179362142
C  C26  1  0.04430000  0.87870000  0.61570000  1.0 -0.1698118156
C  C27  1  0.97290000  0.93380000  0.59930000  1.0 0.002142338
C  C28  1  0.91390000  0.90880000  0.52020000  1.0 -0.1326738893
C  C29  1  0.93630000  0.83040000  0.45830000  1.0 -0.0161812937
C  C30  1  0.01200000  0.77570000  0.47480000  1.0 -0.1988703048
C  C31  1  0.87870000  0.80750000  0.37360000  1.0 0.5680130982
C  C32  1  0.95670000  0.02120000  0.66710000  1.0 0.5901534323
C  C33  1  0.70360000  0.09810000  0.53130000  1.0 0.3147114479
C  C34  1  0.46790000  0.10420000  0.47250000  1.0 -0.3275330624
C  C35  1  0.62210000  0.00270000  0.38920000  1.0 -0.3275330624
C  C36  1  0.92960000  0.49690000  0.30800000  1.0 -0.0698502528
C  C37  1  0.78700000  0.49380000  0.31630000  1.0 -0.1192248897
C  C38  1  0.71800000  0.45280000  0.36290000  1.0 0.0423468515
C  C39  1  0.56720000  0.44320000  0.36960000  1.0 0.0196525097
C  C40  1  0.50440000  0.40130000  0.41340000  1.0 0.0423468515
C  C41  1  0.34820000  0.38570000  0.41770000  1.0 -0.1192248897
C  C42  1  0.28820000  0.34580000  0.46310000  1.0 -0.0791786498
C  C43  1  0.37940000  0.31840000  0.50410000  1.0 -0.0698502528
C  C44  1  0.52460000  0.32760000  0.49900000  1.0 -0.1326738893
C  C45  1  0.59520000  0.36870000  0.45520000  1.0 0.0423468515
C  C46  1  0.74350000  0.37410000  0.44710000  1.0 0.0266704877
C  C47  1  0.80700000  0.41590000  0.40140000  1.0 0.0505972618
C  C48  1  0.95930000  0.42390000  0.38790000  1.0 -0.1391823179
C  C49  1  0.01960000  0.46200000  0.34380000  1.0 -0.0892839878
C  C50  1  0.83910000  0.33630000  0.48500000  1.0 -0.1192248897
C  C51  1  0.47360000  0.47970000  0.32740000  1.0 -0.100973416
C  C52  1  0.33510000  0.43790000  0.19800000  1.0 0.2025729084
C  C53  1  0.28860000  0.51840000  0.22700000  1.0 -0.1698118156
C  C54  1  0.19950000  0.53430000  0.17470000  1.0 -0.0085545898
C  C55  1  0.16450000  0.47530000  0.09440000  1.0 -0.0892839878
C  C56  1  0.21550000  0.39660000  0.06470000  1.0 0.0196525097
C  C57  1  0.29970000  0.37840000  0.11760000  1.0 -0.1476309112
C  C58  1  0.13710000  0.61580000  0.20570000  1.0 0.5901534323
C  C59  1  0.18360000  0.33480000  0.97630000  1.0 0.5901534323
C  C60  1  0.93090000  0.20040000  0.44520000  1.0 0.2179362142
C  C61  1  0.95570000  0.12130000  0.38430000  1.0 -0.1698118156
C  C62  1  0.02710000  0.06620000  0.40070000  1.0 0.002142338
C  C63  1  0.08610000  0.09120000  0.47980000  1.0 -0.1326738893
C  C64  1  0.06370000  0.16960000  0.54170000  1.0 -0.0161812937
C  C65  1  0.98800000  0.22430000  0.52520000  1.0 -0.1988703048
C  C66  1  0.12130000  0.19250000  0.62640000  1.0 0.5680130982
C  C67  1  0.04330000  0.97880000  0.33290000  1.0 0.5901534323
C  C68  1  0.29640000  0.90190000  0.46870000  1.0 0.3147114479
C  C69  1  0.53210000  0.89580000  0.52750000  1.0 -0.3275330624
C  C70  1  0.37790000  0.99730000  0.61080000  1.0 -0.3275330624
N  N1  1  0.58460000  0.58360000  0.75030000  1.0 -0.2322354651
N  N2  1  0.14820000  0.74960000  0.57580000  1.0 -0.2585628665
N  N3  1  0.60130000  0.06900000  0.46820000  1.0 0.0266704877
N  N4  1  0.41540000  0.41640000  0.24970000  1.0 -0.2322354651
N  N5  1  0.85180000  0.25040000  0.42420000  1.0 -0.2585628665
N  N6  1  0.39870000  0.93100000  0.53180000  1.0 0.0266704877
O  O1  1  0.87650000  0.06350000  0.64870000  1.0 -0.5454283691
O  O2  1  0.02230000  0.04210000  0.73500000  1.0 -0.5640873051
O  O3  1  0.77270000  0.83660000  0.36100000  1.0 -0.413192246
O  O4  1  0.94910000  0.75940000  0.31690000  1.0 -0.5991625524
O  O5  1  0.78450000  0.31200000  0.74420000  1.0 -0.5153113937
O  O6  1  0.99530000  0.39530000  0.82220000  1.0 -0.5285720712
O  O7  1  0.81900000  0.63190000  0.07080000  1.0 -0.5285720712
O  O8  1  0.84480000  0.74650000  0.04290000  1.0 -0.5752617455
O  O9  1  0.69630000  0.15600000  0.59930000  1.0 -0.4551703966
O  O10  1  0.24790000  0.20750000  0.79500000  1.0 -0.3980666882
O  O11  1  0.95580000  0.22020000  0.81180000  1.0 -0.8848888612
O  O12  1  0.64970000  0.15300000  0.75540000  1.0 -0.1698118156
O  O13  1  0.31470000  0.38560000  0.79310000  1.0 -0.3089601583
O  O14  1  0.22170000  0.08220000  0.87640000  1.0 -0.4898828304
O  O15  1  0.89780000  0.10320000  0.89460000  1.0 -0.4681442714
O  O16  1  0.12350000  0.93650000  0.35130000  1.0 -0.5454283691
O  O17  1  0.97770000  0.95790000  0.26500000  1.0 -0.5640873051
O  O18  1  0.22730000  0.16340000  0.63900000  1.0 -0.413192246
O  O19  1  0.05090000  0.24060000  0.68310000  1.0 -0.5991625524
O  O20  1  0.21550000  0.68800000  0.25580000  1.0 -0.5108193791
O  O21  1  0.00470000  0.60470000  0.17780000  1.0 -0.5285720712
O  O22  1  0.18100000  0.36810000  0.92920000  1.0 -0.5285720712
O  O23  1  0.15520000  0.25350000  0.95710000  1.0 -0.5752617455
O  O24  1  0.30370000  0.84400000  0.40070000  1.0 -0.4551703966
O  O25  1  0.75210000  0.79250000  0.20500000  1.0 -0.3980666882
O  O26  1  0.04420000  0.77980000  0.18820000  1.0 -0.8848888612
O  O27  1  0.35030000  0.84700000  0.24460000  1.0 -0.1648170537
O  O28  1  0.68530000  0.61440000  0.20690000  1.0 -0.3089601583
O  O29  1  0.77830000  0.91780000  0.12360000  1.0 -0.5108193791
O  O30  1  0.10220000  0.89680000  0.10540000  1.0 -0.453186307
