# DDEC6 charges by PACMAN v1.1 (https://github.com/mtap-research/PACMAN-charge/)
data_JUSGUB_FSR_pacman
_symmetry_space_group_name_H-M   'P 1'
_cell_length_a   23.01940000
_cell_length_b   23.01940000
_cell_length_c   12.73540000
_cell_angle_alpha   90.00000000
_cell_angle_beta   90.00000000
_cell_angle_gamma   120.00000000
_symmetry_Int_Tables_number   1
_chemical_formula_structural   Co3H24C27N2O15
_chemical_formula_sum   'Co18 H144 C162 N12 O90'
_cell_volume   5844.28277268
_cell_formula_units_Z   6
loop_
 _symmetry_equiv_pos_site_id
 _symmetry_equiv_pos_as_xyz
  1  'x, y, z'
loop_
 _atom_site_type_symbol
 _atom_site_label
 _atom_site_symmetry_multiplicity
 _atom_site_fract_x
 _atom_site_fract_y
 _atom_site_fract_z
 _atom_site_occupancy
 _atom_site_charge
Co  Co1  1  0.84542000  0.23688000  0.62146000  1.0 0.4409916482
Co  Co2  1  0.60854000  0.84542000  0.12146000  1.0 0.4409916482
Co  Co3  1  0.76312000  0.60854000  0.62146000  1.0 0.4409916482
Co  Co4  1  0.15458000  0.76312000  0.12146000  1.0 0.4409916482
Co  Co5  1  0.39146000  0.15458000  0.62146000  1.0 0.4409916482
Co  Co6  1  0.23688000  0.39146000  0.12146000  1.0 0.4409916482
Co  Co7  1  0.15458000  0.76312000  0.37854000  1.0 0.4409916482
Co  Co8  1  0.39146000  0.15458000  0.87854000  1.0 0.4409916482
Co  Co9  1  0.23688000  0.39146000  0.37854000  1.0 0.4409916482
Co  Co10  1  0.84542000  0.23688000  0.87854000  1.0 0.4409916482
Co  Co11  1  0.60854000  0.84542000  0.37854000  1.0 0.4409916482
Co  Co12  1  0.76312000  0.60854000  0.87854000  1.0 0.4409916482
Co  Co13  1  0.91106000  0.38541000  0.75000000  1.0 0.6781118543
Co  Co14  1  0.52565000  0.91106000  0.25000000  1.0 0.6781118543
Co  Co15  1  0.61459000  0.52565000  0.75000000  1.0 0.6781118543
Co  Co16  1  0.08894000  0.61459000  0.25000000  1.0 0.6781118543
Co  Co17  1  0.47435000  0.08894000  0.75000000  1.0 0.6781118543
Co  Co18  1  0.38541000  0.47435000  0.25000000  1.0 0.6781118543
H  H1  1  0.85150000  0.22090000  0.25000000  1.0 0.1293740644
H  H2  1  0.63060000  0.85150000  0.75000000  1.0 0.1293740644
H  H3  1  0.77910000  0.63060000  0.25000000  1.0 0.1293740644
H  H4  1  0.14850000  0.77910000  0.75000000  1.0 0.1293740644
H  H5  1  0.36940000  0.14850000  0.25000000  1.0 0.1293740644
H  H6  1  0.22090000  0.36940000  0.75000000  1.0 0.1293740644
H  H7  1  0.64850000  0.22410000  0.60540000  1.0 0.0993011352
H  H8  1  0.42440000  0.64850000  0.10540000  1.0 0.0993011352
H  H9  1  0.77590000  0.42440000  0.60540000  1.0 0.0993011352
H  H10  1  0.35150000  0.77590000  0.10540000  1.0 0.0993011352
H  H11  1  0.57560000  0.35150000  0.60540000  1.0 0.0993011352
H  H12  1  0.22410000  0.57560000  0.10540000  1.0 0.0993011352
H  H13  1  0.35150000  0.77590000  0.39460000  1.0 0.0993011352
H  H14  1  0.57560000  0.35150000  0.89460000  1.0 0.0993011352
H  H15  1  0.22410000  0.57560000  0.39460000  1.0 0.0993011352
H  H16  1  0.64850000  0.22410000  0.89460000  1.0 0.0993011352
H  H17  1  0.42440000  0.64850000  0.39460000  1.0 0.0993011352
H  H18  1  0.77590000  0.42440000  0.89460000  1.0 0.0993011352
H  H19  1  0.95300000  0.40890000  0.50680000  1.0 0.1108696038
H  H20  1  0.54410000  0.95300000  0.00680000  1.0 0.1108696038
H  H21  1  0.59110000  0.54410000  0.50680000  1.0 0.1108696038
H  H22  1  0.04700000  0.59110000  0.00680000  1.0 0.1108696038
H  H23  1  0.45590000  0.04700000  0.50680000  1.0 0.1108696038
H  H24  1  0.40890000  0.45590000  0.00680000  1.0 0.1108696038
H  H25  1  0.04700000  0.59110000  0.49320000  1.0 0.1108696038
H  H26  1  0.45590000  0.04700000  0.99320000  1.0 0.1108696038
H  H27  1  0.40890000  0.45590000  0.49320000  1.0 0.1108696038
H  H28  1  0.95300000  0.40890000  0.99320000  1.0 0.1108696038
H  H29  1  0.54410000  0.95300000  0.49320000  1.0 0.1108696038
H  H30  1  0.59110000  0.54410000  0.99320000  1.0 0.1108696038
H  H31  1  0.04670000  0.42860000  0.40620000  1.0 0.0948171075
H  H32  1  0.61810000  0.04670000  0.90620000  1.0 0.0948171075
H  H33  1  0.57140000  0.61810000  0.40620000  1.0 0.0948171075
H  H34  1  0.95330000  0.57140000  0.90620000  1.0 0.0948171075
H  H35  1  0.38190000  0.95330000  0.40620000  1.0 0.0948171075
H  H36  1  0.42860000  0.38190000  0.90620000  1.0 0.0948171075
H  H37  1  0.95330000  0.57140000  0.59380000  1.0 0.0948171075
H  H38  1  0.38190000  0.95330000  0.09380000  1.0 0.0948171075
H  H39  1  0.42860000  0.38190000  0.59380000  1.0 0.0948171075
H  H40  1  0.04670000  0.42860000  0.09380000  1.0 0.0948171075
H  H41  1  0.61810000  0.04670000  0.59380000  1.0 0.0948171075
H  H42  1  0.57140000  0.61810000  0.09380000  1.0 0.0948171075
H  H43  1  0.14530000  0.45880000  0.48970000  1.0 0.1293740644
H  H44  1  0.68650000  0.14530000  0.98970000  1.0 0.1293740644
H  H45  1  0.54120000  0.68650000  0.48970000  1.0 0.1293740644
H  H46  1  0.85470000  0.54120000  0.98970000  1.0 0.1293740644
H  H47  1  0.31350000  0.85470000  0.48970000  1.0 0.1293740644
H  H48  1  0.45880000  0.31350000  0.98970000  1.0 0.1293740644
H  H49  1  0.85470000  0.54120000  0.51030000  1.0 0.1293740644
H  H50  1  0.31350000  0.85470000  0.01030000  1.0 0.1293740644
H  H51  1  0.45880000  0.31350000  0.51030000  1.0 0.1293740644
H  H52  1  0.14530000  0.45880000  0.01030000  1.0 0.1293740644
H  H53  1  0.68650000  0.14530000  0.51030000  1.0 0.1293740644
H  H54  1  0.54120000  0.68650000  0.01030000  1.0 0.1293740644
H  H55  1  0.20810000  0.47260000  0.65850000  1.0 0.1293740644
H  H56  1  0.73550000  0.20810000  0.15850000  1.0 0.1293740644
H  H57  1  0.52740000  0.73550000  0.65850000  1.0 0.1293740644
H  H58  1  0.79190000  0.52740000  0.15850000  1.0 0.1293740644
H  H59  1  0.26450000  0.79190000  0.65850000  1.0 0.1293740644
H  H60  1  0.47260000  0.26450000  0.15850000  1.0 0.1293740644
H  H61  1  0.79190000  0.52740000  0.34150000  1.0 0.1293740644
H  H62  1  0.26450000  0.79190000  0.84150000  1.0 0.1293740644
H  H63  1  0.47260000  0.26450000  0.34150000  1.0 0.1293740644
H  H64  1  0.20810000  0.47260000  0.84150000  1.0 0.1293740644
H  H65  1  0.73550000  0.20810000  0.34150000  1.0 0.1293740644
H  H66  1  0.52740000  0.73550000  0.84150000  1.0 0.1293740644
H  H67  1  0.02790000  0.29200000  0.40720000  1.0 0.1293740644
H  H68  1  0.73590000  0.02790000  0.90720000  1.0 0.1293740644
H  H69  1  0.70800000  0.73590000  0.40720000  1.0 0.1293740644
H  H70  1  0.97210000  0.70800000  0.90720000  1.0 0.1293740644
H  H71  1  0.26410000  0.97210000  0.40720000  1.0 0.1293740644
H  H72  1  0.29200000  0.26410000  0.90720000  1.0 0.1293740644
H  H73  1  0.97210000  0.70800000  0.59280000  1.0 0.1293740644
H  H74  1  0.26410000  0.97210000  0.09280000  1.0 0.1293740644
H  H75  1  0.29200000  0.26410000  0.59280000  1.0 0.1293740644
H  H76  1  0.02790000  0.29200000  0.09280000  1.0 0.1293740644
H  H77  1  0.73590000  0.02790000  0.59280000  1.0 0.1293740644
H  H78  1  0.70800000  0.73590000  0.09280000  1.0 0.1293740644
H  H79  1  0.86860000  0.26790000  0.80210000  1.0 0.1108696038
H  H80  1  0.60070000  0.86860000  0.30210000  1.0 0.1108696038
H  H81  1  0.73210000  0.60070000  0.80210000  1.0 0.1108696038
H  H82  1  0.13140000  0.73210000  0.30210000  1.0 0.1108696038
H  H83  1  0.39930000  0.13140000  0.80210000  1.0 0.1108696038
H  H84  1  0.26790000  0.39930000  0.30210000  1.0 0.1108696038
H  H85  1  0.13140000  0.73210000  0.19790000  1.0 0.1108696038
H  H86  1  0.39930000  0.13140000  0.69790000  1.0 0.1108696038
H  H87  1  0.26790000  0.39930000  0.19790000  1.0 0.1108696038
H  H88  1  0.86860000  0.26790000  0.69790000  1.0 0.1108696038
H  H89  1  0.60070000  0.86860000  0.19790000  1.0 0.1108696038
H  H90  1  0.73210000  0.60070000  0.69790000  1.0 0.1108696038
H  H91  1  0.94030000  0.50150000  0.72420000  1.0 0.1240039735
H  H92  1  0.43880000  0.94030000  0.22420000  1.0 0.1240039735
H  H93  1  0.49850000  0.43880000  0.72420000  1.0 0.1240039735
H  H94  1  0.05970000  0.49850000  0.22420000  1.0 0.1240039735
H  H95  1  0.56120000  0.05970000  0.72420000  1.0 0.1240039735
H  H96  1  0.50150000  0.56120000  0.22420000  1.0 0.1240039735
H  H97  1  0.05970000  0.49850000  0.27580000  1.0 0.1240039735
H  H98  1  0.56120000  0.05970000  0.77580000  1.0 0.1240039735
H  H99  1  0.50150000  0.56120000  0.27580000  1.0 0.1240039735
H  H100  1  0.94030000  0.50150000  0.77580000  1.0 0.1240039735
H  H101  1  0.43880000  0.94030000  0.27580000  1.0 0.1240039735
H  H102  1  0.49850000  0.43880000  0.77580000  1.0 0.1240039735
H  H103  1  0.88950000  0.47010000  0.79790000  1.0 0.1580179613
H  H104  1  0.41940000  0.88950000  0.29790000  1.0 0.1580179613
H  H105  1  0.52990000  0.41940000  0.79790000  1.0 0.1580179613
H  H106  1  0.11050000  0.52990000  0.29790000  1.0 0.1580179613
H  H107  1  0.58060000  0.11050000  0.79790000  1.0 0.1580179613
H  H108  1  0.47010000  0.58060000  0.29790000  1.0 0.1580179613
H  H109  1  0.11050000  0.52990000  0.20210000  1.0 0.1580179613
H  H110  1  0.58060000  0.11050000  0.70210000  1.0 0.1580179613
H  H111  1  0.47010000  0.58060000  0.20210000  1.0 0.1580179613
H  H112  1  0.88950000  0.47010000  0.70210000  1.0 0.1580179613
H  H113  1  0.41940000  0.88950000  0.20210000  1.0 0.1580179613
H  H114  1  0.52990000  0.41940000  0.70210000  1.0 0.1580179613
H  H115  1  0.87430000  0.26690000  0.80580000  1.0 0.1371690215
H  H116  1  0.60740000  0.87430000  0.30580000  1.0 0.1371690215
H  H117  1  0.73310000  0.60740000  0.80580000  1.0 0.1371690215
H  H118  1  0.12570000  0.73310000  0.30580000  1.0 0.1371690215
H  H119  1  0.39260000  0.12570000  0.80580000  1.0 0.1371690215
H  H120  1  0.26690000  0.39260000  0.30580000  1.0 0.1371690215
H  H121  1  0.12570000  0.73310000  0.19420000  1.0 0.1371690215
H  H122  1  0.39260000  0.12570000  0.69420000  1.0 0.1371690215
H  H123  1  0.26690000  0.39260000  0.19420000  1.0 0.1371690215
H  H124  1  0.87430000  0.26690000  0.69420000  1.0 0.1371690215
H  H125  1  0.60740000  0.87430000  0.19420000  1.0 0.1371690215
H  H126  1  0.73310000  0.60740000  0.69420000  1.0 0.1371690215
H  H127  1  0.88060000  0.47110000  0.82900000  1.0 0.2265851106
H  H128  1  0.40950000  0.88060000  0.32900000  1.0 0.2265851106
H  H129  1  0.52890000  0.40950000  0.82900000  1.0 0.2265851106
H  H130  1  0.11940000  0.52890000  0.32900000  1.0 0.2265851106
H  H131  1  0.59050000  0.11940000  0.82900000  1.0 0.2265851106
H  H132  1  0.47110000  0.59050000  0.32900000  1.0 0.2265851106
H  H133  1  0.11940000  0.52890000  0.17100000  1.0 0.2265851106
H  H134  1  0.59050000  0.11940000  0.67100000  1.0 0.2265851106
H  H135  1  0.47110000  0.59050000  0.17100000  1.0 0.2265851106
H  H136  1  0.88060000  0.47110000  0.67100000  1.0 0.2265851106
H  H137  1  0.40950000  0.88060000  0.17100000  1.0 0.2265851106
H  H138  1  0.52890000  0.40950000  0.67100000  1.0 0.2265851106
H  H139  1  0.92640000  0.51460000  0.75000000  1.0 0.0993011352
H  H140  1  0.41180000  0.92640000  0.25000000  1.0 0.0993011352
H  H141  1  0.48540000  0.41180000  0.75000000  1.0 0.0993011352
H  H142  1  0.07360000  0.48540000  0.25000000  1.0 0.0993011352
H  H143  1  0.58820000  0.07360000  0.75000000  1.0 0.0993011352
H  H144  1  0.51460000  0.58820000  0.25000000  1.0 0.0993011352
C  C1  1  0.89600000  0.24280000  0.44480000  1.0 0.4855975266
C  C2  1  0.65320000  0.89600000  0.94480000  1.0 0.4855975266
C  C3  1  0.75720000  0.65320000  0.44480000  1.0 0.4855975266
C  C4  1  0.10400000  0.75720000  0.94480000  1.0 0.4855975266
C  C5  1  0.34680000  0.10400000  0.44480000  1.0 0.4855975266
C  C6  1  0.24280000  0.34680000  0.94480000  1.0 0.4855975266
C  C7  1  0.10400000  0.75720000  0.55520000  1.0 0.4855975266
C  C8  1  0.34680000  0.10400000  0.05520000  1.0 0.4855975266
C  C9  1  0.24280000  0.34680000  0.55520000  1.0 0.4855975266
C  C10  1  0.89600000  0.24280000  0.05520000  1.0 0.4855975266
C  C11  1  0.65320000  0.89600000  0.55520000  1.0 0.4855975266
C  C12  1  0.75720000  0.65320000  0.05520000  1.0 0.4855975266
C  C13  1  0.93450000  0.25500000  0.34490000  1.0 -0.0032371229
C  C14  1  0.67950000  0.93450000  0.84490000  1.0 -0.0032371229
C  C15  1  0.74500000  0.67950000  0.34490000  1.0 -0.0032371229
C  C16  1  0.06550000  0.74500000  0.84490000  1.0 -0.0032371229
C  C17  1  0.32050000  0.06550000  0.34490000  1.0 -0.0032371229
C  C18  1  0.25500000  0.32050000  0.84490000  1.0 -0.0032371229
C  C19  1  0.06550000  0.74500000  0.65510000  1.0 -0.0032371229
C  C20  1  0.32050000  0.06550000  0.15510000  1.0 -0.0032371229
C  C21  1  0.25500000  0.32050000  0.65510000  1.0 -0.0032371229
C  C22  1  0.93450000  0.25500000  0.15510000  1.0 -0.0032371229
C  C23  1  0.67950000  0.93450000  0.65510000  1.0 -0.0032371229
C  C24  1  0.74500000  0.67950000  0.15510000  1.0 -0.0032371229
C  C25  1  0.89790000  0.24000000  0.25000000  1.0 -0.124740066
C  C26  1  0.65790000  0.89790000  0.75000000  1.0 -0.124740066
C  C27  1  0.76000000  0.65790000  0.25000000  1.0 -0.124740066
C  C28  1  0.10210000  0.76000000  0.75000000  1.0 -0.124740066
C  C29  1  0.34210000  0.10210000  0.25000000  1.0 -0.124740066
C  C30  1  0.24000000  0.34210000  0.75000000  1.0 -0.124740066
C  C31  1  0.78000000  0.31080000  0.61550000  1.0 0.4818590712
C  C32  1  0.46920000  0.78000000  0.11550000  1.0 0.4818590712
C  C33  1  0.68920000  0.46920000  0.61550000  1.0 0.4818590712
C  C34  1  0.22000000  0.68920000  0.11550000  1.0 0.4818590712
C  C35  1  0.53080000  0.22000000  0.61550000  1.0 0.4818590712
C  C36  1  0.31080000  0.53080000  0.11550000  1.0 0.4818590712
C  C37  1  0.22000000  0.68920000  0.38450000  1.0 0.4818590712
C  C38  1  0.53080000  0.22000000  0.88450000  1.0 0.4818590712
C  C39  1  0.31080000  0.53080000  0.38450000  1.0 0.4818590712
C  C40  1  0.78000000  0.31080000  0.88450000  1.0 0.4818590712
C  C41  1  0.46920000  0.78000000  0.38450000  1.0 0.4818590712
C  C42  1  0.68920000  0.46920000  0.88450000  1.0 0.4818590712
C  C43  1  0.72056000  0.32092000  0.60940000  1.0 -0.0220104661
C  C44  1  0.39964000  0.72056000  0.10940000  1.0 -0.0220104661
C  C45  1  0.67908000  0.39964000  0.60940000  1.0 -0.0220104661
C  C46  1  0.27944000  0.67908000  0.10940000  1.0 -0.0220104661
C  C47  1  0.60036000  0.27944000  0.60940000  1.0 -0.0220104661
C  C48  1  0.32092000  0.60036000  0.10940000  1.0 -0.0220104661
C  C49  1  0.27944000  0.67908000  0.39060000  1.0 -0.0220104661
C  C50  1  0.60036000  0.27944000  0.89060000  1.0 -0.0220104661
C  C51  1  0.32092000  0.60036000  0.39060000  1.0 -0.0220104661
C  C52  1  0.72056000  0.32092000  0.89060000  1.0 -0.0220104661
C  C53  1  0.39964000  0.72056000  0.39060000  1.0 -0.0220104661
C  C54  1  0.67908000  0.39964000  0.89060000  1.0 -0.0220104661
C  C55  1  0.65610000  0.26770000  0.60770000  1.0 -0.1653967667
C  C56  1  0.38840000  0.65610000  0.10770000  1.0 -0.1653967667
C  C57  1  0.73230000  0.38840000  0.60770000  1.0 -0.1653967667
C  C58  1  0.34390000  0.73230000  0.10770000  1.0 -0.1653967667
C  C59  1  0.61160000  0.34390000  0.60770000  1.0 -0.1653967667
C  C60  1  0.26770000  0.61160000  0.10770000  1.0 -0.1653967667
C  C61  1  0.34390000  0.73230000  0.39230000  1.0 -0.1653967667
C  C62  1  0.61160000  0.34390000  0.89230000  1.0 -0.1653967667
C  C63  1  0.26770000  0.61160000  0.39230000  1.0 -0.1653967667
C  C64  1  0.65610000  0.26770000  0.89230000  1.0 -0.1653967667
C  C65  1  0.38840000  0.65610000  0.39230000  1.0 -0.1653967667
C  C66  1  0.73230000  0.38840000  0.89230000  1.0 -0.1653967667
C  C67  1  0.99210000  0.41680000  0.54060000  1.0 0.0129901186
C  C68  1  0.57530000  0.99210000  0.04060000  1.0 0.0129901186
C  C69  1  0.58320000  0.57530000  0.54060000  1.0 0.0129901186
C  C70  1  0.00790000  0.58320000  0.04060000  1.0 0.0129901186
C  C71  1  0.42470000  0.00790000  0.54060000  1.0 0.0129901186
C  C72  1  0.41680000  0.42470000  0.04060000  1.0 0.0129901186
C  C73  1  0.00790000  0.58320000  0.45940000  1.0 0.0129901186
C  C74  1  0.42470000  0.00790000  0.95940000  1.0 0.0129901186
C  C75  1  0.41680000  0.42470000  0.45940000  1.0 0.0129901186
C  C76  1  0.99210000  0.41680000  0.95940000  1.0 0.0129901186
C  C77  1  0.57530000  0.99210000  0.45940000  1.0 0.0129901186
C  C78  1  0.58320000  0.57530000  0.95940000  1.0 0.0129901186
C  C79  1  0.04920000  0.43070000  0.47910000  1.0 -0.2425089349
C  C80  1  0.61850000  0.04920000  0.97910000  1.0 -0.2425089349
C  C81  1  0.56930000  0.61850000  0.47910000  1.0 -0.2425089349
C  C82  1  0.95080000  0.56930000  0.97910000  1.0 -0.2425089349
C  C83  1  0.38150000  0.95080000  0.47910000  1.0 -0.2425089349
C  C84  1  0.43070000  0.38150000  0.97910000  1.0 -0.2425089349
C  C85  1  0.95080000  0.56930000  0.52090000  1.0 -0.2425089349
C  C86  1  0.38150000  0.95080000  0.02090000  1.0 -0.2425089349
C  C87  1  0.43070000  0.38150000  0.52090000  1.0 -0.2425089349
C  C88  1  0.04920000  0.43070000  0.02090000  1.0 -0.2425089349
C  C89  1  0.61850000  0.04920000  0.52090000  1.0 -0.2425089349
C  C90  1  0.56930000  0.61850000  0.02090000  1.0 -0.2425089349
C  C91  1  0.10700000  0.44700000  0.52920000  1.0 -0.1093965967
C  C92  1  0.66000000  0.10700000  0.02920000  1.0 -0.1093965967
C  C93  1  0.55300000  0.66000000  0.52920000  1.0 -0.1093965967
C  C94  1  0.89300000  0.55300000  0.02920000  1.0 -0.1093965967
C  C95  1  0.34000000  0.89300000  0.52920000  1.0 -0.1093965967
C  C96  1  0.44700000  0.34000000  0.02920000  1.0 -0.1093965967
C  C97  1  0.89300000  0.55300000  0.47080000  1.0 -0.1093965967
C  C98  1  0.34000000  0.89300000  0.97080000  1.0 -0.1093965967
C  C99  1  0.44700000  0.34000000  0.47080000  1.0 -0.1093965967
C  C100  1  0.10700000  0.44700000  0.97080000  1.0 -0.1093965967
C  C101  1  0.66000000  0.10700000  0.47080000  1.0 -0.1093965967
C  C102  1  0.55300000  0.66000000  0.97080000  1.0 -0.1093965967
C  C103  1  0.11090000  0.44690000  0.63970000  1.0 0.0498482481
C  C104  1  0.66400000  0.11090000  0.13970000  1.0 0.0498482481
C  C105  1  0.55310000  0.66400000  0.63970000  1.0 0.0498482481
C  C106  1  0.88910000  0.55310000  0.13970000  1.0 0.0498482481
C  C107  1  0.33600000  0.88910000  0.63970000  1.0 0.0498482481
C  C108  1  0.44690000  0.33600000  0.13970000  1.0 0.0498482481
C  C109  1  0.88910000  0.55310000  0.36030000  1.0 0.0498482481
C  C110  1  0.33600000  0.88910000  0.86030000  1.0 0.0498482481
C  C111  1  0.44690000  0.33600000  0.36030000  1.0 0.0498482481
C  C112  1  0.11090000  0.44690000  0.86030000  1.0 0.0498482481
C  C113  1  0.66400000  0.11090000  0.36030000  1.0 0.0498482481
C  C114  1  0.55310000  0.66400000  0.86030000  1.0 0.0498482481
C  C115  1  0.05120000  0.42990000  0.69700000  1.0 0.084231186
C  C116  1  0.62130000  0.05120000  0.19700000  1.0 0.084231186
C  C117  1  0.57010000  0.62130000  0.69700000  1.0 0.084231186
C  C118  1  0.94880000  0.57010000  0.19700000  1.0 0.084231186
C  C119  1  0.37870000  0.94880000  0.69700000  1.0 0.084231186
C  C120  1  0.42990000  0.37870000  0.19700000  1.0 0.084231186
C  C121  1  0.94880000  0.57010000  0.30300000  1.0 0.084231186
C  C122  1  0.37870000  0.94880000  0.80300000  1.0 0.084231186
C  C123  1  0.42990000  0.37870000  0.30300000  1.0 0.084231186
C  C124  1  0.05120000  0.42990000  0.80300000  1.0 0.084231186
C  C125  1  0.62130000  0.05120000  0.30300000  1.0 0.084231186
C  C126  1  0.57010000  0.62130000  0.80300000  1.0 0.084231186
C  C127  1  0.16900000  0.46230000  0.69480000  1.0 -0.1031688843
C  C128  1  0.70670000  0.16900000  0.19480000  1.0 -0.1031688843
C  C129  1  0.53770000  0.70670000  0.69480000  1.0 -0.1031688843
C  C130  1  0.83100000  0.53770000  0.19480000  1.0 -0.1031688843
C  C131  1  0.29330000  0.83100000  0.69480000  1.0 -0.1031688843
C  C132  1  0.46230000  0.29330000  0.19480000  1.0 -0.1031688843
C  C133  1  0.83100000  0.53770000  0.30520000  1.0 -0.1031688843
C  C134  1  0.29330000  0.83100000  0.80520000  1.0 -0.1031688843
C  C135  1  0.46230000  0.29330000  0.30520000  1.0 -0.1031688843
C  C136  1  0.16900000  0.46230000  0.80520000  1.0 -0.1031688843
C  C137  1  0.70670000  0.16900000  0.30520000  1.0 -0.1031688843
C  C138  1  0.53770000  0.70670000  0.80520000  1.0 -0.1031688843
C  C139  1  0.11270000  0.32870000  0.25000000  1.0 0.530750844
C  C140  1  0.78400000  0.11270000  0.75000000  1.0 0.530750844
C  C141  1  0.67130000  0.78400000  0.25000000  1.0 0.530750844
C  C142  1  0.88730000  0.67130000  0.75000000  1.0 0.530750844
C  C143  1  0.21600000  0.88730000  0.25000000  1.0 0.530750844
C  C144  1  0.32870000  0.21600000  0.75000000  1.0 0.530750844
C  C145  1  0.03890000  0.29780000  0.25000000  1.0 -0.0409247397
C  C146  1  0.74110000  0.03890000  0.75000000  1.0 -0.0409247397
C  C147  1  0.70220000  0.74110000  0.25000000  1.0 -0.0409247397
C  C148  1  0.96110000  0.70220000  0.75000000  1.0 -0.0409247397
C  C149  1  0.25890000  0.96110000  0.25000000  1.0 -0.0409247397
C  C150  1  0.29780000  0.25890000  0.75000000  1.0 -0.0409247397
C  C151  1  0.00460000  0.28320000  0.34420000  1.0 -0.1093965967
C  C152  1  0.72140000  0.00460000  0.84420000  1.0 -0.1093965967
C  C153  1  0.71680000  0.72140000  0.34420000  1.0 -0.1093965967
C  C154  1  0.99540000  0.71680000  0.84420000  1.0 -0.1093965967
C  C155  1  0.27860000  0.99540000  0.34420000  1.0 -0.1093965967
C  C156  1  0.28320000  0.27860000  0.84420000  1.0 -0.1093965967
C  C157  1  0.99540000  0.71680000  0.65580000  1.0 -0.1093965967
C  C158  1  0.27860000  0.99540000  0.15580000  1.0 -0.1093965967
C  C159  1  0.28320000  0.27860000  0.65580000  1.0 -0.1093965967
C  C160  1  0.00460000  0.28320000  0.15580000  1.0 -0.1093965967
C  C161  1  0.72140000  0.00460000  0.65580000  1.0 -0.1093965967
C  C162  1  0.71680000  0.72140000  0.15580000  1.0 -0.1093965967
N  N1  1  0.99277000  0.41458000  0.64370000  1.0 -0.3934031346
N  N2  1  0.57819000  0.99277000  0.14370000  1.0 -0.3934031346
N  N3  1  0.58542000  0.57819000  0.64370000  1.0 -0.3934031346
N  N4  1  0.00723000  0.58542000  0.14370000  1.0 -0.3934031346
N  N5  1  0.42181000  0.00723000  0.64370000  1.0 -0.3934031346
N  N6  1  0.41458000  0.42181000  0.14370000  1.0 -0.3934031346
N  N7  1  0.00723000  0.58542000  0.35630000  1.0 -0.3934031346
N  N8  1  0.42181000  0.00723000  0.85630000  1.0 -0.3934031346
N  N9  1  0.41458000  0.42181000  0.35630000  1.0 -0.3934031346
N  N10  1  0.99277000  0.41458000  0.85630000  1.0 -0.3934031346
N  N11  1  0.57819000  0.99277000  0.35630000  1.0 -0.3934031346
N  N12  1  0.58542000  0.57819000  0.85630000  1.0 -0.3934031346
O  O1  1  0.89405000  0.28770000  0.75000000  1.0 -0.4502121129
O  O2  1  0.60635000  0.89405000  0.25000000  1.0 -0.4502121129
O  O3  1  0.71230000  0.60635000  0.75000000  1.0 -0.4502121129
O  O4  1  0.10595000  0.71230000  0.25000000  1.0 -0.4502121129
O  O5  1  0.39365000  0.10595000  0.75000000  1.0 -0.4502121129
O  O6  1  0.28770000  0.39365000  0.25000000  1.0 -0.4502121129
O  O7  1  0.92730000  0.26145000  0.52810000  1.0 -0.4167075921
O  O8  1  0.66585000  0.92730000  0.02810000  1.0 -0.4167075921
O  O9  1  0.73855000  0.66585000  0.52810000  1.0 -0.4167075921
O  O10  1  0.07270000  0.73855000  0.02810000  1.0 -0.4167075921
O  O11  1  0.33415000  0.07270000  0.52810000  1.0 -0.4167075921
O  O12  1  0.26145000  0.33415000  0.02810000  1.0 -0.4167075921
O  O13  1  0.07270000  0.73855000  0.47190000  1.0 -0.4167075921
O  O14  1  0.33415000  0.07270000  0.97190000  1.0 -0.4167075921
O  O15  1  0.26145000  0.33415000  0.47190000  1.0 -0.4167075921
O  O16  1  0.92730000  0.26145000  0.97190000  1.0 -0.4167075921
O  O17  1  0.66585000  0.92730000  0.47190000  1.0 -0.4167075921
O  O18  1  0.73855000  0.66585000  0.97190000  1.0 -0.4167075921
O  O19  1  0.83743000  0.21397000  0.44890000  1.0 -0.3840872813
O  O20  1  0.62346000  0.83743000  0.94890000  1.0 -0.3840872813
O  O21  1  0.78603000  0.62346000  0.44890000  1.0 -0.3840872813
O  O22  1  0.16257000  0.78603000  0.94890000  1.0 -0.3840872813
O  O23  1  0.37654000  0.16257000  0.44890000  1.0 -0.3840872813
O  O24  1  0.21397000  0.37654000  0.94890000  1.0 -0.3840872813
O  O25  1  0.16257000  0.78603000  0.55110000  1.0 -0.3840872813
O  O26  1  0.37654000  0.16257000  0.05110000  1.0 -0.3840872813
O  O27  1  0.21397000  0.37654000  0.55110000  1.0 -0.3840872813
O  O28  1  0.83743000  0.21397000  0.05110000  1.0 -0.3840872813
O  O29  1  0.62346000  0.83743000  0.55110000  1.0 -0.3840872813
O  O30  1  0.78603000  0.62346000  0.05110000  1.0 -0.3840872813
O  O31  1  0.76678000  0.25019000  0.61390000  1.0 -0.5242203046
O  O32  1  0.51659000  0.76678000  0.11390000  1.0 -0.528784417
O  O33  1  0.74981000  0.51659000  0.61390000  1.0 -0.528784417
O  O34  1  0.23322000  0.74981000  0.11390000  1.0 -0.528784417
O  O35  1  0.48341000  0.23322000  0.61390000  1.0 -0.5242203046
O  O36  1  0.25019000  0.48341000  0.11390000  1.0 -0.528784417
O  O37  1  0.23322000  0.74981000  0.38610000  1.0 -0.528784417
O  O38  1  0.48341000  0.23322000  0.88610000  1.0 -0.5242203046
O  O39  1  0.25019000  0.48341000  0.38610000  1.0 -0.528784417
O  O40  1  0.76678000  0.25019000  0.88610000  1.0 -0.5242203046
O  O41  1  0.51659000  0.76678000  0.38610000  1.0 -0.528784417
O  O42  1  0.74981000  0.51659000  0.88610000  1.0 -0.528784417
O  O43  1  0.83646000  0.35869000  0.62850000  1.0 -0.528784417
O  O44  1  0.47777000  0.83646000  0.12850000  1.0 -0.528784417
O  O45  1  0.64131000  0.47777000  0.62850000  1.0 -0.528784417
O  O46  1  0.16354000  0.64131000  0.12850000  1.0 -0.528784417
O  O47  1  0.52223000  0.16354000  0.62850000  1.0 -0.528784417
O  O48  1  0.35869000  0.52223000  0.12850000  1.0 -0.528784417
O  O49  1  0.16354000  0.64131000  0.37150000  1.0 -0.528784417
O  O50  1  0.52223000  0.16354000  0.87150000  1.0 -0.528784417
O  O51  1  0.35869000  0.52223000  0.37150000  1.0 -0.528784417
O  O52  1  0.83646000  0.35869000  0.87150000  1.0 -0.528784417
O  O53  1  0.47777000  0.83646000  0.37150000  1.0 -0.528784417
O  O54  1  0.64131000  0.47777000  0.87150000  1.0 -0.528784417
O  O55  1  0.14299000  0.34168000  0.33830000  1.0 -0.497658642
O  O56  1  0.80131000  0.14299000  0.83830000  1.0 -0.497658642
O  O57  1  0.65832000  0.80131000  0.33830000  1.0 -0.497658642
O  O58  1  0.85701000  0.65832000  0.83830000  1.0 -0.497658642
O  O59  1  0.19869000  0.85701000  0.33830000  1.0 -0.497658642
O  O60  1  0.34168000  0.19869000  0.83830000  1.0 -0.497658642
O  O61  1  0.85701000  0.65832000  0.66170000  1.0 -0.497658642
O  O62  1  0.19869000  0.85701000  0.16170000  1.0 -0.497658642
O  O63  1  0.34168000  0.19869000  0.66170000  1.0 -0.497658642
O  O64  1  0.14299000  0.34168000  0.16170000  1.0 -0.497658642
O  O65  1  0.80131000  0.14299000  0.66170000  1.0 -0.497658642
O  O66  1  0.65832000  0.80131000  0.16170000  1.0 -0.497658642
O  O67  1  0.92680000  0.47510000  0.77700000  1.0 0.0370672345
O  O68  1  0.45170000  0.92680000  0.27700000  1.0 0.0370672345
O  O69  1  0.52490000  0.45170000  0.77700000  1.0 0.0370672345
O  O70  1  0.07320000  0.52490000  0.27700000  1.0 0.0370672345
O  O71  1  0.54830000  0.07320000  0.77700000  1.0 0.0370672345
O  O72  1  0.47510000  0.54830000  0.27700000  1.0 0.0370672345
O  O73  1  0.07320000  0.52490000  0.22300000  1.0 0.0370672345
O  O74  1  0.54830000  0.07320000  0.72300000  1.0 0.0370672345
O  O75  1  0.47510000  0.54830000  0.22300000  1.0 0.0370672345
O  O76  1  0.92680000  0.47510000  0.72300000  1.0 0.0370672345
O  O77  1  0.45170000  0.92680000  0.22300000  1.0 0.0370672345
O  O78  1  0.52490000  0.45170000  0.72300000  1.0 0.0370672345
O  O79  1  0.89680000  0.47360000  0.76800000  1.0 0.0498482481
O  O80  1  0.42320000  0.89680000  0.26800000  1.0 0.0498482481
O  O81  1  0.52640000  0.42320000  0.76800000  1.0 0.0498482481
O  O82  1  0.10320000  0.52640000  0.26800000  1.0 0.0498482481
O  O83  1  0.57680000  0.10320000  0.76800000  1.0 0.0498482481
O  O84  1  0.47360000  0.57680000  0.26800000  1.0 0.0498482481
O  O85  1  0.10320000  0.52640000  0.23200000  1.0 0.0498482481
O  O86  1  0.57680000  0.10320000  0.73200000  1.0 0.0498482481
O  O87  1  0.47360000  0.57680000  0.23200000  1.0 0.0498482481
O  O88  1  0.89680000  0.47360000  0.73200000  1.0 0.0498482481
O  O89  1  0.42320000  0.89680000  0.23200000  1.0 0.0498482481
O  O90  1  0.52640000  0.42320000  0.73200000  1.0 0.0498482481
