# DDEC6 charges by PACMAN v1.1 (https://github.com/mtap-research/PACMAN-charge/)
data_JUSKAL_ASR_pacman
_symmetry_space_group_name_H-M   'P 1'
_cell_length_a   9.03620000
_cell_length_b   17.48400000
_cell_length_c   24.77200000
_cell_angle_alpha   69.71700000
_cell_angle_beta   84.87300000
_cell_angle_gamma   82.90400000
_symmetry_Int_Tables_number   1
_chemical_formula_structural   BaH24(C17O6)2
_chemical_formula_sum   'Ba4 H96 C136 O48'
_cell_volume   3638.34567144
_cell_formula_units_Z   4
loop_
 _symmetry_equiv_pos_site_id
 _symmetry_equiv_pos_as_xyz
  1  'x, y, z'
loop_
 _atom_site_type_symbol
 _atom_site_label
 _atom_site_symmetry_multiplicity
 _atom_site_fract_x
 _atom_site_fract_y
 _atom_site_fract_z
 _atom_site_occupancy
 _atom_site_charge
Ba  Ba1  1  0.74853000  0.81612000  0.68982000  1.0 1.4375592065
Ba  Ba2  1  0.25147000  0.18388000  0.31018000  1.0 1.4375592065
Ba  Ba3  1  0.24832000  0.73573000  0.76987000  1.0 1.4375592065
Ba  Ba4  1  0.75168000  0.26427000  0.23013000  1.0 1.4375592065
H  H1  1  0.68010000  0.99680000  0.73630000  1.0 0.3617652051
H  H2  1  0.31990000  0.00320000  0.26370000  1.0 0.3617652051
H  H3  1  0.08830000  0.86500000  0.91430000  1.0 0.3381654513
H  H4  1  0.91170000  0.13500000  0.08570000  1.0 0.3381654513
H  H5  1  0.31600000  0.52320000  0.75770000  1.0 0.3617652051
H  H6  1  0.68400000  0.47680000  0.24230000  1.0 0.3617652051
H  H7  1  0.85040000  0.91680000  0.93290000  1.0 0.1205089142
H  H8  1  0.14960000  0.08320000  0.06710000  1.0 0.1205089142
H  H9  1  0.28320000  0.92220000  0.70120000  1.0 0.1289314617
H  H10  1  0.71680000  0.07780000  0.29880000  1.0 0.1289314617
H  H11  1  0.56080000  0.61930000  0.59090000  1.0 0.1205089142
H  H12  1  0.43920000  0.38070000  0.40910000  1.0 0.1205089142
H  H13  1  0.14520000  0.58870000  0.56260000  1.0 0.1289314617
H  H14  1  0.85480000  0.41130000  0.43740000  1.0 0.1289314617
H  H15  1  0.21460000  0.74620000  0.64210000  1.0 0.1289314617
H  H16  1  0.78540000  0.25380000  0.35790000  1.0 0.1289314617
H  H17  1  0.43590000  0.89310000  0.90150000  1.0 0.1205089142
H  H18  1  0.56410000  0.10690000  0.09850000  1.0 0.1205089142
H  H19  1  0.71780000  0.61950000  0.76930000  1.0 0.1289314617
H  H20  1  0.28220000  0.38050000  0.23070000  1.0 0.1289314617
H  H21  1  0.78190000  0.79950000  0.82500000  1.0 0.1289314617
H  H22  1  0.21810000  0.20050000  0.17500000  1.0 0.1289314617
H  H23  1  0.93520000  0.06490000  0.73790000  1.0 0.1205089142
H  H24  1  0.06480000  0.93510000  0.26210000  1.0 0.1205089142
H  H25  1  0.35030000  0.11930000  0.74070000  1.0 0.1289314617
H  H26  1  0.64970000  0.88070000  0.25930000  1.0 0.1289314617
H  H27  1  0.06210000  0.45760000  0.75750000  1.0 0.1205089142
H  H28  1  0.93790000  0.54240000  0.24250000  1.0 0.1205089142
H  H29  1  0.36120000  0.44570000  0.64010000  1.0 0.1289314617
H  H30  1  0.63880000  0.55430000  0.35990000  1.0 0.1289314617
H  H31  1  0.10140000  0.19470000  0.63810000  1.0 0.1205089142
H  H32  1  0.89860000  0.80530000  0.36190000  1.0 0.1205089142
H  H33  1  0.60660000  0.29620000  0.52870000  1.0 0.1205089142
H  H34  1  0.39340000  0.70380000  0.47130000  1.0 0.1205089142
H  H35  1  0.36410000  0.93560000  0.13980000  1.0 0.1289314617
H  H36  1  0.63590000  0.06440000  0.86020000  1.0 0.1289314617
H  H37  1  0.60090000  0.15970000  0.57420000  1.0 0.1205089142
H  H38  1  0.39910000  0.84030000  0.42580000  1.0 0.1205089142
H  H39  1  0.67150000  0.10830000  0.63310000  1.0 0.1289314617
H  H40  1  0.32850000  0.89170000  0.36690000  1.0 0.1289314617
H  H41  1  0.73510000  0.19030000  0.59430000  1.0 0.1205089142
H  H42  1  0.26490000  0.80970000  0.40570000  1.0 0.1205089142
H  H43  1  0.13320000  0.08010000  0.85100000  1.0 0.1289314617
H  H44  1  0.86680000  0.91990000  0.14900000  1.0 0.1289314617
H  H45  1  0.64560000  0.39800000  0.76500000  1.0 0.1289314617
H  H46  1  0.35440000  0.60200000  0.23500000  1.0 0.1289314617
H  H47  1  0.59660000  0.79700000  0.02140000  1.0 0.1205089142
H  H48  1  0.40340000  0.20300000  0.97860000  1.0 0.1205089142
H  H49  1  0.23570000  0.35590000  0.71790000  1.0 0.1108688269
H  H50  1  0.76430000  0.64410000  0.28210000  1.0 0.1108688269
H  H51  1  0.39260000  0.36790000  0.73450000  1.0 0.1205089142
H  H52  1  0.60740000  0.63210000  0.26550000  1.0 0.1205089142
H  H53  1  0.31420000  0.28950000  0.77050000  1.0 0.1289314617
H  H54  1  0.68580000  0.71050000  0.22950000  1.0 0.1289314617
H  H55  1  0.10120000  0.98090000  0.93540000  1.0 0.1108688269
H  H56  1  0.89880000  0.01910000  0.06460000  1.0 0.1108688269
H  H57  1  0.17590000  0.96380000  0.99370000  1.0 0.1289314617
H  H58  1  0.82410000  0.03620000  0.00630000  1.0 0.1289314617
H  H59  1  0.26070000  0.00760000  0.93510000  1.0 0.1205089142
H  H60  1  0.73930000  0.99240000  0.06490000  1.0 0.1205089142
H  H61  1  0.86220000  0.43880000  0.65120000  1.0 0.1289314617
H  H62  1  0.13780000  0.56120000  0.34880000  1.0 0.1289314617
H  H63  1  0.80300000  0.54760000  0.50720000  1.0 0.1289314617
H  H64  1  0.19700000  0.45240000  0.49280000  1.0 0.1289314617
H  H65  1  0.89220000  0.53860000  0.56080000  1.0 0.1205089142
H  H66  1  0.10780000  0.46140000  0.43920000  1.0 0.1205089142
H  H67  1  0.73500000  0.50560000  0.56960000  1.0 0.1108688269
H  H68  1  0.26500000  0.49440000  0.43040000  1.0 0.1108688269
H  H69  1  0.23700000  0.84620000  0.21330000  1.0 0.1108688269
H  H70  1  0.76300000  0.15380000  0.78670000  1.0 0.1108688269
H  H71  1  0.39410000  0.84950000  0.23420000  1.0 0.1205089142
H  H72  1  0.60590000  0.15050000  0.76580000  1.0 0.1205089142
H  H73  1  0.30450000  0.77360000  0.26540000  1.0 0.1289314617
H  H74  1  0.69550000  0.22640000  0.73460000  1.0 0.1289314617
H  H75  1  0.89720000  0.32330000  0.86620000  1.0 0.1205089142
H  H76  1  0.10280000  0.67670000  0.13380000  1.0 0.1289314617
H  H77  1  0.15990000  0.24740000  0.49190000  1.0 0.1289314617
H  H78  1  0.84010000  0.75260000  0.50810000  1.0 0.1289314617
H  H79  1  0.08500000  0.18780000  0.54760000  1.0 0.1205089142
H  H80  1  0.91500000  0.81220000  0.45240000  1.0 0.1205089142
H  H81  1  0.22110000  0.23220000  0.55240000  1.0 0.1205089142
H  H82  1  0.77890000  0.76780000  0.44760000  1.0 0.1205089142
H  H83  1  0.58380000  0.65680000  0.06280000  1.0 0.1205089142
H  H84  1  0.41620000  0.34320000  0.93720000  1.0 0.1205089142
H  H85  1  0.65240000  0.60330000  0.12160000  1.0 0.1289314617
H  H86  1  0.34760000  0.39670000  0.87840000  1.0 0.1289314617
H  H87  1  0.71810000  0.68540000  0.08440000  1.0 0.1205089142
H  H88  1  0.28190000  0.31460000  0.91560000  1.0 0.1205089142
H  H89  1  0.81460000  0.65990000  0.61730000  1.0 0.3617652051
H  H90  1  0.18540000  0.34010000  0.38270000  1.0 0.3617652051
H  H91  1  0.76550000  0.26740000  0.96160000  1.0 0.1289314617
H  H92  1  0.23450000  0.73260000  0.03840000  1.0 0.1289314617
H  H93  1  0.89230000  0.32290000  0.95780000  1.0 0.1289314617
H  H94  1  0.10770000  0.67710000  0.04220000  1.0 0.1289314617
H  H95  1  0.84640000  0.25860000  0.01720000  1.0 0.1289314617
H  H96  1  0.15360000  0.74140000  0.98280000  1.0 0.1289314617
C  C1  1  0.50700000  0.72650000  0.64650000  1.0 0.5795943481
C  C2  1  0.49300000  0.27350000  0.35350000  1.0 0.5795943481
C  C3  1  0.36300000  0.59670000  0.56990000  1.0 0.0807589148
C  C4  1  0.63700000  0.40330000  0.43010000  1.0 0.0807589148
C  C5  1  0.45580000  0.45980000  0.55870000  1.0 0.0241186865
C  C6  1  0.54420000  0.54020000  0.44130000  1.0 0.0241186865
C  C7  1  0.63430000  0.91290000  0.92300000  1.0 0.0872165975
C  C8  1  0.36570000  0.08710000  0.07700000  1.0 0.0872165975
C  C9  1  0.40500000  0.68730000  0.62110000  1.0 -0.0178974745
C  C10  1  0.59500000  0.31270000  0.37890000  1.0 -0.0178974745
C  C11  1  0.48720000  0.81300000  0.82580000  1.0 0.5608034265
C  C12  1  0.51280000  0.18700000  0.17420000  1.0 0.5608034265
C  C13  1  0.78540000  0.89810000  0.91430000  1.0 -0.1822793442
C  C14  1  0.21460000  0.10190000  0.08570000  1.0 -0.1822793442
C  C15  1  0.24500000  0.96620000  0.71280000  1.0 -0.1405446835
C  C16  1  0.75500000  0.03380000  0.28720000  1.0 -0.1405446835
C  C17  1  0.45830000  0.63280000  0.59380000  1.0 -0.1601792582
C  C18  1  0.54170000  0.36720000  0.40620000  1.0 -0.1601792582
C  C19  1  0.02280000  0.25010000  0.69700000  1.0 0.0363602705
C  C20  1  0.97720000  0.74990000  0.30300000  1.0 0.029106918
C  C21  1  0.21040000  0.61420000  0.57630000  1.0 -0.1503663703
C  C22  1  0.78960000  0.38580000  0.42370000  1.0 -0.1503663703
C  C23  1  0.59130000  0.84170000  0.85800000  1.0 -0.0053017412
C  C24  1  0.40870000  0.15830000  0.14200000  1.0 -0.0053017412
C  C25  1  0.13420000  0.10420000  0.74080000  1.0 0.0807589148
C  C26  1  0.86580000  0.89580000  0.25920000  1.0 0.0807589148
C  C27  1  0.52550000  0.91300000  0.02040000  1.0 0.0363602705
C  C28  1  0.47450000  0.08700000  0.97960000  1.0 0.029106918
C  C29  1  0.42970000  0.54640000  0.53440000  1.0 -0.0308399259
C  C30  1  0.57030000  0.45360000  0.46560000  1.0 -0.0308399259
C  C31  1  0.25210000  0.70760000  0.62510000  1.0 -0.1503663703
C  C32  1  0.74790000  0.29240000  0.37490000  1.0 -0.1503663703
C  C33  1  0.95250000  0.32530000  0.70130000  1.0 0.029106918
C  C34  1  0.04750000  0.67470000  0.29870000  1.0 0.029106918
C  C35  1  0.09080000  0.98170000  0.72160000  1.0 -0.0178974745
C  C36  1  0.90920000  0.01830000  0.27840000  1.0 -0.0178974745
C  C37  1  0.53840000  0.88390000  0.89500000  1.0 -0.1503663703
C  C38  1  0.46160000  0.11610000  0.10500000  1.0 -0.1503663703
C  C39  1  0.54380000  0.04400000  0.94170000  1.0 0.029106918
C  C40  1  0.45620000  0.95600000  0.05830000  1.0 0.029106918
C  C41  1  0.52760000  0.41510000  0.52380000  1.0 0.0363602705
C  C42  1  0.47240000  0.58490000  0.47620000  1.0 0.0363602705
C  C43  1  0.98880000  0.92510000  0.71390000  1.0 0.572414
C  C44  1  0.01120000  0.07490000  0.28610000  1.0 0.572414
C  C45  1  0.56850000  0.95840000  0.96330000  1.0 -0.0308399259
C  C46  1  0.43150000  0.04160000  0.03670000  1.0 -0.0308399259
C  C47  1  0.06810000  0.18400000  0.74750000  1.0 -0.0308399259
C  C48  1  0.93190000  0.81600000  0.25250000  1.0 -0.0308399259
C  C49  1  0.75470000  0.56890000  0.76640000  1.0 -0.1184021268
C  C50  1  0.24530000  0.43110000  0.23360000  1.0 -0.1184021268
C  C51  1  0.04140000  0.19370000  0.80150000  1.0 0.029106918
C  C52  1  0.95860000  0.80630000  0.19850000  1.0 0.029106918
C  C53  1  0.74420000  0.82770000  0.84970000  1.0 -0.1184021268
C  C54  1  0.25580000  0.17230000  0.15030000  1.0 -0.1184021268
C  C55  1  0.03770000  0.05210000  0.73400000  1.0 -0.1503663703
C  C56  1  0.96230000  0.94790000  0.26600000  1.0 -0.1503663703
C  C57  1  0.90620000  0.54970000  0.76200000  1.0 -0.0178974745
C  C58  1  0.09380000  0.45030000  0.23800000  1.0 -0.0178974745
C  C59  1  0.28530000  0.08560000  0.73530000  1.0 -0.1405446835
C  C60  1  0.71470000  0.91440000  0.26470000  1.0 -0.1405446835
C  C61  1  0.97210000  0.26870000  0.80610000  1.0 0.0363602705
C  C62  1  0.02790000  0.73130000  0.19390000  1.0 0.0363602705
C  C63  1  0.86150000  0.41540000  0.76060000  1.0 0.0807589148
C  C64  1  0.13850000  0.58460000  0.23940000  1.0 0.0807589148
C  C65  1  0.92810000  0.33430000  0.75610000  1.0 -0.0308399259
C  C66  1  0.07190000  0.66570000  0.24390000  1.0 -0.0308399259
C  C67  1  0.95960000  0.47190000  0.75970000  1.0 -0.1601792582
C  C68  1  0.04040000  0.52810000  0.24030000  1.0 -0.1601792582
C  C69  1  0.15450000  0.67070000  0.60380000  1.0 -0.0178974745
C  C70  1  0.84550000  0.32930000  0.39620000  1.0 -0.0178974745
C  C71  1  0.93240000  0.38010000  0.59740000  1.0 0.1594672291
C  C72  1  0.06760000  0.61990000  0.40260000  1.0 0.1594672291
C  C73  1  0.41050000  0.41670000  0.61750000  1.0 -0.2891636785
C  C74  1  0.58950000  0.58330000  0.38250000  1.0 -0.2891636785
C  C75  1  0.00560000  0.30550000  0.59310000  1.0 0.1594672291
C  C76  1  0.99440000  0.69450000  0.40690000  1.0 0.1594672291
C  C77  1  0.43490000  0.82620000  0.13500000  1.0 0.1519957525
C  C78  1  0.56510000  0.17380000  0.86500000  1.0 0.1519957525
C  C79  1  0.43880000  0.33440000  0.64020000  1.0 0.1594672291
C  C80  1  0.56120000  0.66560000  0.35980000  1.0 0.1594672291
C  C81  1  0.05120000  0.24270000  0.64160000  1.0 -0.2891636785
C  C82  1  0.94880000  0.75730000  0.35840000  1.0 -0.2891636785
C  C83  1  0.55800000  0.32680000  0.55030000  1.0 -0.2992299605
C  C84  1  0.44200000  0.67320000  0.44970000  1.0 -0.2992299605
C  C85  1  0.41110000  0.90900000  0.11530000  1.0 -0.2815704503
C  C86  1  0.58890000  0.09100000  0.88470000  1.0 -0.2815704503
C  C87  1  0.64600000  0.16270000  0.60700000  1.0 -0.2226534643
C  C88  1  0.35400000  0.83730000  0.39300000  1.0 -0.2226534643
C  C89  1  0.08590000  0.12910000  0.85370000  1.0 -0.2891636785
C  C90  1  0.91410000  0.87090000  0.14630000  1.0 -0.2891636785
C  C91  1  0.71120000  0.43550000  0.76420000  1.0 -0.1503663703
C  C92  1  0.28880000  0.56450000  0.23580000  1.0 -0.1503663703
C  C93  1  0.54980000  0.82590000  0.04450000  1.0 -0.2815704503
C  C94  1  0.45020000  0.17410000  0.95550000  1.0 -0.2815704503
C  C95  1  0.50380000  0.99170000  0.71390000  1.0 0.5608034265
C  C96  1  0.49620000  0.00830000  0.28610000  1.0 0.5608034265
C  C97  1  0.33000000  0.32840000  0.73260000  1.0 -0.2226534643
C  C98  1  0.67000000  0.67160000  0.26740000  1.0 -0.2226534643
C  C99  1  0.34160000  0.01680000  0.72160000  1.0 -0.0178974745
C  C100  1  0.65840000  0.98320000  0.27840000  1.0 -0.0178974745
C  C101  1  0.99000000  0.21020000  0.91120000  1.0 0.1594672291
C  C102  1  0.01000000  0.78980000  0.08880000  1.0 0.1594672291
C  C103  1  0.06220000  0.13640000  0.90590000  1.0 0.1594672291
C  C104  1  0.93780000  0.86360000  0.09410000  1.0 0.1594672291
C  C105  1  0.65510000  0.51370000  0.76670000  1.0 -0.0308399259
C  C106  1  0.34490000  0.48630000  0.23330000  1.0 -0.0308399259
C  C107  1  0.16460000  0.00150000  0.95520000  1.0 -0.2277069229
C  C108  1  0.83540000  0.99850000  0.04480000  1.0 -0.2277069229
C  C109  1  0.50750000  0.78410000  0.09910000  1.0 0.1594672291
C  C110  1  0.49250000  0.21590000  0.90090000  1.0 0.1519957525
C  C111  1  0.90860000  0.38930000  0.64910000  1.0 -0.2815704503
C  C112  1  0.09140000  0.61070000  0.35090000  1.0 -0.2815704503
C  C113  1  0.84280000  0.85470000  0.87740000  1.0 -0.0562160905
C  C114  1  0.15720000  0.14530000  0.12260000  1.0 -0.0562160905
C  C115  1  0.00370000  0.83650000  0.86410000  1.0 0.5608034265
C  C116  1  0.99630000  0.16350000  0.13590000  1.0 0.5608034265
C  C117  1  0.82560000  0.51320000  0.54570000  1.0 -0.2226534643
C  C118  1  0.17440000  0.48680000  0.45430000  1.0 -0.2226534643
C  C119  1  0.32740000  0.81430000  0.22890000  1.0 -0.2277069229
C  C120  1  0.67260000  0.18570000  0.77110000  1.0 -0.2277069229
C  C121  1  0.94520000  0.27510000  0.86230000  1.0 -0.2891636785
C  C122  1  0.05480000  0.72490000  0.13770000  1.0 -0.2891636785
C  C123  1  0.51610000  0.28850000  0.60640000  1.0 0.1594672291
C  C124  1  0.48390000  0.71150000  0.39360000  1.0 0.1594672291
C  C125  1  0.49460000  0.54270000  0.76930000  1.0 0.5608034265
C  C126  1  0.50540000  0.45730000  0.23070000  1.0 0.5608034265
C  C127  1  0.13300000  0.23740000  0.53200000  1.0 -0.2226534643
C  C128  1  0.86700000  0.76260000  0.46800000  1.0 -0.2226534643
C  C129  1  0.62900000  0.65820000  0.09610000  1.0 -0.2277069229
C  C130  1  0.37100000  0.34180000  0.90390000  1.0 -0.2226534643
C  C131  1  0.01040000  0.61220000  0.75860000  1.0 0.5795943481
C  C132  1  0.98960000  0.38780000  0.24140000  1.0 0.5795943481
C  C133  1  0.99240000  0.69680000  0.61190000  1.0 0.5608034265
C  C134  1  0.00760000  0.30320000  0.38810000  1.0 0.5608034265
C  C135  1  0.85900000  0.26950000  0.97640000  1.0 -0.2140791598
C  C136  1  0.14100000  0.73050000  0.02360000  1.0 -0.2140791598
O  O1  1  0.54310000  0.78310000  0.78870000  1.0 -0.63015921
O  O2  1  0.45690000  0.21690000  0.21130000  1.0 -0.63015921
O  O3  1  0.64570000  0.71100000  0.64020000  1.0 -0.6076854475
O  O4  1  0.35430000  0.28900000  0.35980000  1.0 -0.6076854475
O  O5  1  0.35100000  0.81830000  0.83900000  1.0 -0.5811096537
O  O6  1  0.64900000  0.18170000  0.16100000  1.0 -0.5811096537
O  O7  1  0.45070000  0.77260000  0.67300000  1.0 -0.6076854475
O  O8  1  0.54930000  0.22740000  0.32700000  1.0 -0.6076854475
O  O9  1  0.59510000  0.01760000  0.74010000  1.0 -0.4567715558
O  O10  1  0.40490000  0.98240000  0.25990000  1.0 -0.4567715558
O  O11  1  0.09850000  0.87440000  0.87950000  1.0 -0.4306336749
O  O12  1  0.90150000  0.12560000  0.12050000  1.0 -0.4306336749
O  O13  1  0.85100000  0.94270000  0.71770000  1.0 -0.6006997037
O  O14  1  0.14900000  0.05730000  0.28230000  1.0 -0.6006997037
O  O15  1  0.39660000  0.77500000  0.19020000  1.0 -0.1601792582
O  O16  1  0.60340000  0.22500000  0.80980000  1.0 -0.1601792582
O  O17  1  0.45470000  0.60590000  0.77880000  1.0 -0.5476413775
O  O18  1  0.54530000  0.39410000  0.22120000  1.0 -0.5476413775
O  O19  1  0.52760000  0.70120000  0.12480000  1.0 -0.1503663703
O  O20  1  0.47240000  0.29880000  0.87520000  1.0 -0.1503663703
O  O21  1  0.54510000  0.95090000  0.68330000  1.0 -0.5476413775
O  O22  1  0.45490000  0.04910000  0.31670000  1.0 -0.5476413775
O  O23  1  0.09990000  0.07840000  0.95700000  1.0 -0.1405446835
O  O24  1  0.90010000  0.92160000  0.04300000  1.0 -0.1405446835
O  O25  1  0.89360000  0.43700000  0.54520000  1.0 -0.1405446835
O  O26  1  0.10640000  0.56300000  0.45480000  1.0 -0.1405446835
O  O27  1  0.39990000  0.49850000  0.76000000  1.0 -0.4567715558
O  O28  1  0.60010000  0.50150000  0.24000000  1.0 -0.4567715558
O  O29  1  0.40020000  0.28720000  0.69570000  1.0 -0.1405446835
O  O30  1  0.59980000  0.71280000  0.30430000  1.0 -0.1405446835
O  O31  1  0.54480000  0.20660000  0.63520000  1.0 -0.1405446835
O  O32  1  0.45520000  0.79340000  0.36480000  1.0 -0.1405446835
O  O33  1  0.96320000  0.21160000  0.96570000  1.0 -0.1326888758
O  O34  1  0.03680000  0.78840000  0.03430000  1.0 -0.1326888758
O  O35  1  0.03360000  0.30380000  0.53790000  1.0 -0.1503663703
O  O36  1  0.96640000  0.69620000  0.46210000  1.0 -0.1503663703
O  O37  1  0.04520000  0.86340000  0.70260000  1.0 -0.6076854475
O  O38  1  0.95480000  0.13660000  0.29740000  1.0 -0.6076854475
O  O39  1  0.95370000  0.68450000  0.75390000  1.0 -0.6461173404
O  O40  1  0.04630000  0.31550000  0.24610000  1.0 -0.6461173404
O  O41  1  0.90110000  0.64250000  0.61190000  1.0 -0.4700449366
O  O42  1  0.09890000  0.35750000  0.38810000  1.0 -0.4700449366
O  O43  1  0.95030000  0.76140000  0.61780000  1.0 -0.5087901759
O  O44  1  0.04970000  0.23860000  0.38220000  1.0 -0.5087901759
O  O45  1  0.14640000  0.59110000  0.76210000  1.0 -0.6006997037
O  O46  1  0.85360000  0.40890000  0.23790000  1.0 -0.6006997037
O  O47  1  0.04290000  0.79030000  0.83860000  1.0 -0.5033996213
O  O48  1  0.95710000  0.20970000  0.16140000  1.0 -0.5033996213
