# DDEC6 charges by PACMAN v1.1 (https://github.com/mtap-research/PACMAN-charge/)
data_JUTCUW_ASR_pacman
_symmetry_space_group_name_H-M   'P 1'
_cell_length_a   8.93640000
_cell_length_b   8.93640000
_cell_length_c   8.93640000
_cell_angle_alpha   60.00000000
_cell_angle_beta   60.00000000
_cell_angle_gamma   60.00000000
_symmetry_Int_Tables_number   1
_chemical_formula_structural   Cd(CN)2
_chemical_formula_sum   'Cd2 C4 N4'
_cell_volume   504.62969360
_cell_formula_units_Z   2
loop_
 _symmetry_equiv_pos_site_id
 _symmetry_equiv_pos_as_xyz
  1  'x, y, z'
loop_
 _atom_site_type_symbol
 _atom_site_label
 _atom_site_symmetry_multiplicity
 _atom_site_fract_x
 _atom_site_fract_y
 _atom_site_fract_z
 _atom_site_occupancy
 _atom_site_charge
Cd  Cd1  1  0.87500000  0.37500000  0.37500000  1.0 0.7691074096
Cd  Cd2  1  0.12500000  0.62500000  0.62500000  1.0 0.7808096491
C  C1  1  0.58100000  0.47300000  0.47300000  1.0 0.0678657785
C  C2  1  0.97300000  0.08100000  0.47300000  1.0 0.0678657785
C  C3  1  0.02700000  0.52700000  0.91900000  1.0 0.0434283175
C  C4  1  0.02700000  0.52700000  0.52700000  1.0 0.0434283175
N  N1  1  0.97300000  0.47300000  0.08100000  1.0 -0.4439845599
N  N2  1  0.97300000  0.47300000  0.47300000  1.0 -0.4333508529
N  N3  1  0.02700000  0.91900000  0.52700000  1.0 -0.4475849189
N  N4  1  0.41900000  0.52700000  0.52700000  1.0 -0.4475849189
