# DDEC6 charges by PACMAN v1.1 (https://github.com/mtap-research/PACMAN-charge/)
data_JUTCOS_FSR_pacman
_symmetry_space_group_name_H-M   'P 1'
_cell_length_a   20.27300000
_cell_length_b   22.11500000
_cell_length_c   32.47000000
_cell_angle_alpha   90.00000000
_cell_angle_beta   90.00000000
_cell_angle_gamma   90.00000000
_symmetry_Int_Tables_number   1
_chemical_formula_structural   Cu9H44C84N14O67
_chemical_formula_sum   'Cu36 H176 C336 N56 O268'
_cell_volume   14557.51521565
_cell_formula_units_Z   4
loop_
 _symmetry_equiv_pos_site_id
 _symmetry_equiv_pos_as_xyz
  1  'x, y, z'
loop_
 _atom_site_type_symbol
 _atom_site_label
 _atom_site_symmetry_multiplicity
 _atom_site_fract_x
 _atom_site_fract_y
 _atom_site_fract_z
 _atom_site_occupancy
 _atom_site_charge
Cu  Cu1  1  0.72297000  0.85432000  0.96242000  1.0 0.9283884
Cu  Cu2  1  0.72297000  0.14568000  0.53758000  1.0 0.9283884
Cu  Cu3  1  0.77703000  0.35432000  0.53758000  1.0 0.9283884
Cu  Cu4  1  0.77703000  0.64568000  0.96242000  1.0 0.9283884
Cu  Cu5  1  0.27703000  0.14568000  0.03758000  1.0 0.9283884
Cu  Cu6  1  0.27703000  0.85432000  0.46242000  1.0 0.9283884
Cu  Cu7  1  0.22297000  0.64568000  0.46242000  1.0 0.9283884
Cu  Cu8  1  0.22297000  0.35432000  0.03758000  1.0 0.9283884
Cu  Cu9  1  0.58648000  0.92377000  0.96112000  1.0 0.9473339077
Cu  Cu10  1  0.58648000  0.07623000  0.53888000  1.0 0.9473339077
Cu  Cu11  1  0.91352000  0.42377000  0.53888000  1.0 0.9473339077
Cu  Cu12  1  0.91352000  0.57623000  0.96112000  1.0 0.9473339077
Cu  Cu13  1  0.41352000  0.07623000  0.03888000  1.0 0.9473339077
Cu  Cu14  1  0.41352000  0.92377000  0.46112000  1.0 0.9473339077
Cu  Cu15  1  0.08648000  0.57623000  0.46112000  1.0 0.9473339077
Cu  Cu16  1  0.08648000  0.42377000  0.03888000  1.0 0.9473339077
Cu  Cu17  1  0.61089000  0.81573000  0.01624000  1.0 0.9113566931
Cu  Cu18  1  0.61089000  0.18427000  0.48376000  1.0 0.9113566931
Cu  Cu19  1  0.88911000  0.31573000  0.48376000  1.0 0.9113566931
Cu  Cu20  1  0.88911000  0.68427000  0.01624000  1.0 0.9113566931
Cu  Cu21  1  0.38911000  0.18427000  0.98376000  1.0 0.9113566931
Cu  Cu22  1  0.38911000  0.81573000  0.51624000  1.0 0.9113566931
Cu  Cu23  1  0.11089000  0.68427000  0.51624000  1.0 0.9113566931
Cu  Cu24  1  0.11089000  0.31573000  0.98376000  1.0 0.9113566931
Cu  Cu25  1  0.75000000  0.75000000  0.02288000  1.0 0.8613037671
Cu  Cu26  1  0.75000000  0.25000000  0.47712000  1.0 0.8613037671
Cu  Cu27  1  0.25000000  0.25000000  0.97712000  1.0 0.8613037671
Cu  Cu28  1  0.25000000  0.75000000  0.52288000  1.0 0.8613037671
Cu  Cu29  1  0.44975000  0.98549000  0.96681000  1.0 0.9711242224
Cu  Cu30  1  0.44975000  0.01451000  0.53319000  1.0 0.9711242224
Cu  Cu31  1  0.05025000  0.48549000  0.53319000  1.0 0.9711242224
Cu  Cu32  1  0.05025000  0.51451000  0.96681000  1.0 0.9711242224
Cu  Cu33  1  0.55025000  0.01451000  0.03319000  1.0 0.9711242224
Cu  Cu34  1  0.55025000  0.98549000  0.46681000  1.0 0.9711242224
Cu  Cu35  1  0.94975000  0.51451000  0.46681000  1.0 0.9711242224
Cu  Cu36  1  0.94975000  0.48549000  0.03319000  1.0 0.9711242224
H  H1  1  0.38720000  0.94010000  0.84520000  1.0 0.1494247392
H  H2  1  0.38720000  0.05990000  0.65480000  1.0 0.1494247392
H  H3  1  0.11280000  0.44010000  0.65480000  1.0 0.1494247392
H  H4  1  0.11280000  0.55990000  0.84520000  1.0 0.1494247392
H  H5  1  0.61280000  0.05990000  0.15480000  1.0 0.1494247392
H  H6  1  0.61280000  0.94010000  0.34520000  1.0 0.1494247392
H  H7  1  0.88720000  0.55990000  0.34520000  1.0 0.1494247392
H  H8  1  0.88720000  0.44010000  0.15480000  1.0 0.1494247392
H  H9  1  0.57340000  0.88360000  0.83410000  1.0 0.1196735403
H  H10  1  0.57340000  0.11640000  0.66590000  1.0 0.1196735403
H  H11  1  0.92660000  0.38360000  0.66590000  1.0 0.1196735403
H  H12  1  0.92660000  0.61640000  0.83410000  1.0 0.1196735403
H  H13  1  0.42660000  0.11640000  0.16590000  1.0 0.1196735403
H  H14  1  0.42660000  0.88360000  0.33410000  1.0 0.1196735403
H  H15  1  0.07340000  0.61640000  0.33410000  1.0 0.1196735403
H  H16  1  0.07340000  0.38360000  0.16590000  1.0 0.1196735403
H  H17  1  0.46610000  0.95910000  0.70510000  1.0 0.1196735403
H  H18  1  0.46610000  0.04090000  0.79490000  1.0 0.1196735403
H  H19  1  0.03390000  0.45910000  0.79490000  1.0 0.1196735403
H  H20  1  0.03390000  0.54090000  0.70510000  1.0 0.1196735403
H  H21  1  0.53390000  0.04090000  0.29490000  1.0 0.1196735403
H  H22  1  0.53390000  0.95910000  0.20510000  1.0 0.1196735403
H  H23  1  0.96610000  0.54090000  0.20510000  1.0 0.1196735403
H  H24  1  0.96610000  0.45910000  0.29490000  1.0 0.1196735403
H  H25  1  0.44680000  0.95340000  0.63520000  1.0 0.1274274838
H  H26  1  0.44680000  0.04660000  0.86480000  1.0 0.1274274838
H  H27  1  0.05320000  0.45340000  0.86480000  1.0 0.1274274838
H  H28  1  0.05320000  0.54660000  0.63520000  1.0 0.1274274838
H  H29  1  0.55320000  0.04660000  0.36480000  1.0 0.1274274838
H  H30  1  0.55320000  0.95340000  0.13520000  1.0 0.1274274838
H  H31  1  0.94680000  0.54660000  0.13520000  1.0 0.1274274838
H  H32  1  0.94680000  0.45340000  0.36480000  1.0 0.1274274838
H  H33  1  0.41250000  0.77630000  0.64710000  1.0 0.1196735403
H  H34  1  0.41250000  0.22370000  0.85290000  1.0 0.1196735403
H  H35  1  0.08750000  0.27630000  0.85290000  1.0 0.1196735403
H  H36  1  0.08750000  0.72370000  0.64710000  1.0 0.1196735403
H  H37  1  0.58750000  0.22370000  0.35290000  1.0 0.1196735403
H  H38  1  0.58750000  0.77630000  0.14710000  1.0 0.1196735403
H  H39  1  0.91250000  0.72370000  0.14710000  1.0 0.1196735403
H  H40  1  0.91250000  0.27630000  0.35290000  1.0 0.1196735403
H  H41  1  0.83160000  0.87510000  0.81050000  1.0 0.1416929516
H  H42  1  0.83160000  0.12490000  0.68950000  1.0 0.1416929516
H  H43  1  0.66840000  0.37510000  0.68950000  1.0 0.1416929516
H  H44  1  0.66840000  0.62490000  0.81050000  1.0 0.1416929516
H  H45  1  0.16840000  0.12490000  0.18950000  1.0 0.1416929516
H  H46  1  0.16840000  0.87510000  0.31050000  1.0 0.1416929516
H  H47  1  0.33160000  0.62490000  0.31050000  1.0 0.1416929516
H  H48  1  0.33160000  0.37510000  0.18950000  1.0 0.1416929516
H  H49  1  0.82050000  0.93590000  0.75210000  1.0 0.1416929516
H  H50  1  0.82050000  0.06410000  0.74790000  1.0 0.1416929516
H  H51  1  0.67950000  0.43590000  0.74790000  1.0 0.1416929516
H  H52  1  0.67950000  0.56410000  0.75210000  1.0 0.1416929516
H  H53  1  0.17950000  0.06410000  0.24790000  1.0 0.1416929516
H  H54  1  0.17950000  0.93590000  0.25210000  1.0 0.1416929516
H  H55  1  0.32050000  0.56410000  0.25210000  1.0 0.1416929516
H  H56  1  0.32050000  0.43590000  0.24790000  1.0 0.1416929516
H  H57  1  0.67820000  0.96170000  0.86020000  1.0 0.1416929516
H  H58  1  0.67820000  0.03830000  0.63980000  1.0 0.1416929516
H  H59  1  0.82180000  0.46170000  0.63980000  1.0 0.1416929516
H  H60  1  0.82180000  0.53830000  0.86020000  1.0 0.1416929516
H  H61  1  0.32180000  0.03830000  0.13980000  1.0 0.1416929516
H  H62  1  0.32180000  0.96170000  0.36020000  1.0 0.1416929516
H  H63  1  0.17820000  0.53830000  0.36020000  1.0 0.1416929516
H  H64  1  0.17820000  0.46170000  0.13980000  1.0 0.1416929516
H  H65  1  0.38960000  0.85800000  0.93280000  1.0 0.1416929516
H  H66  1  0.38960000  0.14200000  0.56720000  1.0 0.1416929516
H  H67  1  0.11040000  0.35800000  0.56720000  1.0 0.1416929516
H  H68  1  0.11040000  0.64200000  0.93280000  1.0 0.1416929516
H  H69  1  0.61040000  0.14200000  0.06720000  1.0 0.1416929516
H  H70  1  0.61040000  0.85800000  0.43280000  1.0 0.1416929516
H  H71  1  0.88960000  0.64200000  0.43280000  1.0 0.1416929516
H  H72  1  0.88960000  0.35800000  0.06720000  1.0 0.1416929516
H  H73  1  0.30570000  0.71770000  0.02430000  1.0 0.1274274838
H  H74  1  0.30570000  0.28230000  0.47570000  1.0 0.1274274838
H  H75  1  0.19430000  0.21770000  0.47570000  1.0 0.1274274838
H  H76  1  0.19430000  0.78230000  0.02430000  1.0 0.1274274838
H  H77  1  0.69430000  0.28230000  0.97570000  1.0 0.1274274838
H  H78  1  0.69430000  0.71770000  0.52430000  1.0 0.1274274838
H  H79  1  0.80570000  0.78230000  0.52430000  1.0 0.1274274838
H  H80  1  0.80570000  0.21770000  0.97570000  1.0 0.1274274838
H  H81  1  0.41110000  0.75310000  0.03210000  1.0 0.1196735403
H  H82  1  0.41110000  0.24690000  0.46790000  1.0 0.1196735403
H  H83  1  0.08890000  0.25310000  0.46790000  1.0 0.1196735403
H  H84  1  0.08890000  0.74690000  0.03210000  1.0 0.1196735403
H  H85  1  0.58890000  0.24690000  0.96790000  1.0 0.1196735403
H  H86  1  0.58890000  0.75310000  0.53210000  1.0 0.1196735403
H  H87  1  0.91110000  0.74690000  0.53210000  1.0 0.1196735403
H  H88  1  0.91110000  0.25310000  0.96790000  1.0 0.1196735403
H  H89  1  0.92400000  0.90810000  0.95000000  1.0 0.1196735403
H  H90  1  0.92400000  0.09190000  0.55000000  1.0 0.1196735403
H  H91  1  0.57600000  0.40810000  0.55000000  1.0 0.1196735403
H  H92  1  0.57600000  0.59190000  0.95000000  1.0 0.1196735403
H  H93  1  0.07600000  0.09190000  0.05000000  1.0 0.1196735403
H  H94  1  0.07600000  0.90810000  0.45000000  1.0 0.1196735403
H  H95  1  0.42400000  0.59190000  0.45000000  1.0 0.1196735403
H  H96  1  0.42400000  0.40810000  0.05000000  1.0 0.1196735403
H  H97  1  0.02910000  0.94690000  0.95820000  1.0 0.1274274838
H  H98  1  0.02910000  0.05310000  0.54180000  1.0 0.1274274838
H  H99  1  0.47090000  0.44690000  0.54180000  1.0 0.1274274838
H  H100  1  0.47090000  0.55310000  0.95820000  1.0 0.1274274838
H  H101  1  0.97090000  0.05310000  0.04180000  1.0 0.1274274838
H  H102  1  0.97090000  0.94690000  0.45820000  1.0 0.1274274838
H  H103  1  0.52910000  0.55310000  0.45820000  1.0 0.1274274838
H  H104  1  0.52910000  0.44690000  0.04180000  1.0 0.1274274838
H  H105  1  0.94410000  0.81400000  0.05410000  1.0 0.1416929516
H  H106  1  0.94410000  0.18600000  0.44590000  1.0 0.1416929516
H  H107  1  0.55590000  0.31400000  0.44590000  1.0 0.1416929516
H  H108  1  0.55590000  0.68600000  0.05410000  1.0 0.1416929516
H  H109  1  0.05590000  0.18600000  0.94590000  1.0 0.1416929516
H  H110  1  0.05590000  0.81400000  0.55410000  1.0 0.1416929516
H  H111  1  0.44410000  0.68600000  0.55410000  1.0 0.1416929516
H  H112  1  0.44410000  0.31400000  0.94590000  1.0 0.1416929516
H  H113  1  0.14390000  0.88820000  0.95540000  1.0 0.1274274838
H  H114  1  0.14390000  0.11180000  0.54460000  1.0 0.1274274838
H  H115  1  0.35610000  0.38820000  0.54460000  1.0 0.1274274838
H  H116  1  0.35610000  0.61180000  0.95540000  1.0 0.1274274838
H  H117  1  0.85610000  0.11180000  0.04460000  1.0 0.1274274838
H  H118  1  0.85610000  0.88820000  0.45540000  1.0 0.1274274838
H  H119  1  0.64390000  0.61180000  0.45540000  1.0 0.1274274838
H  H120  1  0.64390000  0.38820000  0.04460000  1.0 0.1274274838
H  H121  1  0.24660000  0.92800000  0.94720000  1.0 0.1196735403
H  H122  1  0.24660000  0.07200000  0.55280000  1.0 0.1196735403
H  H123  1  0.25340000  0.42800000  0.55280000  1.0 0.1196735403
H  H124  1  0.25340000  0.57200000  0.94720000  1.0 0.1196735403
H  H125  1  0.75340000  0.07200000  0.05280000  1.0 0.1196735403
H  H126  1  0.75340000  0.92800000  0.44720000  1.0 0.1196735403
H  H127  1  0.74660000  0.57200000  0.44720000  1.0 0.1196735403
H  H128  1  0.74660000  0.42800000  0.05280000  1.0 0.1196735403
H  H129  1  0.22900000  0.01480000  0.05390000  1.0 0.1416929516
H  H130  1  0.22900000  0.98520000  0.44610000  1.0 0.1416929516
H  H131  1  0.27100000  0.51480000  0.44610000  1.0 0.1416929516
H  H132  1  0.27100000  0.48520000  0.05390000  1.0 0.1416929516
H  H133  1  0.77100000  0.98520000  0.94610000  1.0 0.1416929516
H  H134  1  0.77100000  0.01480000  0.55390000  1.0 0.1416929516
H  H135  1  0.72900000  0.48520000  0.55390000  1.0 0.1416929516
H  H136  1  0.72900000  0.51480000  0.94610000  1.0 0.1416929516
H  H137  1  0.56070000  0.03290000  0.95660000  1.0 0.4016585294
H  H138  1  0.56070000  0.96710000  0.54340000  1.0 0.4016585294
H  H139  1  0.93930000  0.53290000  0.54340000  1.0 0.4016585294
H  H140  1  0.93930000  0.46710000  0.95660000  1.0 0.4016585294
H  H141  1  0.43930000  0.96710000  0.04340000  1.0 0.4016585294
H  H142  1  0.43930000  0.03290000  0.45660000  1.0 0.4016585294
H  H143  1  0.06070000  0.46710000  0.45660000  1.0 0.4016585294
H  H144  1  0.06070000  0.53290000  0.04340000  1.0 0.4016585294
H  H145  1  0.61030000  0.81730000  0.93770000  1.0 0.411374662
H  H146  1  0.61030000  0.18270000  0.56230000  1.0 0.411374662
H  H147  1  0.88970000  0.31730000  0.56230000  1.0 0.411374662
H  H148  1  0.88970000  0.68270000  0.93770000  1.0 0.411374662
H  H149  1  0.38970000  0.18270000  0.06230000  1.0 0.411374662
H  H150  1  0.38970000  0.81730000  0.43770000  1.0 0.411374662
H  H151  1  0.11030000  0.68270000  0.43770000  1.0 0.411374662
H  H152  1  0.11030000  0.31730000  0.06230000  1.0 0.411374662
H  H153  1  0.72080000  0.85560000  0.03960000  1.0 0.3873161543
H  H154  1  0.72080000  0.14440000  0.46040000  1.0 0.3873161543
H  H155  1  0.77920000  0.35560000  0.46040000  1.0 0.3873161543
H  H156  1  0.77920000  0.64440000  0.03960000  1.0 0.3873161543
H  H157  1  0.27920000  0.14440000  0.96040000  1.0 0.3873161543
H  H158  1  0.27920000  0.85560000  0.53960000  1.0 0.3873161543
H  H159  1  0.22080000  0.64440000  0.53960000  1.0 0.3873161543
H  H160  1  0.22080000  0.35560000  0.96040000  1.0 0.3873161543
H  H161  1  0.71390000  0.73530000  0.10000000  1.0 0.1798524018
H  H162  1  0.71390000  0.26470000  0.40000000  1.0 0.1798524018
H  H163  1  0.78610000  0.23530000  0.40000000  1.0 0.1798524018
H  H164  1  0.78610000  0.76470000  0.10000000  1.0 0.1798524018
H  H165  1  0.28610000  0.26470000  0.90000000  1.0 0.1798524018
H  H166  1  0.28610000  0.73530000  0.60000000  1.0 0.1798524018
H  H167  1  0.21390000  0.76470000  0.60000000  1.0 0.1798524018
H  H168  1  0.21390000  0.23530000  0.90000000  1.0 0.1798524018
H  H169  1  0.75410000  0.78600000  0.10000000  1.0 0.1694701556
H  H170  1  0.75410000  0.21400000  0.40000000  1.0 0.1694701556
H  H171  1  0.74590000  0.28600000  0.40000000  1.0 0.1694701556
H  H172  1  0.74590000  0.71400000  0.10000000  1.0 0.1694701556
H  H173  1  0.24590000  0.21400000  0.90000000  1.0 0.1694701556
H  H174  1  0.24590000  0.78600000  0.60000000  1.0 0.1694701556
H  H175  1  0.25410000  0.71400000  0.60000000  1.0 0.1694701556
H  H176  1  0.25410000  0.28600000  0.90000000  1.0 0.1694701556
C  C1  1  0.46030000  0.88270000  0.76425000  1.0 -0.0471657757
C  C2  1  0.46030000  0.11730000  0.73575000  1.0 -0.0471657757
C  C3  1  0.03970000  0.38270000  0.73575000  1.0 -0.0471657757
C  C4  1  0.03970000  0.61730000  0.76425000  1.0 -0.0471657757
C  C5  1  0.53970000  0.11730000  0.23575000  1.0 -0.0417328905
C  C6  1  0.53970000  0.88270000  0.26425000  1.0 -0.0471657757
C  C7  1  0.96030000  0.61730000  0.26425000  1.0 -0.0471657757
C  C8  1  0.96030000  0.38270000  0.23575000  1.0 -0.0417328905
C  C9  1  0.40920000  0.90870000  0.78910000  1.0 0.0389042395
C  C10  1  0.40920000  0.09130000  0.71090000  1.0 0.0389042395
C  C11  1  0.09080000  0.40870000  0.71090000  1.0 0.0389042395
C  C12  1  0.09080000  0.59130000  0.78910000  1.0 0.0389042395
C  C13  1  0.59080000  0.09130000  0.21090000  1.0 0.0389042395
C  C14  1  0.59080000  0.90870000  0.28910000  1.0 0.0389042395
C  C15  1  0.90920000  0.59130000  0.28910000  1.0 0.0389042395
C  C16  1  0.90920000  0.40870000  0.21090000  1.0 0.0389042395
C  C17  1  0.52080000  0.87480000  0.78120000  1.0 -0.1197308228
C  C18  1  0.52080000  0.12520000  0.71880000  1.0 -0.1197308228
C  C19  1  0.97920000  0.37480000  0.71880000  1.0 -0.1197308228
C  C20  1  0.97920000  0.62520000  0.78120000  1.0 -0.1197308228
C  C21  1  0.47920000  0.12520000  0.21880000  1.0 -0.1197308228
C  C22  1  0.47920000  0.87480000  0.28120000  1.0 -0.1197308228
C  C23  1  0.02080000  0.62520000  0.28120000  1.0 -0.1197308228
C  C24  1  0.02080000  0.37480000  0.21880000  1.0 -0.1197308228
C  C25  1  0.42100000  0.92400000  0.82932000  1.0 -0.1316749715
C  C26  1  0.42100000  0.07600000  0.67068000  1.0 -0.1316749715
C  C27  1  0.07900000  0.42400000  0.67068000  1.0 -0.1316749715
C  C28  1  0.07900000  0.57600000  0.82932000  1.0 -0.1316749715
C  C29  1  0.57900000  0.07600000  0.17068000  1.0 -0.1316749715
C  C30  1  0.57900000  0.92400000  0.32932000  1.0 -0.1316749715
C  C31  1  0.92100000  0.57600000  0.32932000  1.0 -0.1316749715
C  C32  1  0.92100000  0.42400000  0.17068000  1.0 -0.1316749715
C  C33  1  0.48300000  0.91580000  0.84654000  1.0 0.0190734192
C  C34  1  0.48300000  0.08420000  0.65346000  1.0 0.0190734192
C  C35  1  0.01700000  0.41580000  0.65346000  1.0 0.0190734192
C  C36  1  0.01700000  0.58420000  0.84654000  1.0 0.0190734192
C  C37  1  0.51700000  0.08420000  0.15346000  1.0 0.0190734192
C  C38  1  0.51700000  0.91580000  0.34654000  1.0 0.0190734192
C  C39  1  0.98300000  0.58420000  0.34654000  1.0 0.0190734192
C  C40  1  0.98300000  0.41580000  0.15346000  1.0 0.0190734192
C  C41  1  0.49670000  0.93420000  0.88991000  1.0 0.5834026206
C  C42  1  0.49670000  0.06580000  0.61009000  1.0 0.5834026206
C  C43  1  0.00330000  0.43420000  0.61009000  1.0 0.5834026206
C  C44  1  0.00330000  0.56580000  0.88991000  1.0 0.5834026206
C  C45  1  0.50330000  0.06580000  0.11009000  1.0 0.5834026206
C  C46  1  0.50330000  0.93420000  0.38991000  1.0 0.5834026206
C  C47  1  0.99670000  0.56580000  0.38991000  1.0 0.5834026206
C  C48  1  0.99670000  0.43420000  0.11009000  1.0 0.5834026206
C  C49  1  0.53210000  0.89050000  0.82258000  1.0 -0.138770476
C  C50  1  0.53210000  0.10950000  0.67742000  1.0 -0.138770476
C  C51  1  0.96790000  0.39050000  0.67742000  1.0 -0.138770476
C  C52  1  0.96790000  0.60950000  0.82258000  1.0 -0.138770476
C  C53  1  0.46790000  0.10950000  0.17742000  1.0 -0.138770476
C  C54  1  0.46790000  0.89050000  0.32258000  1.0 -0.138770476
C  C55  1  0.03210000  0.60950000  0.32258000  1.0 -0.138770476
C  C56  1  0.03210000  0.39050000  0.17742000  1.0 -0.138770476
C  C57  1  0.43180000  0.81950000  0.70100000  1.0 -0.080661727
C  C58  1  0.43180000  0.18050000  0.79900000  1.0 -0.080661727
C  C59  1  0.06820000  0.31950000  0.79900000  1.0 -0.080661727
C  C60  1  0.06820000  0.68050000  0.70100000  1.0 -0.0884008303
C  C61  1  0.56820000  0.18050000  0.29900000  1.0 -0.0884008303
C  C62  1  0.56820000  0.81950000  0.20100000  1.0 -0.0884008303
C  C63  1  0.93180000  0.68050000  0.20100000  1.0 -0.0884008303
C  C64  1  0.93180000  0.31950000  0.29900000  1.0 -0.0884008303
C  C65  1  0.44760000  0.87260000  0.71891000  1.0 0.0318553072
C  C66  1  0.44760000  0.12740000  0.78109000  1.0 0.0318553072
C  C67  1  0.05240000  0.37260000  0.78109000  1.0 0.0318553072
C  C68  1  0.05240000  0.62740000  0.71891000  1.0 0.0318553072
C  C69  1  0.55240000  0.12740000  0.28109000  1.0 0.0318553072
C  C70  1  0.55240000  0.87260000  0.21891000  1.0 0.0318553072
C  C71  1  0.94760000  0.62740000  0.21891000  1.0 0.0318553072
C  C72  1  0.94760000  0.37260000  0.28109000  1.0 0.0318553072
C  C73  1  0.45420000  0.92220000  0.69360000  1.0 -0.147550351
C  C74  1  0.45420000  0.07780000  0.80640000  1.0 -0.147550351
C  C75  1  0.04580000  0.42220000  0.80640000  1.0 -0.147550351
C  C76  1  0.04580000  0.57780000  0.69360000  1.0 -0.147550351
C  C77  1  0.54580000  0.07780000  0.30640000  1.0 -0.147550351
C  C78  1  0.54580000  0.92220000  0.19360000  1.0 -0.147550351
C  C79  1  0.95420000  0.57780000  0.19360000  1.0 -0.147550351
C  C80  1  0.95420000  0.42220000  0.30640000  1.0 -0.147550351
C  C81  1  0.44350000  0.91890000  0.65141000  1.0 -0.0884008303
C  C82  1  0.44350000  0.08110000  0.84859000  1.0 -0.0884008303
C  C83  1  0.05650000  0.41890000  0.84859000  1.0 -0.0884008303
C  C84  1  0.05650000  0.58110000  0.65141000  1.0 -0.0884008303
C  C85  1  0.55650000  0.08110000  0.34859000  1.0 -0.0884008303
C  C86  1  0.55650000  0.91890000  0.15141000  1.0 -0.0884008303
C  C87  1  0.94350000  0.58110000  0.15141000  1.0 -0.0884008303
C  C88  1  0.94350000  0.41890000  0.34859000  1.0 -0.0884008303
C  C89  1  0.42780000  0.86350000  0.63351000  1.0 0.0190734192
C  C90  1  0.42780000  0.13650000  0.86649000  1.0 0.0190734192
C  C91  1  0.07220000  0.36350000  0.86649000  1.0 0.0190734192
C  C92  1  0.07220000  0.63650000  0.63351000  1.0 0.0190734192
C  C93  1  0.57220000  0.13650000  0.36649000  1.0 0.0190734192
C  C94  1  0.57220000  0.86350000  0.13351000  1.0 0.0190734192
C  C95  1  0.92780000  0.63650000  0.13351000  1.0 0.0190734192
C  C96  1  0.92780000  0.36350000  0.36649000  1.0 0.0190734192
C  C97  1  0.42240000  0.81380000  0.65840000  1.0 -0.1772629004
C  C98  1  0.42240000  0.18620000  0.84160000  1.0 -0.1772629004
C  C99  1  0.07760000  0.31380000  0.84160000  1.0 -0.1772629004
C  C100  1  0.07760000  0.68620000  0.65840000  1.0 -0.1772629004
C  C101  1  0.57760000  0.18620000  0.34160000  1.0 -0.1772629004
C  C102  1  0.57760000  0.81380000  0.15840000  1.0 -0.1772629004
C  C103  1  0.92240000  0.68620000  0.15840000  1.0 -0.1772629004
C  C104  1  0.92240000  0.31380000  0.34160000  1.0 -0.1772629004
C  C105  1  0.41700000  0.85890000  0.58807000  1.0 0.5615584421
C  C106  1  0.41700000  0.14110000  0.91193000  1.0 0.5615584421
C  C107  1  0.08300000  0.35890000  0.91193000  1.0 0.5615584421
C  C108  1  0.08300000  0.64110000  0.58807000  1.0 0.5615584421
C  C109  1  0.58300000  0.14110000  0.41193000  1.0 0.5615584421
C  C110  1  0.58300000  0.85890000  0.08807000  1.0 0.5615584421
C  C111  1  0.91700000  0.64110000  0.08807000  1.0 0.5615584421
C  C112  1  0.91700000  0.35890000  0.41193000  1.0 0.5615584421
C  C113  1  0.76100000  0.87280000  0.87957000  1.0 0.5615584421
C  C114  1  0.76100000  0.12720000  0.62043000  1.0 0.5615584421
C  C115  1  0.73900000  0.37280000  0.62043000  1.0 0.5615584421
C  C116  1  0.73900000  0.62720000  0.87957000  1.0 0.5615584421
C  C117  1  0.23900000  0.12720000  0.12043000  1.0 0.5615584421
C  C118  1  0.23900000  0.87280000  0.37957000  1.0 0.5615584421
C  C119  1  0.26100000  0.62720000  0.37957000  1.0 0.5615584421
C  C120  1  0.26100000  0.37280000  0.12043000  1.0 0.5615584421
C  C121  1  0.75470000  0.91280000  0.84091000  1.0 0.0094377773
C  C122  1  0.75470000  0.08720000  0.65909000  1.0 0.0094377773
C  C123  1  0.74530000  0.41280000  0.65909000  1.0 0.0094377773
C  C124  1  0.74530000  0.58720000  0.84091000  1.0 0.0094377773
C  C125  1  0.24530000  0.08720000  0.15909000  1.0 0.0094377773
C  C126  1  0.24530000  0.91280000  0.34091000  1.0 0.0094377773
C  C127  1  0.25470000  0.58720000  0.34091000  1.0 0.0094377773
C  C128  1  0.25470000  0.41280000  0.15909000  1.0 0.0094377773
C  C129  1  0.79840000  0.90400000  0.80890000  1.0 -0.0728610084
C  C130  1  0.79840000  0.09600000  0.69110000  1.0 -0.0728610084
C  C131  1  0.70160000  0.40400000  0.69110000  1.0 -0.0728610084
C  C132  1  0.70160000  0.59600000  0.80890000  1.0 -0.0728610084
C  C133  1  0.20160000  0.09600000  0.19110000  1.0 -0.0728610084
C  C134  1  0.20160000  0.90400000  0.30890000  1.0 -0.0728610084
C  C135  1  0.29840000  0.59600000  0.30890000  1.0 -0.0728610084
C  C136  1  0.29840000  0.40400000  0.19110000  1.0 -0.0728610084
C  C137  1  0.79080000  0.94040000  0.77370000  1.0 -0.1113392283
C  C138  1  0.79080000  0.05960000  0.72630000  1.0 -0.1113392283
C  C139  1  0.70920000  0.44040000  0.72630000  1.0 -0.1113392283
C  C140  1  0.70920000  0.55960000  0.77370000  1.0 -0.1113392283
C  C141  1  0.20920000  0.05960000  0.22630000  1.0 -0.1113392283
C  C142  1  0.20920000  0.94040000  0.27370000  1.0 -0.1113392283
C  C143  1  0.29080000  0.55960000  0.27370000  1.0 -0.1113392283
C  C144  1  0.29080000  0.44040000  0.22630000  1.0 -0.1113392283
C  C145  1  0.74280000  0.98110000  0.77013000  1.0 0.0318553072
C  C146  1  0.74280000  0.01890000  0.72987000  1.0 0.0318553072
C  C147  1  0.75720000  0.48110000  0.72987000  1.0 0.0389042395
C  C148  1  0.75720000  0.51890000  0.77013000  1.0 0.0318553072
C  C149  1  0.25720000  0.01890000  0.22987000  1.0 0.0318553072
C  C150  1  0.25720000  0.98110000  0.27013000  1.0 0.0318553072
C  C151  1  0.24280000  0.51890000  0.27013000  1.0 0.0318553072
C  C152  1  0.24280000  0.48110000  0.22987000  1.0 0.0318553072
C  C153  1  0.70150000  0.98840000  0.80203000  1.0 0.0318553072
C  C154  1  0.70150000  0.01160000  0.69797000  1.0 0.0318553072
C  C155  1  0.79850000  0.48840000  0.69797000  1.0 0.0318553072
C  C156  1  0.79850000  0.51160000  0.80203000  1.0 0.0318553072
C  C157  1  0.29850000  0.01160000  0.19797000  1.0 0.0318553072
C  C158  1  0.29850000  0.98840000  0.30203000  1.0 0.0318553072
C  C159  1  0.20150000  0.51160000  0.30203000  1.0 0.0318553072
C  C160  1  0.20150000  0.48840000  0.19797000  1.0 0.0318553072
C  C161  1  0.70690000  0.95500000  0.83835000  1.0 -0.1316749715
C  C162  1  0.70690000  0.04500000  0.66165000  1.0 -0.1316749715
C  C163  1  0.79310000  0.45500000  0.66165000  1.0 -0.1316749715
C  C164  1  0.79310000  0.54500000  0.83835000  1.0 -0.1316749715
C  C165  1  0.29310000  0.04500000  0.16165000  1.0 -0.1316749715
C  C166  1  0.29310000  0.95500000  0.33835000  1.0 -0.1316749715
C  C167  1  0.20690000  0.54500000  0.33835000  1.0 -0.1316749715
C  C168  1  0.20690000  0.45500000  0.16165000  1.0 -0.1316749715
C  C169  1  0.48030000  0.83270000  0.99073000  1.0 0.5834026206
C  C170  1  0.48030000  0.16730000  0.50927000  1.0 0.5834026206
C  C171  1  0.01970000  0.33270000  0.50927000  1.0 0.5834026206
C  C172  1  0.01970000  0.66730000  0.99073000  1.0 0.5834026206
C  C173  1  0.51970000  0.16730000  0.00927000  1.0 0.5834026206
C  C174  1  0.51970000  0.83270000  0.49073000  1.0 0.5834026206
C  C175  1  0.98030000  0.66730000  0.49073000  1.0 0.5834026206
C  C176  1  0.98030000  0.33270000  0.00927000  1.0 0.5834026206
C  C177  1  0.41100000  0.80900000  0.98434000  1.0 0.0021596765
C  C178  1  0.41100000  0.19100000  0.51566000  1.0 0.0021596765
C  C179  1  0.08900000  0.30900000  0.51566000  1.0 0.0021596765
C  C180  1  0.08900000  0.69100000  0.98434000  1.0 0.0021596765
C  C181  1  0.58900000  0.19100000  0.01566000  1.0 0.0021596765
C  C182  1  0.58900000  0.80900000  0.48434000  1.0 0.0021596765
C  C183  1  0.91100000  0.69100000  0.48434000  1.0 0.0021596765
C  C184  1  0.91100000  0.30900000  0.01566000  1.0 0.0021596765
C  C185  1  0.37320000  0.82880000  0.95068000  1.0 -0.1316749715
C  C186  1  0.37320000  0.17120000  0.54932000  1.0 -0.1316749715
C  C187  1  0.12680000  0.32880000  0.54932000  1.0 -0.1316749715
C  C188  1  0.12680000  0.67120000  0.95068000  1.0 -0.1316749715
C  C189  1  0.62680000  0.17120000  0.04932000  1.0 -0.1316749715
C  C190  1  0.62680000  0.82880000  0.45068000  1.0 -0.1316749715
C  C191  1  0.87320000  0.67120000  0.45068000  1.0 -0.1316749715
C  C192  1  0.87320000  0.32880000  0.04932000  1.0 -0.1316749715
C  C193  1  0.31140000  0.80410000  0.94470000  1.0 0.0094377773
C  C194  1  0.31140000  0.19590000  0.55530000  1.0 0.0094377773
C  C195  1  0.18860000  0.30410000  0.55530000  1.0 0.0094377773
C  C196  1  0.18860000  0.69590000  0.94470000  1.0 0.0094377773
C  C197  1  0.68860000  0.19590000  0.05530000  1.0 0.0094377773
C  C198  1  0.68860000  0.80410000  0.44470000  1.0 0.0094377773
C  C199  1  0.81140000  0.69590000  0.44470000  1.0 0.0094377773
C  C200  1  0.81140000  0.30410000  0.05530000  1.0 0.0094377773
C  C201  1  0.28370000  0.76270000  0.97190000  1.0 0.0389042395
C  C202  1  0.28370000  0.23730000  0.52810000  1.0 0.0389042395
C  C203  1  0.21630000  0.26270000  0.52810000  1.0 0.0389042395
C  C204  1  0.21630000  0.73730000  0.97190000  1.0 0.0389042395
C  C205  1  0.71630000  0.23730000  0.02810000  1.0 0.0389042395
C  C206  1  0.71630000  0.76270000  0.47190000  1.0 0.0389042395
C  C207  1  0.78370000  0.73730000  0.47190000  1.0 0.0389042395
C  C208  1  0.78370000  0.26270000  0.02810000  1.0 0.0389042395
C  C209  1  0.32260000  0.74500000  0.00518000  1.0 -0.138770476
C  C210  1  0.32260000  0.25500000  0.49482000  1.0 -0.138770476
C  C211  1  0.17740000  0.24500000  0.49482000  1.0 -0.138770476
C  C212  1  0.17740000  0.75500000  0.00518000  1.0 -0.138770476
C  C213  1  0.67740000  0.25500000  0.99482000  1.0 -0.138770476
C  C214  1  0.67740000  0.74500000  0.50518000  1.0 -0.138770476
C  C215  1  0.82260000  0.75500000  0.50518000  1.0 -0.138770476
C  C216  1  0.82260000  0.24500000  0.99482000  1.0 -0.138770476
C  C217  1  0.38550000  0.76710000  0.01035000  1.0 -0.080661727
C  C218  1  0.38550000  0.23290000  0.48965000  1.0 -0.080661727
C  C219  1  0.11450000  0.26710000  0.48965000  1.0 -0.080661727
C  C220  1  0.11450000  0.73290000  0.01035000  1.0 -0.080661727
C  C221  1  0.61450000  0.23290000  0.98965000  1.0 -0.080661727
C  C222  1  0.61450000  0.76710000  0.51035000  1.0 -0.080661727
C  C223  1  0.88550000  0.73290000  0.51035000  1.0 -0.080661727
C  C224  1  0.88550000  0.26710000  0.98965000  1.0 -0.080661727
C  C225  1  0.85450000  0.83410000  0.99560000  1.0 0.5894782785
C  C226  1  0.85450000  0.16590000  0.50440000  1.0 0.5894782785
C  C227  1  0.64550000  0.33410000  0.50440000  1.0 0.5894782785
C  C228  1  0.64550000  0.66590000  0.99560000  1.0 0.5894782785
C  C229  1  0.14550000  0.16590000  0.00440000  1.0 0.5894782785
C  C230  1  0.14550000  0.83410000  0.49560000  1.0 0.5894782785
C  C231  1  0.35450000  0.66590000  0.49560000  1.0 0.5894782785
C  C232  1  0.35450000  0.33410000  0.00440000  1.0 0.5894782785
C  C233  1  0.92360000  0.85720000  0.00104000  1.0 0.0021596765
C  C234  1  0.92360000  0.14280000  0.49896000  1.0 0.0021596765
C  C235  1  0.57640000  0.35720000  0.49896000  1.0 0.0021596765
C  C236  1  0.57640000  0.64280000  0.00104000  1.0 0.0021596765
C  C237  1  0.07640000  0.14280000  0.99896000  1.0 0.0021596765
C  C238  1  0.07640000  0.85720000  0.50104000  1.0 0.0021596765
C  C239  1  0.42360000  0.64280000  0.50104000  1.0 0.0021596765
C  C240  1  0.42360000  0.35720000  0.99896000  1.0 0.0021596765
C  C241  1  0.94920000  0.89660000  0.97260000  1.0 -0.080661727
C  C242  1  0.94920000  0.10340000  0.52740000  1.0 -0.080661727
C  C243  1  0.55080000  0.39660000  0.52740000  1.0 -0.080661727
C  C244  1  0.55080000  0.60340000  0.97260000  1.0 -0.080661727
C  C245  1  0.05080000  0.10340000  0.02740000  1.0 -0.080661727
C  C246  1  0.05080000  0.89660000  0.47260000  1.0 -0.080661727
C  C247  1  0.44920000  0.60340000  0.47260000  1.0 -0.080661727
C  C248  1  0.44920000  0.39660000  0.02740000  1.0 -0.080661727
C  C249  1  0.01280000  0.91960000  0.97750000  1.0 -0.1316749715
C  C250  1  0.01280000  0.08040000  0.52250000  1.0 -0.1316749715
C  C251  1  0.48720000  0.41960000  0.52250000  1.0 -0.1316749715
C  C252  1  0.48720000  0.58040000  0.97750000  1.0 -0.1316749715
C  C253  1  0.98720000  0.08040000  0.02250000  1.0 -0.1316749715
C  C254  1  0.98720000  0.91960000  0.47750000  1.0 -0.1316749715
C  C255  1  0.51280000  0.58040000  0.47750000  1.0 -0.1316749715
C  C256  1  0.51280000  0.41960000  0.02250000  1.0 -0.1316749715
C  C257  1  0.05220000  0.90280000  0.01027000  1.0 0.0389042395
C  C258  1  0.05220000  0.09720000  0.48973000  1.0 0.0389042395
C  C259  1  0.44780000  0.40280000  0.48973000  1.0 0.0389042395
C  C260  1  0.44780000  0.59720000  0.01027000  1.0 0.0389042395
C  C261  1  0.94780000  0.09720000  0.98973000  1.0 0.0389042395
C  C262  1  0.94780000  0.90280000  0.51027000  1.0 0.0389042395
C  C263  1  0.55220000  0.59720000  0.51027000  1.0 0.0389042395
C  C264  1  0.55220000  0.40280000  0.98973000  1.0 0.0389042395
C  C265  1  0.02360000  0.86300000  0.03843000  1.0 0.0318553072
C  C266  1  0.02360000  0.13700000  0.46157000  1.0 0.0318553072
C  C267  1  0.47640000  0.36300000  0.46157000  1.0 0.0318553072
C  C268  1  0.47640000  0.63700000  0.03843000  1.0 0.0318553072
C  C269  1  0.97640000  0.13700000  0.96157000  1.0 0.0318553072
C  C270  1  0.97640000  0.86300000  0.53843000  1.0 0.0318553072
C  C271  1  0.52360000  0.63700000  0.53843000  1.0 0.0318553072
C  C272  1  0.52360000  0.36300000  0.96157000  1.0 0.0318553072
C  C273  1  0.96100000  0.84040000  0.03446000  1.0 -0.1316749715
C  C274  1  0.96100000  0.15960000  0.46554000  1.0 -0.1316749715
C  C275  1  0.53900000  0.34040000  0.46554000  1.0 -0.1316749715
C  C276  1  0.53900000  0.65960000  0.03446000  1.0 -0.1316749715
C  C277  1  0.03900000  0.15960000  0.96554000  1.0 -0.1316749715
C  C278  1  0.03900000  0.84040000  0.53446000  1.0 -0.1316749715
C  C279  1  0.46100000  0.65960000  0.53446000  1.0 -0.1316749715
C  C280  1  0.46100000  0.34040000  0.96554000  1.0 -0.1316749715
C  C281  1  0.12050000  0.92750000  0.01047000  1.0 0.0503194412
C  C282  1  0.12050000  0.07250000  0.48953000  1.0 0.0503194412
C  C283  1  0.37950000  0.42750000  0.48953000  1.0 0.0503194412
C  C284  1  0.37950000  0.57250000  0.01047000  1.0 0.0503194412
C  C285  1  0.87950000  0.07250000  0.98953000  1.0 0.0503194412
C  C286  1  0.87950000  0.92750000  0.51047000  1.0 0.0503194412
C  C287  1  0.62050000  0.57250000  0.51047000  1.0 0.0503194412
C  C288  1  0.62050000  0.42750000  0.98953000  1.0 0.0503194412
C  C289  1  0.16040000  0.91400000  0.97550000  1.0 -0.147550351
C  C290  1  0.16040000  0.08600000  0.52450000  1.0 -0.147550351
C  C291  1  0.33960000  0.41400000  0.52450000  1.0 -0.147550351
C  C292  1  0.33960000  0.58600000  0.97550000  1.0 -0.147550351
C  C293  1  0.83960000  0.08600000  0.02450000  1.0 -0.147550351
C  C294  1  0.83960000  0.91400000  0.47550000  1.0 -0.147550351
C  C295  1  0.66040000  0.58600000  0.47550000  1.0 -0.147550351
C  C296  1  0.66040000  0.41400000  0.02450000  1.0 -0.147550351
C  C297  1  0.22230000  0.93790000  0.97052000  1.0 -0.0884008303
C  C298  1  0.22230000  0.06210000  0.52948000  1.0 -0.0884008303
C  C299  1  0.27770000  0.43790000  0.52948000  1.0 -0.0884008303
C  C300  1  0.27770000  0.56210000  0.97052000  1.0 -0.0884008303
C  C301  1  0.77770000  0.06210000  0.02948000  1.0 -0.0884008303
C  C302  1  0.77770000  0.93790000  0.47052000  1.0 -0.0884008303
C  C303  1  0.72230000  0.56210000  0.47052000  1.0 -0.0884008303
C  C304  1  0.72230000  0.43790000  0.02948000  1.0 -0.0884008303
C  C305  1  0.24870000  0.97560000  0.99878000  1.0 -0.0082485517
C  C306  1  0.24870000  0.02440000  0.50122000  1.0 -0.0082485517
C  C307  1  0.25130000  0.47560000  0.50122000  1.0 -0.0082485517
C  C308  1  0.25130000  0.52440000  0.99878000  1.0 -0.0082485517
C  C309  1  0.75130000  0.02440000  0.00122000  1.0 -0.0082485517
C  C310  1  0.75130000  0.97560000  0.49878000  1.0 -0.0082485517
C  C311  1  0.74870000  0.52440000  0.49878000  1.0 -0.0082485517
C  C312  1  0.74870000  0.47560000  0.00122000  1.0 -0.0082485517
C  C313  1  0.31620000  0.00190000  0.99362000  1.0 0.5894782785
C  C314  1  0.31620000  0.99810000  0.50638000  1.0 0.5894782785
C  C315  1  0.18380000  0.50190000  0.50638000  1.0 0.5894782785
C  C316  1  0.18380000  0.49810000  0.99362000  1.0 0.5894782785
C  C317  1  0.68380000  0.99810000  0.00638000  1.0 0.5894782785
C  C318  1  0.68380000  0.00190000  0.49362000  1.0 0.5894782785
C  C319  1  0.81620000  0.49810000  0.49362000  1.0 0.5894782785
C  C320  1  0.81620000  0.50190000  0.00638000  1.0 0.5894782785
C  C321  1  0.21160000  0.98940000  0.03383000  1.0 -0.1316749715
C  C322  1  0.21160000  0.01060000  0.46617000  1.0 -0.1316749715
C  C323  1  0.28840000  0.48940000  0.46617000  1.0 -0.1316749715
C  C324  1  0.28840000  0.51060000  0.03383000  1.0 -0.1316749715
C  C325  1  0.78840000  0.01060000  0.96617000  1.0 -0.1316749715
C  C326  1  0.78840000  0.98940000  0.53383000  1.0 -0.1316749715
C  C327  1  0.71160000  0.51060000  0.53383000  1.0 -0.1316749715
C  C328  1  0.71160000  0.48940000  0.96617000  1.0 -0.1316749715
C  C329  1  0.15040000  0.96600000  0.03880000  1.0 0.0318553072
C  C330  1  0.15040000  0.03400000  0.46120000  1.0 0.0318553072
C  C331  1  0.34960000  0.46600000  0.46120000  1.0 0.0318553072
C  C332  1  0.34960000  0.53400000  0.03880000  1.0 0.0318553072
C  C333  1  0.84960000  0.03400000  0.96120000  1.0 0.0318553072
C  C334  1  0.84960000  0.96600000  0.53880000  1.0 0.0318553072
C  C335  1  0.65040000  0.53400000  0.53880000  1.0 0.0318553072
C  C336  1  0.65040000  0.46600000  0.96120000  1.0 0.0318553072
N  N1  1  0.33960000  0.91400000  0.77520000  1.0 0.5112151708
N  N2  1  0.33960000  0.08600000  0.72480000  1.0 0.5112151708
N  N3  1  0.16040000  0.41400000  0.72480000  1.0 0.5112151708
N  N4  1  0.16040000  0.58600000  0.77520000  1.0 0.5112151708
N  N5  1  0.66040000  0.08600000  0.22480000  1.0 0.5112151708
N  N6  1  0.66040000  0.91400000  0.27520000  1.0 0.5112151708
N  N7  1  0.83960000  0.58600000  0.27520000  1.0 0.5112151708
N  N8  1  0.83960000  0.41400000  0.22480000  1.0 0.5112151708
N  N9  1  0.58240000  0.83360000  0.76560000  1.0 0.4400480594
N  N10  1  0.58240000  0.16640000  0.73440000  1.0 0.4400480594
N  N11  1  0.91760000  0.33360000  0.73440000  1.0 0.4400480594
N  N12  1  0.91760000  0.66640000  0.76560000  1.0 0.4400480594
N  N13  1  0.41760000  0.16640000  0.23440000  1.0 0.4400480594
N  N14  1  0.41760000  0.83360000  0.26560000  1.0 0.4400480594
N  N15  1  0.08240000  0.66640000  0.26560000  1.0 0.4400480594
N  N16  1  0.08240000  0.33360000  0.23440000  1.0 0.4400480594
N  N17  1  0.42570000  0.76090000  0.72470000  1.0 0.411374662
N  N18  1  0.42570000  0.23910000  0.77530000  1.0 0.411374662
N  N19  1  0.07430000  0.26090000  0.77530000  1.0 0.411374662
N  N20  1  0.07430000  0.73910000  0.72470000  1.0 0.411374662
N  N21  1  0.57430000  0.23910000  0.27530000  1.0 0.411374662
N  N22  1  0.57430000  0.76090000  0.22470000  1.0 0.411374662
N  N23  1  0.92570000  0.73910000  0.22470000  1.0 0.411374662
N  N24  1  0.92570000  0.26090000  0.27530000  1.0 0.411374662
N  N25  1  0.64670000  0.03160000  0.80020000  1.0 0.3044687068
N  N26  1  0.64670000  0.96840000  0.69980000  1.0 0.326791143
N  N27  1  0.85330000  0.53160000  0.69980000  1.0 0.3086588587
N  N28  1  0.85330000  0.46840000  0.80020000  1.0 0.3086588587
N  N29  1  0.35330000  0.96840000  0.19980000  1.0 0.3044687068
N  N30  1  0.35330000  0.03160000  0.30020000  1.0 0.3044687068
N  N31  1  0.14670000  0.46840000  0.30020000  1.0 0.3086588587
N  N32  1  0.14670000  0.53160000  0.19980000  1.0 0.3086588587
N  N33  1  0.27570000  0.82360000  0.90860000  1.0 0.4835871402
N  N34  1  0.27570000  0.17640000  0.59140000  1.0 0.4835871402
N  N35  1  0.22430000  0.32360000  0.59140000  1.0 0.4835871402
N  N36  1  0.22430000  0.67640000  0.90860000  1.0 0.4835871402
N  N37  1  0.72430000  0.17640000  0.09140000  1.0 0.4835871402
N  N38  1  0.72430000  0.82360000  0.40860000  1.0 0.4835871402
N  N39  1  0.77570000  0.67640000  0.40860000  1.0 0.4835871402
N  N40  1  0.77570000  0.32360000  0.09140000  1.0 0.4835871402
N  N41  1  0.05980000  0.84230000  0.07609000  1.0 0.5004708002
N  N42  1  0.05980000  0.15770000  0.42391000  1.0 0.5004708002
N  N43  1  0.44020000  0.34230000  0.42391000  1.0 0.5004708002
N  N44  1  0.44020000  0.65770000  0.07609000  1.0 0.5004708002
N  N45  1  0.94020000  0.15770000  0.92391000  1.0 0.5004708002
N  N46  1  0.94020000  0.84230000  0.57609000  1.0 0.5004708002
N  N47  1  0.55980000  0.65770000  0.57609000  1.0 0.5004708002
N  N48  1  0.55980000  0.34230000  0.92391000  1.0 0.5004708002
N  N49  1  0.11550000  0.98230000  0.07741000  1.0 0.5004708002
N  N50  1  0.11550000  0.01770000  0.42259000  1.0 0.5004708002
N  N51  1  0.38450000  0.48230000  0.42259000  1.0 0.5004708002
N  N52  1  0.38450000  0.51770000  0.07741000  1.0 0.5004708002
N  N53  1  0.88450000  0.01770000  0.92259000  1.0 0.5004708002
N  N54  1  0.88450000  0.98230000  0.57741000  1.0 0.5004708002
N  N55  1  0.61550000  0.51770000  0.57741000  1.0 0.5004708002
N  N56  1  0.61550000  0.48230000  0.92259000  1.0 0.5004708002
O  O1  1  0.45085000  0.95898000  0.90923000  1.0 -0.5115586231
O  O2  1  0.45085000  0.04102000  0.59077000  1.0 -0.5115586231
O  O3  1  0.04915000  0.45898000  0.59077000  1.0 -0.5115586231
O  O4  1  0.04915000  0.54102000  0.90923000  1.0 -0.5115586231
O  O5  1  0.54915000  0.04102000  0.09077000  1.0 -0.5115586231
O  O6  1  0.54915000  0.95898000  0.40923000  1.0 -0.5115586231
O  O7  1  0.95085000  0.54102000  0.40923000  1.0 -0.5115586231
O  O8  1  0.95085000  0.45898000  0.09077000  1.0 -0.5115586231
O  O9  1  0.55421000  0.92258000  0.90268000  1.0 -0.5395983552
O  O10  1  0.55421000  0.07742000  0.59732000  1.0 -0.5395983552
O  O11  1  0.94579000  0.42258000  0.59732000  1.0 -0.5395983552
O  O12  1  0.94579000  0.57742000  0.90268000  1.0 -0.5395983552
O  O13  1  0.44579000  0.07742000  0.09732000  1.0 -0.5395983552
O  O14  1  0.44579000  0.92258000  0.40268000  1.0 -0.5395983552
O  O15  1  0.05421000  0.57742000  0.40268000  1.0 -0.5395983552
O  O16  1  0.05421000  0.42258000  0.09732000  1.0 -0.5395983552
O  O17  1  0.30450000  0.95430000  0.78810000  1.0 -0.3000232542
O  O18  1  0.30450000  0.04570000  0.71190000  1.0 -0.3000232542
O  O19  1  0.19550000  0.45430000  0.71190000  1.0 -0.3000232542
O  O20  1  0.19550000  0.54570000  0.78810000  1.0 -0.3000232542
O  O21  1  0.69550000  0.04570000  0.21190000  1.0 -0.3000232542
O  O22  1  0.69550000  0.95430000  0.28810000  1.0 -0.3000232542
O  O23  1  0.80450000  0.54570000  0.28810000  1.0 -0.3000232542
O  O24  1  0.80450000  0.45430000  0.21190000  1.0 -0.3000232542
O  O25  1  0.31830000  0.87690000  0.75080000  1.0 -0.3486791178
O  O26  1  0.31830000  0.12310000  0.74920000  1.0 -0.3486791178
O  O27  1  0.18170000  0.37690000  0.74920000  1.0 -0.3486791178
O  O28  1  0.18170000  0.62310000  0.75080000  1.0 -0.3486791178
O  O29  1  0.68170000  0.12310000  0.24920000  1.0 -0.3371779168
O  O30  1  0.68170000  0.87690000  0.25080000  1.0 -0.3486791178
O  O31  1  0.81830000  0.62310000  0.25080000  1.0 -0.3486791178
O  O32  1  0.81830000  0.37690000  0.24920000  1.0 -0.3486791178
O  O33  1  0.40410000  0.76950000  0.76160000  1.0 -0.0020850281
O  O34  1  0.40410000  0.23050000  0.73840000  1.0 -0.0082485517
O  O35  1  0.09590000  0.26950000  0.73840000  1.0 -0.0082485517
O  O36  1  0.09590000  0.73050000  0.76160000  1.0 -0.0212643897
O  O37  1  0.59590000  0.23050000  0.23840000  1.0 -0.0082485517
O  O38  1  0.59590000  0.76950000  0.26160000  1.0 -0.0020850281
O  O39  1  0.90410000  0.73050000  0.26160000  1.0 -0.0082485517
O  O40  1  0.90410000  0.26950000  0.23840000  1.0 -0.0082485517
O  O41  1  0.43850000  0.71080000  0.70640000  1.0 0.0021596765
O  O42  1  0.43850000  0.28920000  0.79360000  1.0 0.0094377773
O  O43  1  0.06150000  0.21080000  0.79360000  1.0 0.0094377773
O  O44  1  0.06150000  0.78920000  0.70640000  1.0 0.0021596765
O  O45  1  0.56150000  0.28920000  0.29360000  1.0 0.0021596765
O  O46  1  0.56150000  0.71080000  0.20640000  1.0 0.0021596765
O  O47  1  0.93850000  0.78920000  0.20640000  1.0 0.0094377773
O  O48  1  0.93850000  0.21080000  0.29360000  1.0 0.0094377773
O  O49  1  0.39861000  0.80829000  0.57512000  1.0 -0.5115586231
O  O50  1  0.39861000  0.19171000  0.92488000  1.0 -0.5115586231
O  O51  1  0.10139000  0.30829000  0.92488000  1.0 -0.5115586231
O  O52  1  0.10139000  0.69171000  0.57512000  1.0 -0.5115586231
O  O53  1  0.60139000  0.19171000  0.42488000  1.0 -0.5115586231
O  O54  1  0.60139000  0.80829000  0.07512000  1.0 -0.5115586231
O  O55  1  0.89861000  0.69171000  0.07512000  1.0 -0.5115586231
O  O56  1  0.89861000  0.30829000  0.42488000  1.0 -0.5115586231
O  O57  1  0.42651000  0.90373000  0.56579000  1.0 -0.5786660184
O  O58  1  0.42651000  0.09627000  0.93421000  1.0 -0.5786660184
O  O59  1  0.07349000  0.40373000  0.93421000  1.0 -0.5786660184
O  O60  1  0.07349000  0.59627000  0.56579000  1.0 -0.5786660184
O  O61  1  0.57349000  0.09627000  0.43421000  1.0 -0.5786660184
O  O62  1  0.57349000  0.90373000  0.06579000  1.0 -0.5786660184
O  O63  1  0.92651000  0.59627000  0.06579000  1.0 -0.5786660184
O  O64  1  0.92651000  0.40373000  0.43421000  1.0 -0.5786660184
O  O65  1  0.72638000  0.89116000  0.90943000  1.0 -0.5610438381
O  O66  1  0.72638000  0.10884000  0.59057000  1.0 -0.5610438381
O  O67  1  0.77362000  0.39116000  0.59057000  1.0 -0.5610438381
O  O68  1  0.77362000  0.60884000  0.90943000  1.0 -0.5610438381
O  O69  1  0.27362000  0.10884000  0.09057000  1.0 -0.5610438381
O  O70  1  0.27362000  0.89116000  0.40943000  1.0 -0.5610438381
O  O71  1  0.22638000  0.60884000  0.40943000  1.0 -0.5610438381
O  O72  1  0.22638000  0.39116000  0.09057000  1.0 -0.5610438381
O  O73  1  0.79920000  0.83040000  0.87923000  1.0 -0.5115586231
O  O74  1  0.79920000  0.16960000  0.62077000  1.0 -0.5115586231
O  O75  1  0.70080000  0.33040000  0.62077000  1.0 -0.5115586231
O  O76  1  0.70080000  0.66960000  0.87923000  1.0 -0.5115586231
O  O77  1  0.20080000  0.16960000  0.12077000  1.0 -0.5115586231
O  O78  1  0.20080000  0.83040000  0.37923000  1.0 -0.5115586231
O  O79  1  0.29920000  0.66960000  0.37923000  1.0 -0.5115586231
O  O80  1  0.29920000  0.33040000  0.12077000  1.0 -0.5115586231
O  O81  1  0.60790000  0.03820000  0.82720000  1.0 -0.2212639197
O  O82  1  0.60790000  0.96180000  0.67280000  1.0 -0.2212639197
O  O83  1  0.89210000  0.53820000  0.67280000  1.0 -0.2212639197
O  O84  1  0.89210000  0.46180000  0.82720000  1.0 -0.2212639197
O  O85  1  0.39210000  0.96180000  0.17280000  1.0 -0.2212639197
O  O86  1  0.39210000  0.03820000  0.32720000  1.0 -0.2212639197
O  O87  1  0.10790000  0.46180000  0.32720000  1.0 -0.2212639197
O  O88  1  0.10790000  0.53820000  0.17280000  1.0 -0.2212639197
O  O89  1  0.65920000  0.08510000  0.78250000  1.0 -0.4209752437
O  O90  1  0.65920000  0.91490000  0.71750000  1.0 -0.4209752437
O  O91  1  0.84080000  0.58510000  0.71750000  1.0 -0.4209752437
O  O92  1  0.84080000  0.41490000  0.78250000  1.0 -0.4209752437
O  O93  1  0.34080000  0.91490000  0.21750000  1.0 -0.4209752437
O  O94  1  0.34080000  0.08510000  0.28250000  1.0 -0.4209752437
O  O95  1  0.15920000  0.41490000  0.28250000  1.0 -0.4209752437
O  O96  1  0.15920000  0.58510000  0.21750000  1.0 -0.4209752437
O  O97  1  0.51966000  0.79652000  0.00751000  1.0 -0.5115586231
O  O98  1  0.51966000  0.20348000  0.49249000  1.0 -0.5115586231
O  O99  1  0.98034000  0.29652000  0.49249000  1.0 -0.5115586231
O  O100  1  0.98034000  0.70348000  0.00751000  1.0 -0.5115586231
O  O101  1  0.48034000  0.20348000  0.99249000  1.0 -0.5210131948
O  O102  1  0.48034000  0.79652000  0.50751000  1.0 -0.5115586231
O  O103  1  0.01966000  0.70348000  0.50751000  1.0 -0.5210131948
O  O104  1  0.01966000  0.29652000  0.99249000  1.0 -0.5210131948
O  O105  1  0.49344000  0.88505000  0.97946000  1.0 -0.604014868
O  O106  1  0.49344000  0.11495000  0.52054000  1.0 -0.604014868
O  O107  1  0.00656000  0.38505000  0.52054000  1.0 -0.604014868
O  O108  1  0.00656000  0.61495000  0.97946000  1.0 -0.604014868
O  O109  1  0.50656000  0.11495000  0.02054000  1.0 -0.604014868
O  O110  1  0.50656000  0.88505000  0.47946000  1.0 -0.604014868
O  O111  1  0.99344000  0.61495000  0.47946000  1.0 -0.604014868
O  O112  1  0.99344000  0.38505000  0.02054000  1.0 -0.604014868
O  O113  1  0.21740000  0.81540000  0.90496000  1.0 -0.3000232542
O  O114  1  0.21740000  0.18460000  0.59504000  1.0 -0.3000232542
O  O115  1  0.28260000  0.31540000  0.59504000  1.0 -0.3000232542
O  O116  1  0.28260000  0.68460000  0.90496000  1.0 -0.3086546902
O  O117  1  0.78260000  0.18460000  0.09504000  1.0 -0.3000232542
O  O118  1  0.78260000  0.81540000  0.40496000  1.0 -0.3000232542
O  O119  1  0.71740000  0.68460000  0.40496000  1.0 -0.3000232542
O  O120  1  0.71740000  0.31540000  0.09504000  1.0 -0.3000232542
O  O121  1  0.30610000  0.85060000  0.88188000  1.0 -0.3086546902
O  O122  1  0.30610000  0.14940000  0.61812000  1.0 -0.3086546902
O  O123  1  0.19390000  0.35060000  0.61812000  1.0 -0.3086546902
O  O124  1  0.19390000  0.64940000  0.88188000  1.0 -0.3086546902
O  O125  1  0.69390000  0.14940000  0.11812000  1.0 -0.3086546902
O  O126  1  0.69390000  0.85060000  0.38188000  1.0 -0.3086546902
O  O127  1  0.80610000  0.64940000  0.38188000  1.0 -0.3086546902
O  O128  1  0.80610000  0.35060000  0.11812000  1.0 -0.3086546902
O  O129  1  0.83951000  0.78665000  0.01429000  1.0 -0.5743075926
O  O130  1  0.83951000  0.21335000  0.48571000  1.0 -0.5743075926
O  O131  1  0.66049000  0.28665000  0.48571000  1.0 -0.5743075926
O  O132  1  0.66049000  0.71335000  0.01429000  1.0 -0.5743075926
O  O133  1  0.16049000  0.21335000  0.98571000  1.0 -0.5743075926
O  O134  1  0.16049000  0.78665000  0.51429000  1.0 -0.5743075926
O  O135  1  0.33951000  0.71335000  0.51429000  1.0 -0.5743075926
O  O136  1  0.33951000  0.28665000  0.98571000  1.0 -0.5743075926
O  O137  1  0.81685000  0.86470000  0.97273000  1.0 -0.5210131948
O  O138  1  0.81685000  0.13530000  0.52727000  1.0 -0.5210131948
O  O139  1  0.68315000  0.36470000  0.52727000  1.0 -0.5210131948
O  O140  1  0.68315000  0.63530000  0.97273000  1.0 -0.5250190143
O  O141  1  0.18315000  0.13530000  0.02727000  1.0 -0.5250190143
O  O142  1  0.18315000  0.86470000  0.47273000  1.0 -0.5250190143
O  O143  1  0.31685000  0.63530000  0.47273000  1.0 -0.5210131948
O  O144  1  0.31685000  0.36470000  0.02727000  1.0 -0.5210131948
O  O145  1  0.02810000  0.82280000  0.10450000  1.0 -0.3283202332
O  O146  1  0.02810000  0.17720000  0.39550000  1.0 -0.3283202332
O  O147  1  0.47190000  0.32280000  0.39550000  1.0 -0.3283202332
O  O148  1  0.47190000  0.67720000  0.10450000  1.0 -0.3283202332
O  O149  1  0.97190000  0.17720000  0.89550000  1.0 -0.3283202332
O  O150  1  0.97190000  0.82280000  0.60450000  1.0 -0.3283202332
O  O151  1  0.52810000  0.67720000  0.60450000  1.0 -0.3283202332
O  O152  1  0.52810000  0.32280000  0.89550000  1.0 -0.3283202332
O  O153  1  0.12020000  0.84720000  0.07618000  1.0 -0.3486791178
O  O154  1  0.12020000  0.15280000  0.42382000  1.0 -0.3486791178
O  O155  1  0.37980000  0.34720000  0.42382000  1.0 -0.3486791178
O  O156  1  0.37980000  0.65280000  0.07618000  1.0 -0.3486791178
O  O157  1  0.87980000  0.15280000  0.92382000  1.0 -0.3486791178
O  O158  1  0.87980000  0.84720000  0.57618000  1.0 -0.3486791178
O  O159  1  0.62020000  0.65280000  0.57618000  1.0 -0.3486791178
O  O160  1  0.62020000  0.34720000  0.92382000  1.0 -0.3486791178
O  O161  1  0.05450000  0.97750000  0.07968000  1.0 -0.3371779168
O  O162  1  0.05450000  0.02250000  0.42032000  1.0 -0.3371779168
O  O163  1  0.44550000  0.47750000  0.42032000  1.0 -0.3371779168
O  O164  1  0.44550000  0.52250000  0.07968000  1.0 -0.3371779168
O  O165  1  0.94550000  0.02250000  0.92032000  1.0 -0.3371779168
O  O166  1  0.94550000  0.97750000  0.57968000  1.0 -0.3371779168
O  O167  1  0.55450000  0.52250000  0.57968000  1.0 -0.3371779168
O  O168  1  0.55450000  0.47750000  0.92032000  1.0 -0.3371779168
O  O169  1  0.14610000  0.00080000  0.10574000  1.0 -0.2606753242
O  O170  1  0.14610000  0.99920000  0.39426000  1.0 -0.2606753242
O  O171  1  0.35390000  0.50080000  0.39426000  1.0 -0.2606753242
O  O172  1  0.35390000  0.49920000  0.10574000  1.0 -0.2606753242
O  O173  1  0.85390000  0.99920000  0.89426000  1.0 -0.2606753242
O  O174  1  0.85390000  0.00080000  0.60574000  1.0 -0.2606753242
O  O175  1  0.64610000  0.49920000  0.60574000  1.0 -0.2606753242
O  O176  1  0.64610000  0.50080000  0.89426000  1.0 -0.2606753242
O  O177  1  0.32947000  0.04752000  0.01482000  1.0 -0.5786660184
O  O178  1  0.32947000  0.95248000  0.48518000  1.0 -0.5786660184
O  O179  1  0.17053000  0.54752000  0.48518000  1.0 -0.5786660184
O  O180  1  0.17053000  0.45248000  0.01482000  1.0 -0.5786660184
O  O181  1  0.67053000  0.95248000  0.98518000  1.0 -0.5786660184
O  O182  1  0.67053000  0.04752000  0.51482000  1.0 -0.5786660184
O  O183  1  0.82947000  0.45248000  0.51482000  1.0 -0.5786660184
O  O184  1  0.82947000  0.54752000  0.98518000  1.0 -0.5786660184
O  O185  1  0.35439000  0.97506000  0.96902000  1.0 -0.5115586231
O  O186  1  0.35439000  0.02494000  0.53098000  1.0 -0.5115586231
O  O187  1  0.14561000  0.47506000  0.53098000  1.0 -0.5115586231
O  O188  1  0.14561000  0.52494000  0.96902000  1.0 -0.5115586231
O  O189  1  0.64561000  0.02494000  0.03098000  1.0 -0.5115586231
O  O190  1  0.64561000  0.97506000  0.46902000  1.0 -0.5115586231
O  O191  1  0.85439000  0.52494000  0.46902000  1.0 -0.5115586231
O  O192  1  0.85439000  0.47506000  0.03098000  1.0 -0.5115586231
O  O193  1  0.54415000  0.99926000  0.97331000  1.0 -0.8452731018
O  O194  1  0.54415000  0.00074000  0.52669000  1.0 -0.8452731018
O  O195  1  0.95585000  0.49926000  0.52669000  1.0 -0.8452731018
O  O196  1  0.95585000  0.50074000  0.97331000  1.0 -0.8452731018
O  O197  1  0.45585000  0.00074000  0.02669000  1.0 -0.8452731018
O  O198  1  0.45585000  0.99926000  0.47331000  1.0 -0.8446265702
O  O199  1  0.04415000  0.50074000  0.47331000  1.0 -0.8452731018
O  O200  1  0.04415000  0.49926000  0.02669000  1.0 -0.8446265702
O  O201  1  0.62631000  0.84411000  0.95951000  1.0 -0.8261628468
O  O202  1  0.62631000  0.15589000  0.54049000  1.0 -0.8261628468
O  O203  1  0.87369000  0.34411000  0.54049000  1.0 -0.8261628468
O  O204  1  0.87369000  0.65589000  0.95951000  1.0 -0.8261628468
O  O205  1  0.37369000  0.15589000  0.04049000  1.0 -0.8261628468
O  O206  1  0.37369000  0.84411000  0.45951000  1.0 -0.8261628468
O  O207  1  0.12631000  0.65589000  0.45951000  1.0 -0.8261628468
O  O208  1  0.12631000  0.34411000  0.04049000  1.0 -0.8261628468
O  O209  1  0.70669000  0.82652000  0.01859000  1.0 -0.815640742
O  O210  1  0.70669000  0.17348000  0.48141000  1.0 -0.815640742
O  O211  1  0.79331000  0.32652000  0.48141000  1.0 -0.815640742
O  O212  1  0.79331000  0.67348000  0.01859000  1.0 -0.815640742
O  O213  1  0.29331000  0.17348000  0.98141000  1.0 -0.815640742
O  O214  1  0.29331000  0.82652000  0.51859000  1.0 -0.815640742
O  O215  1  0.20669000  0.67348000  0.51859000  1.0 -0.815640742
O  O216  1  0.20669000  0.32652000  0.98141000  1.0 -0.815640742
O  O217  1  0.75000000  0.75000000  0.09130000  1.0 -0.4872482066
O  O218  1  0.75000000  0.25000000  0.40870000  1.0 -0.4872482066
O  O219  1  0.25000000  0.25000000  0.90870000  1.0 -0.4872482066
O  O220  1  0.25000000  0.75000000  0.59130000  1.0 -0.4872482066
O  O221  1  0.64170000  0.85610000  0.77130000  1.0 -0.1316749715
O  O222  1  0.64170000  0.14390000  0.72870000  1.0 -0.1316749715
O  O223  1  0.85830000  0.35610000  0.72870000  1.0 -0.1316749715
O  O224  1  0.85830000  0.64390000  0.77130000  1.0 -0.1316749715
O  O225  1  0.35830000  0.14390000  0.22870000  1.0 -0.1316749715
O  O226  1  0.35830000  0.85610000  0.27130000  1.0 -0.1316749715
O  O227  1  0.14170000  0.64390000  0.27130000  1.0 -0.1316749715
O  O228  1  0.14170000  0.35610000  0.22870000  1.0 -0.1316749715
O  O229  1  0.56560000  0.79870000  0.73470000  1.0 0.0389042395
O  O230  1  0.56560000  0.20130000  0.76530000  1.0 0.0389042395
O  O231  1  0.93440000  0.29870000  0.76530000  1.0 0.0389042395
O  O232  1  0.93440000  0.70130000  0.73470000  1.0 0.0389042395
O  O233  1  0.43440000  0.20130000  0.26530000  1.0 0.0389042395
O  O234  1  0.43440000  0.79870000  0.23470000  1.0 0.0389042395
O  O235  1  0.06560000  0.70130000  0.23470000  1.0 0.0389042395
O  O236  1  0.06560000  0.29870000  0.26530000  1.0 0.0389042395
O  O237  1  0.44760000  0.75710000  0.75970000  1.0 0.0389042395
O  O238  1  0.44760000  0.24290000  0.74030000  1.0 0.0389042395
O  O239  1  0.05240000  0.25710000  0.74030000  1.0 0.0389042395
O  O240  1  0.05240000  0.74290000  0.75970000  1.0 0.0318553072
O  O241  1  0.55240000  0.24290000  0.24030000  1.0 0.0318553072
O  O242  1  0.55240000  0.75710000  0.25970000  1.0 0.0503194412
O  O243  1  0.94760000  0.74290000  0.25970000  1.0 0.0389042395
O  O244  1  0.94760000  0.25710000  0.24030000  1.0 0.0318553072
O  O245  1  0.38530000  0.71730000  0.71030000  1.0 -0.0212643897
O  O246  1  0.38530000  0.28270000  0.78970000  1.0 -0.0212643897
O  O247  1  0.11470000  0.21730000  0.78970000  1.0 -0.0212643897
O  O248  1  0.11470000  0.78270000  0.71030000  1.0 -0.0263332781
O  O249  1  0.61470000  0.28270000  0.28970000  1.0 -0.0263332781
O  O250  1  0.61470000  0.71730000  0.21030000  1.0 -0.0212643897
O  O251  1  0.88530000  0.78270000  0.21030000  1.0 -0.0212643897
O  O252  1  0.88530000  0.21730000  0.28970000  1.0 -0.0263332781
O  O253  1  0.63220000  0.80120000  0.78740000  1.0 -0.2267592877
O  O254  1  0.63220000  0.19880000  0.71260000  1.0 -0.2267592877
O  O255  1  0.86780000  0.30120000  0.71260000  1.0 -0.2267592877
O  O256  1  0.86780000  0.69880000  0.78740000  1.0 -0.2267592877
O  O257  1  0.36780000  0.19880000  0.21260000  1.0 -0.2267592877
O  O258  1  0.36780000  0.80120000  0.28740000  1.0 -0.2212639197
O  O259  1  0.13220000  0.69880000  0.28740000  1.0 -0.2267592877
O  O260  1  0.13220000  0.30120000  0.21260000  1.0 -0.2267592877
O  O261  1  0.57660000  0.82590000  0.72640000  1.0 0.0734333488
O  O262  1  0.57660000  0.17410000  0.77360000  1.0 0.0734333488
O  O263  1  0.92340000  0.32590000  0.77360000  1.0 0.0734333488
O  O264  1  0.92340000  0.67410000  0.72640000  1.0 0.0734333488
O  O265  1  0.42340000  0.17410000  0.27360000  1.0 0.0734333488
O  O266  1  0.42340000  0.82590000  0.22640000  1.0 0.0734333488
O  O267  1  0.07660000  0.67410000  0.22640000  1.0 0.0734333488
O  O268  1  0.07660000  0.32590000  0.27360000  1.0 0.0734333488
