# DDEC6 charges by PACMAN v1.1 (https://github.com/mtap-research/PACMAN-charge/)
data_JUTJOA_ASR_pacman
_symmetry_space_group_name_H-M   'P 1'
_cell_length_a   21.03350000
_cell_length_b   21.03350000
_cell_length_c   16.86680000
_cell_angle_alpha   90.00000000
_cell_angle_beta   90.00000000
_cell_angle_gamma   120.00000000
_symmetry_Int_Tables_number   1
_chemical_formula_structural   Gd3In6H48C96N12O49
_chemical_formula_sum   'Gd6 In12 H96 C192 N24 O98'
_cell_volume   6462.28963125
_cell_formula_units_Z   2
loop_
 _symmetry_equiv_pos_site_id
 _symmetry_equiv_pos_as_xyz
  1  'x, y, z'
loop_
 _atom_site_type_symbol
 _atom_site_label
 _atom_site_symmetry_multiplicity
 _atom_site_fract_x
 _atom_site_fract_y
 _atom_site_fract_z
 _atom_site_occupancy
 _atom_site_charge
Gd  Gd1  1  0.38956000  0.77912000  0.49998000  1.0 1.9052359866
Gd  Gd2  1  0.38956000  0.61044000  0.49998000  1.0 1.9052359866
Gd  Gd3  1  0.22088000  0.61044000  0.49998000  1.0 1.9052359866
Gd  Gd4  1  0.61044000  0.22088000  0.50002000  1.0 1.9040881999
Gd  Gd5  1  0.77912000  0.38956000  0.50002000  1.0 1.9040881999
Gd  Gd6  1  0.61044000  0.38956000  0.50002000  1.0 1.9040881999
In  In1  1  0.00000000  0.66174000  0.00000000  1.0 0.7532827663
In  In2  1  0.66174000  0.00000000  0.00000000  1.0 0.7607549535
In  In3  1  0.33826000  0.33826000  0.00000000  1.0 0.7607549535
In  In4  1  0.00000000  0.33826000  0.00000000  1.0 0.7532827663
In  In5  1  0.33826000  0.00000000  0.00000000  1.0 0.7607549535
In  In6  1  0.66174000  0.66174000  0.00000000  1.0 0.7607549535
In  In7  1  0.00001000  0.50001000  0.11871000  1.0 0.9738381314
In  In8  1  0.49999000  0.99999000  0.11871000  1.0 0.9595562624
In  In9  1  0.50000000  0.50001000  0.11871000  1.0 0.9738381314
In  In10  1  0.50001000  0.49999000  0.88129000  1.0 0.9738381314
In  In11  1  0.50001000  0.00001000  0.88129000  1.0 0.9765417086
In  In12  1  0.99999000  0.49999000  0.88129000  1.0 0.9765417086
H  H1  1  0.48981000  0.33296000  0.27759000  1.0 0.1196733727
H  H2  1  0.35452000  0.17238000  0.12933000  1.0 0.143409695
H  H3  1  0.43712000  0.12423000  0.32001000  1.0 0.1196733727
H  H4  1  0.31293000  0.87605000  0.31999000  1.0 0.1196733727
H  H5  1  0.18178000  0.82785000  0.12965000  1.0 0.143409695
H  H6  1  0.15707000  0.66727000  0.27757000  1.0 0.1196733727
H  H7  1  0.32944000  0.05301000  0.14998000  1.0 0.2619142758
H  H8  1  0.27700000  0.94674000  0.14951000  1.0 0.2619142758
H  H9  1  0.84315000  0.51019000  0.27759000  1.0 0.1196733727
H  H10  1  0.81786000  0.64548000  0.12933000  1.0 0.143409695
H  H11  1  0.68711000  0.56288000  0.32001000  1.0 0.1196733727
H  H12  1  0.56312000  0.68707000  0.31999000  1.0 0.1196733727
H  H13  1  0.64607000  0.81822000  0.12965000  1.0 0.143409695
H  H14  1  0.51020000  0.84293000  0.27757000  1.0 0.1196733727
H  H15  1  0.72357000  0.67056000  0.14998000  1.0 0.2619142758
H  H16  1  0.66974000  0.72300000  0.14951000  1.0 0.2652847576
H  H17  1  0.66704000  0.15685000  0.27759000  1.0 0.1196733727
H  H18  1  0.82762000  0.18214000  0.12933000  1.0 0.143409695
H  H19  1  0.87577000  0.31289000  0.32001000  1.0 0.1196733727
H  H20  1  0.12395000  0.43688000  0.31999000  1.0 0.1196733727
H  H21  1  0.17215000  0.35393000  0.12965000  1.0 0.143409695
H  H22  1  0.33273000  0.48980000  0.27757000  1.0 0.1196733727
H  H23  1  0.94699000  0.27643000  0.14998000  1.0 0.2619142758
H  H24  1  0.05326000  0.33026000  0.14951000  1.0 0.2619142758
H  H25  1  0.15685000  0.66704000  0.72241000  1.0 0.1196733727
H  H26  1  0.18214000  0.82762000  0.87067000  1.0 0.143409695
H  H27  1  0.31289000  0.87577000  0.67999000  1.0 0.1196733727
H  H28  1  0.43688000  0.12395000  0.68001000  1.0 0.1196733727
H  H29  1  0.35393000  0.17215000  0.87035000  1.0 0.143409695
H  H30  1  0.48980000  0.33273000  0.72243000  1.0 0.1196733727
H  H31  1  0.27643000  0.94699000  0.85002000  1.0 0.2619142758
H  H32  1  0.33026000  0.05326000  0.85049000  1.0 0.2652847576
H  H33  1  0.33296000  0.48981000  0.72241000  1.0 0.1196733727
H  H34  1  0.17238000  0.35452000  0.87067000  1.0 0.143409695
H  H35  1  0.12423000  0.43712000  0.67999000  1.0 0.1196733727
H  H36  1  0.87605000  0.31293000  0.68001000  1.0 0.1196733727
H  H37  1  0.82785000  0.18178000  0.87035000  1.0 0.143409695
H  H38  1  0.66727000  0.15707000  0.72243000  1.0 0.1196733727
H  H39  1  0.05301000  0.32944000  0.85002000  1.0 0.2619142758
H  H40  1  0.94674000  0.27700000  0.85049000  1.0 0.2652847576
H  H41  1  0.51019000  0.84315000  0.72241000  1.0 0.1196733727
H  H42  1  0.64548000  0.81786000  0.87067000  1.0 0.143409695
H  H43  1  0.56288000  0.68711000  0.67999000  1.0 0.1196733727
H  H44  1  0.68707000  0.56312000  0.68001000  1.0 0.1196733727
H  H45  1  0.81822000  0.64607000  0.87035000  1.0 0.143409695
H  H46  1  0.84293000  0.51020000  0.72243000  1.0 0.1196733727
H  H47  1  0.67056000  0.72357000  0.85002000  1.0 0.2619142758
H  H48  1  0.72300000  0.66974000  0.85049000  1.0 0.2619142758
H  H49  1  0.51019000  0.66704000  0.72241000  1.0 0.1196733727
H  H50  1  0.64548000  0.82762000  0.87067000  1.0 0.143409695
H  H51  1  0.56288000  0.87577000  0.67999000  1.0 0.1196733727
H  H52  1  0.68707000  0.12395000  0.68001000  1.0 0.1196733727
H  H53  1  0.81822000  0.17215000  0.87035000  1.0 0.143409695
H  H54  1  0.84293000  0.33273000  0.72243000  1.0 0.1196733727
H  H55  1  0.67056000  0.94699000  0.85002000  1.0 0.2619142758
H  H56  1  0.72300000  0.05326000  0.85049000  1.0 0.2619142758
H  H57  1  0.15685000  0.48981000  0.72241000  1.0 0.1196733727
H  H58  1  0.18214000  0.35452000  0.87067000  1.0 0.143409695
H  H59  1  0.31289000  0.43712000  0.67999000  1.0 0.1196733727
H  H60  1  0.43688000  0.31293000  0.68001000  1.0 0.1196733727
H  H61  1  0.35393000  0.18178000  0.87035000  1.0 0.143409695
H  H62  1  0.48980000  0.15707000  0.72243000  1.0 0.1196733727
H  H63  1  0.27643000  0.32944000  0.85002000  1.0 0.2619142758
H  H64  1  0.33026000  0.27700000  0.85049000  1.0 0.2619142758
H  H65  1  0.33296000  0.84315000  0.72241000  1.0 0.1196733727
H  H66  1  0.17238000  0.81786000  0.87067000  1.0 0.143409695
H  H67  1  0.12423000  0.68711000  0.67999000  1.0 0.1196733727
H  H68  1  0.87605000  0.56312000  0.68001000  1.0 0.1196733727
H  H69  1  0.82785000  0.64607000  0.87035000  1.0 0.143409695
H  H70  1  0.66727000  0.51020000  0.72243000  1.0 0.1196733727
H  H71  1  0.05301000  0.72357000  0.85002000  1.0 0.2619142758
H  H72  1  0.94674000  0.66974000  0.85049000  1.0 0.2619142758
H  H73  1  0.84315000  0.33296000  0.27759000  1.0 0.1196733727
H  H74  1  0.81786000  0.17238000  0.12933000  1.0 0.143409695
H  H75  1  0.68711000  0.12423000  0.32001000  1.0 0.1196733727
H  H76  1  0.56312000  0.87605000  0.31999000  1.0 0.1196733727
H  H77  1  0.64607000  0.82785000  0.12965000  1.0 0.143409695
H  H78  1  0.51020000  0.66727000  0.27757000  1.0 0.1196733727
H  H79  1  0.72357000  0.05301000  0.14998000  1.0 0.2619142758
H  H80  1  0.66974000  0.94674000  0.14951000  1.0 0.2619142758
H  H81  1  0.66704000  0.51019000  0.27759000  1.0 0.1196733727
H  H82  1  0.82762000  0.64548000  0.12933000  1.0 0.143409695
H  H83  1  0.87577000  0.56288000  0.32001000  1.0 0.1196733727
H  H84  1  0.12395000  0.68707000  0.31999000  1.0 0.1196733727
H  H85  1  0.17215000  0.81822000  0.12965000  1.0 0.143409695
H  H86  1  0.33273000  0.84293000  0.27757000  1.0 0.1196733727
H  H87  1  0.94699000  0.67056000  0.14998000  1.0 0.2619142758
H  H88  1  0.05326000  0.72300000  0.14951000  1.0 0.2619142758
H  H89  1  0.48981000  0.15685000  0.27759000  1.0 0.1196733727
H  H90  1  0.35452000  0.18214000  0.12933000  1.0 0.143409695
H  H91  1  0.43712000  0.31289000  0.32001000  1.0 0.1196733727
H  H92  1  0.31293000  0.43688000  0.31999000  1.0 0.1196733727
H  H93  1  0.18178000  0.35393000  0.12965000  1.0 0.143409695
H  H94  1  0.15707000  0.48980000  0.27757000  1.0 0.1196733727
H  H95  1  0.32944000  0.27643000  0.14998000  1.0 0.2619142758
H  H96  1  0.27700000  0.33026000  0.14951000  1.0 0.2652847576
C  C1  1  0.47070000  0.23230000  0.31000000  1.0 -0.0278927282
C  C2  1  0.46470000  0.28360000  0.26340000  1.0 -0.0278927282
C  C3  1  0.42120000  0.26120000  0.19580000  1.0 0.053785228
C  C4  1  0.38360000  0.18740000  0.17460000  1.0 -0.2144166912
C  C5  1  0.38960000  0.13610000  0.22120000  1.0 0.1196733727
C  C6  1  0.43310000  0.15850000  0.28890000  1.0 -0.0278927282
C  C7  1  0.23850000  0.76790000  0.31000000  1.0 -0.0278927282
C  C8  1  0.27460000  0.84170000  0.28890000  1.0 -0.0238813816
C  C9  1  0.25330000  0.86410000  0.22130000  1.0 0.1196733727
C  C10  1  0.19600000  0.81280000  0.17490000  1.0 -0.2144166912
C  C11  1  0.15990000  0.73900000  0.19590000  1.0 0.0564218403
C  C12  1  0.18120000  0.71660000  0.26350000  1.0 -0.0278927282
C  C13  1  0.42140000  0.31500000  0.14050000  1.0 0.3658681519
C  C14  1  0.10630000  0.68450000  0.14020000  1.0 0.3429735574
C  C15  1  0.33030000  0.00000000  0.23740000  1.0 0.3429735574
C  C16  1  0.76160000  0.52930000  0.31000000  1.0 -0.0278927282
C  C17  1  0.81890000  0.53530000  0.26340000  1.0 -0.0278927282
C  C18  1  0.84000000  0.57880000  0.19580000  1.0 0.053785228
C  C19  1  0.80380000  0.61640000  0.17460000  1.0 -0.2144166912
C  C20  1  0.74650000  0.61040000  0.22120000  1.0 0.1196733727
C  C21  1  0.72540000  0.56690000  0.28890000  1.0 -0.0238813816
C  C22  1  0.52940000  0.76150000  0.31000000  1.0 -0.0278927282
C  C23  1  0.56710000  0.72540000  0.28890000  1.0 -0.0238813816
C  C24  1  0.61080000  0.74670000  0.22130000  1.0 0.1196733727
C  C25  1  0.61680000  0.80400000  0.17490000  1.0 -0.2144166912
C  C26  1  0.57910000  0.84010000  0.19590000  1.0 0.0564218403
C  C27  1  0.53540000  0.81880000  0.26350000  1.0 -0.0278927282
C  C28  1  0.89360000  0.57860000  0.14050000  1.0 0.3643336949
C  C29  1  0.57820000  0.89370000  0.14020000  1.0 0.3429735574
C  C30  1  0.66970000  0.66970000  0.23740000  1.0 0.3429735574
C  C31  1  0.76770000  0.23840000  0.31000000  1.0 -0.0278927282
C  C32  1  0.71640000  0.18110000  0.26340000  1.0 -0.0278927282
C  C33  1  0.73880000  0.16000000  0.19580000  1.0 0.053785228
C  C34  1  0.81260000  0.19620000  0.17460000  1.0 -0.2144166912
C  C35  1  0.86390000  0.25350000  0.22120000  1.0 0.1196733727
C  C36  1  0.84150000  0.27460000  0.28890000  1.0 -0.0238813816
C  C37  1  0.23210000  0.47060000  0.31000000  1.0 -0.0278927282
C  C38  1  0.15830000  0.43290000  0.28890000  1.0 -0.0238813816
C  C39  1  0.13590000  0.38920000  0.22130000  1.0 0.1196733727
C  C40  1  0.18720000  0.38320000  0.17490000  1.0 -0.2144166912
C  C41  1  0.26100000  0.42090000  0.19590000  1.0 0.0564218403
C  C42  1  0.28340000  0.46460000  0.26350000  1.0 -0.0278927282
C  C43  1  0.68500000  0.10640000  0.14050000  1.0 0.3658681519
C  C44  1  0.31550000  0.42180000  0.14020000  1.0 0.3429735574
C  C45  1  0.00000000  0.33030000  0.23740000  1.0 0.3429735574
C  C46  1  0.23840000  0.76770000  0.69000000  1.0 -0.0278927282
C  C47  1  0.18110000  0.71640000  0.73660000  1.0 -0.0278927282
C  C48  1  0.16000000  0.73880000  0.80420000  1.0 0.053785228
C  C49  1  0.19620000  0.81260000  0.82540000  1.0 -0.2144166912
C  C50  1  0.25350000  0.86390000  0.77880000  1.0 0.1196733727
C  C51  1  0.27460000  0.84150000  0.71110000  1.0 -0.0238813816
C  C52  1  0.47060000  0.23210000  0.69000000  1.0 -0.0238813816
C  C53  1  0.43290000  0.15830000  0.71110000  1.0 -0.0278927282
C  C54  1  0.38920000  0.13590000  0.77870000  1.0 0.1196733727
C  C55  1  0.38320000  0.18720000  0.82510000  1.0 -0.2144166912
C  C56  1  0.42090000  0.26100000  0.80410000  1.0 0.0564218403
C  C57  1  0.46460000  0.28340000  0.73650000  1.0 -0.0278927282
C  C58  1  0.10640000  0.68500000  0.85950000  1.0 0.3643336949
C  C59  1  0.42180000  0.31550000  0.85980000  1.0 0.3429735574
C  C60  1  0.33030000  0.00000000  0.76260000  1.0 0.3429735574
C  C61  1  0.23230000  0.47070000  0.69000000  1.0 -0.0278927282
C  C62  1  0.28360000  0.46470000  0.73660000  1.0 -0.0278927282
C  C63  1  0.26120000  0.42120000  0.80420000  1.0 0.053785228
C  C64  1  0.18740000  0.38360000  0.82540000  1.0 -0.2144166912
C  C65  1  0.13610000  0.38960000  0.77880000  1.0 0.1196733727
C  C66  1  0.15850000  0.43310000  0.71110000  1.0 -0.0238813816
C  C67  1  0.76790000  0.23850000  0.69000000  1.0 -0.0238813816
C  C68  1  0.84170000  0.27460000  0.71110000  1.0 -0.0278927282
C  C69  1  0.86410000  0.25330000  0.77870000  1.0 0.1196733727
C  C70  1  0.81280000  0.19600000  0.82510000  1.0 -0.2144166912
C  C71  1  0.73900000  0.15990000  0.80410000  1.0 0.0564218403
C  C72  1  0.71660000  0.18120000  0.73650000  1.0 -0.0278927282
C  C73  1  0.31500000  0.42140000  0.85950000  1.0 0.3643336949
C  C74  1  0.68450000  0.10630000  0.85980000  1.0 0.3452938604
C  C75  1  0.00000000  0.33030000  0.76260000  1.0 0.3429735574
C  C76  1  0.52930000  0.76160000  0.69000000  1.0 -0.0278927282
C  C77  1  0.53530000  0.81890000  0.73660000  1.0 -0.0278927282
C  C78  1  0.57880000  0.84000000  0.80420000  1.0 0.053785228
C  C79  1  0.61640000  0.80380000  0.82540000  1.0 -0.2144166912
C  C80  1  0.61040000  0.74650000  0.77880000  1.0 0.1196733727
C  C81  1  0.56690000  0.72540000  0.71110000  1.0 -0.0238813816
C  C82  1  0.76150000  0.52940000  0.69000000  1.0 -0.0278927282
C  C83  1  0.72540000  0.56710000  0.71110000  1.0 -0.0238813816
C  C84  1  0.74670000  0.61080000  0.77870000  1.0 0.1196733727
C  C85  1  0.80400000  0.61680000  0.82510000  1.0 -0.2144166912
C  C86  1  0.84010000  0.57910000  0.80410000  1.0 0.0564218403
C  C87  1  0.81880000  0.53540000  0.73650000  1.0 -0.0278927282
C  C88  1  0.57860000  0.89360000  0.85950000  1.0 0.3658681519
C  C89  1  0.89370000  0.57820000  0.85980000  1.0 0.3452938604
C  C90  1  0.66970000  0.66970000  0.76260000  1.0 0.3429735574
C  C91  1  0.52930000  0.76770000  0.69000000  1.0 -0.0278927282
C  C92  1  0.53530000  0.71640000  0.73660000  1.0 -0.0278927282
C  C93  1  0.57880000  0.73880000  0.80420000  1.0 0.053785228
C  C94  1  0.61640000  0.81260000  0.82540000  1.0 -0.2144166912
C  C95  1  0.61040000  0.86390000  0.77880000  1.0 0.1196733727
C  C96  1  0.56690000  0.84150000  0.71110000  1.0 -0.0238813816
C  C97  1  0.76150000  0.23210000  0.69000000  1.0 -0.0238813816
C  C98  1  0.72540000  0.15830000  0.71110000  1.0 -0.0278927282
C  C99  1  0.74670000  0.13590000  0.77870000  1.0 0.1196733727
C  C100  1  0.80400000  0.18720000  0.82510000  1.0 -0.2144166912
C  C101  1  0.84010000  0.26100000  0.80410000  1.0 0.0564218403
C  C102  1  0.81880000  0.28340000  0.73650000  1.0 -0.0278927282
C  C103  1  0.57860000  0.68500000  0.85950000  1.0 0.3643336949
C  C104  1  0.89370000  0.31550000  0.85980000  1.0 0.3452938604
C  C105  1  0.66970000  0.00000000  0.76260000  1.0 0.3429735574
C  C106  1  0.23840000  0.47070000  0.69000000  1.0 -0.0278927282
C  C107  1  0.18110000  0.46470000  0.73660000  1.0 -0.0278927282
C  C108  1  0.16000000  0.42120000  0.80420000  1.0 0.053785228
C  C109  1  0.19620000  0.38360000  0.82540000  1.0 -0.2144166912
C  C110  1  0.25350000  0.38960000  0.77880000  1.0 0.1196733727
C  C111  1  0.27460000  0.43310000  0.71110000  1.0 -0.0238813816
C  C112  1  0.47060000  0.23850000  0.69000000  1.0 -0.0238813816
C  C113  1  0.43290000  0.27460000  0.71110000  1.0 -0.0238813816
C  C114  1  0.38920000  0.25330000  0.77870000  1.0 0.1196733727
C  C115  1  0.38320000  0.19600000  0.82510000  1.0 -0.2152245981
C  C116  1  0.42090000  0.15990000  0.80410000  1.0 0.0564218403
C  C117  1  0.46460000  0.18120000  0.73650000  1.0 -0.0278927282
C  C118  1  0.10640000  0.42140000  0.85950000  1.0 0.3658681519
C  C119  1  0.42180000  0.10630000  0.85980000  1.0 0.3452938604
C  C120  1  0.33030000  0.33030000  0.76260000  1.0 0.3429735574
C  C121  1  0.23230000  0.76160000  0.69000000  1.0 -0.0278927282
C  C122  1  0.28360000  0.81890000  0.73660000  1.0 -0.0278927282
C  C123  1  0.26120000  0.84000000  0.80420000  1.0 0.053785228
C  C124  1  0.18740000  0.80380000  0.82540000  1.0 -0.2152245981
C  C125  1  0.13610000  0.74650000  0.77880000  1.0 0.1196733727
C  C126  1  0.15850000  0.72540000  0.71110000  1.0 -0.0238813816
C  C127  1  0.76790000  0.52940000  0.69000000  1.0 -0.0278927282
C  C128  1  0.84170000  0.56710000  0.71110000  1.0 -0.0238813816
C  C129  1  0.86410000  0.61080000  0.77870000  1.0 0.1196733727
C  C130  1  0.81280000  0.61680000  0.82510000  1.0 -0.2144166912
C  C131  1  0.73900000  0.57910000  0.80410000  1.0 0.0564218403
C  C132  1  0.71660000  0.53540000  0.73650000  1.0 -0.0278927282
C  C133  1  0.31500000  0.89360000  0.85950000  1.0 0.3643336949
C  C134  1  0.68450000  0.57820000  0.85980000  1.0 0.3429735574
C  C135  1  0.00000000  0.66970000  0.76260000  1.0 0.3429735574
C  C136  1  0.76160000  0.23230000  0.31000000  1.0 -0.0278927282
C  C137  1  0.81890000  0.28360000  0.26340000  1.0 -0.0278927282
C  C138  1  0.84000000  0.26120000  0.19580000  1.0 0.053785228
C  C139  1  0.80380000  0.18740000  0.17460000  1.0 -0.2152245981
C  C140  1  0.74650000  0.13610000  0.22120000  1.0 0.1196733727
C  C141  1  0.72540000  0.15850000  0.28890000  1.0 -0.0278927282
C  C142  1  0.52940000  0.76790000  0.31000000  1.0 -0.0278927282
C  C143  1  0.56710000  0.84170000  0.28890000  1.0 -0.0238813816
C  C144  1  0.61080000  0.86410000  0.22130000  1.0 0.1196733727
C  C145  1  0.61680000  0.81280000  0.17490000  1.0 -0.2144166912
C  C146  1  0.57910000  0.73900000  0.19590000  1.0 0.0564218403
C  C147  1  0.53540000  0.71660000  0.26350000  1.0 -0.0278927282
C  C148  1  0.89360000  0.31500000  0.14050000  1.0 0.3658681519
C  C149  1  0.57820000  0.68450000  0.14020000  1.0 0.3429735574
C  C150  1  0.66970000  0.00000000  0.23740000  1.0 0.3429735574
C  C151  1  0.76770000  0.52930000  0.31000000  1.0 -0.0278927282
C  C152  1  0.71640000  0.53530000  0.26340000  1.0 -0.0278927282
C  C153  1  0.73880000  0.57880000  0.19580000  1.0 0.053785228
C  C154  1  0.81260000  0.61640000  0.17460000  1.0 -0.2144166912
C  C155  1  0.86390000  0.61040000  0.22120000  1.0 0.1196733727
C  C156  1  0.84150000  0.56690000  0.28890000  1.0 -0.0278927282
C  C157  1  0.23210000  0.76150000  0.31000000  1.0 -0.0278927282
C  C158  1  0.15830000  0.72540000  0.28890000  1.0 -0.0238813816
C  C159  1  0.13590000  0.74670000  0.22130000  1.0 0.1196733727
C  C160  1  0.18720000  0.80400000  0.17490000  1.0 -0.2144166912
C  C161  1  0.26100000  0.84010000  0.19590000  1.0 0.0564218403
C  C162  1  0.28340000  0.81880000  0.26350000  1.0 -0.0278927282
C  C163  1  0.68500000  0.57860000  0.14050000  1.0 0.3643336949
C  C164  1  0.31550000  0.89370000  0.14020000  1.0 0.3429735574
C  C165  1  0.00000000  0.66970000  0.23740000  1.0 0.3429735574
C  C166  1  0.47070000  0.23840000  0.31000000  1.0 -0.0278927282
C  C167  1  0.46470000  0.18110000  0.26340000  1.0 -0.0278927282
C  C168  1  0.42120000  0.16000000  0.19580000  1.0 0.053785228
C  C169  1  0.38360000  0.19620000  0.17460000  1.0 -0.2144166912
C  C170  1  0.38960000  0.25350000  0.22120000  1.0 0.1196733727
C  C171  1  0.43310000  0.27460000  0.28890000  1.0 -0.0278927282
C  C172  1  0.23850000  0.47060000  0.31000000  1.0 -0.0278927282
C  C173  1  0.27460000  0.43290000  0.28890000  1.0 -0.0238813816
C  C174  1  0.25330000  0.38920000  0.22130000  1.0 0.1196733727
C  C175  1  0.19600000  0.38320000  0.17490000  1.0 -0.2144166912
C  C176  1  0.15990000  0.42090000  0.19590000  1.0 0.0564218403
C  C177  1  0.18120000  0.46460000  0.26350000  1.0 -0.0278927282
C  C178  1  0.42140000  0.10640000  0.14050000  1.0 0.3658681519
C  C179  1  0.10630000  0.42180000  0.14020000  1.0 0.3429735574
C  C180  1  0.33030000  0.33030000  0.23740000  1.0 0.3429735574
C  C181  1  0.25895000  0.74105000  0.38230000  1.0 0.4917047478
C  C182  1  0.48210000  0.74105000  0.38230000  1.0 0.4917047478
C  C183  1  0.25895000  0.51790000  0.38230000  1.0 0.4917047478
C  C184  1  0.51790000  0.25895000  0.61770000  1.0 0.4917047478
C  C185  1  0.74105000  0.25895000  0.61770000  1.0 0.4917047478
C  C186  1  0.74105000  0.48210000  0.61770000  1.0 0.4917047478
C  C187  1  0.51780000  0.25890000  0.38170000  1.0 0.4917047478
C  C188  1  0.74110000  0.48220000  0.38170000  1.0 0.4917047478
C  C189  1  0.74110000  0.25890000  0.38170000  1.0 0.4917047478
C  C190  1  0.25890000  0.74110000  0.61830000  1.0 0.4917047478
C  C191  1  0.25890000  0.51780000  0.61830000  1.0 0.4917047478
C  C192  1  0.48220000  0.74110000  0.61830000  1.0 0.4917047478
N  N1  1  0.34680000  0.06010000  0.19740000  1.0 -0.2506654721
N  N2  1  0.28680000  0.93980000  0.19710000  1.0 -0.2506654721
N  N3  1  0.71330000  0.65320000  0.19740000  1.0 -0.2506654721
N  N4  1  0.65300000  0.71320000  0.19710000  1.0 -0.2506654721
N  N5  1  0.93990000  0.28670000  0.19740000  1.0 -0.2506654721
N  N6  1  0.06020000  0.34700000  0.19710000  1.0 -0.2506654721
N  N7  1  0.28670000  0.93990000  0.80260000  1.0 -0.2571382059
N  N8  1  0.34700000  0.06020000  0.80290000  1.0 -0.2506654721
N  N9  1  0.06010000  0.34680000  0.80260000  1.0 -0.2571382059
N  N10  1  0.93980000  0.28680000  0.80290000  1.0 -0.2506654721
N  N11  1  0.65320000  0.71330000  0.80260000  1.0 -0.2506654721
N  N12  1  0.71320000  0.65300000  0.80290000  1.0 -0.2506654721
N  N13  1  0.65320000  0.93990000  0.80260000  1.0 -0.2571382059
N  N14  1  0.71320000  0.06020000  0.80290000  1.0 -0.2506654721
N  N15  1  0.28670000  0.34680000  0.80260000  1.0 -0.2506654721
N  N16  1  0.34700000  0.28680000  0.80290000  1.0 -0.2506654721
N  N17  1  0.06010000  0.71330000  0.80260000  1.0 -0.2571382059
N  N18  1  0.93980000  0.65300000  0.80290000  1.0 -0.2506654721
N  N19  1  0.71330000  0.06010000  0.19740000  1.0 -0.2506654721
N  N20  1  0.65300000  0.93980000  0.19710000  1.0 -0.2506654721
N  N21  1  0.93990000  0.65320000  0.19740000  1.0 -0.2506654721
N  N22  1  0.06020000  0.71320000  0.19710000  1.0 -0.2506654721
N  N23  1  0.34680000  0.28670000  0.19740000  1.0 -0.2571382059
N  N24  1  0.28680000  0.34700000  0.19710000  1.0 -0.2506654721
O  O1  1  0.32150000  0.78620000  0.40850000  1.0 -0.6324835686
O  O2  1  0.53530000  0.21390000  0.40860000  1.0 -0.6324835686
O  O3  1  0.37190000  0.28750000  0.08520000  1.0 -0.4377401464
O  O4  1  0.08390000  0.71240000  0.08590000  1.0 -0.4268193653
O  O5  1  0.08310000  0.61950000  0.15050000  1.0 -0.4730719345
O  O6  1  0.98750000  0.55300000  0.00790000  1.0 -0.1934379605
O  O7  1  0.46360000  0.38030000  0.15030000  1.0 -0.4780859667
O  O8  1  0.35030000  0.99980000  0.30490000  1.0 -0.4242314865
O  O9  1  0.46470000  0.67850000  0.40850000  1.0 -0.6324835686
O  O10  1  0.67860000  0.46470000  0.40860000  1.0 -0.6324835686
O  O11  1  0.91560000  0.62810000  0.08520000  1.0 -0.4377401464
O  O12  1  0.62850000  0.91610000  0.08590000  1.0 -0.4268193653
O  O13  1  0.53640000  0.91690000  0.15050000  1.0 -0.4730719345
O  O14  1  0.56550000  0.01250000  0.00790000  1.0 -0.1934379605
O  O15  1  0.91670000  0.53640000  0.15030000  1.0 -0.4780859667
O  O16  1  0.64950000  0.64970000  0.30490000  1.0 -0.4242314865
O  O17  1  0.21380000  0.53530000  0.40850000  1.0 -0.6324835686
O  O18  1  0.78610000  0.32140000  0.40860000  1.0 -0.6324835686
O  O19  1  0.71250000  0.08440000  0.08520000  1.0 -0.4377401464
O  O20  1  0.28760000  0.37150000  0.08590000  1.0 -0.4268193653
O  O21  1  0.38050000  0.46360000  0.15050000  1.0 -0.4730719345
O  O22  1  0.44700000  0.43450000  0.00790000  1.0 -0.1934379605
O  O23  1  0.61970000  0.08330000  0.15030000  1.0 -0.4780859667
O  O24  1  0.00020000  0.35050000  0.30490000  1.0 -0.4242314865
O  O25  1  0.53530000  0.21380000  0.59150000  1.0 -0.6324835686
O  O26  1  0.32140000  0.78610000  0.59140000  1.0 -0.6324835686
O  O27  1  0.08440000  0.71250000  0.91480000  1.0 -0.4377401464
O  O28  1  0.37150000  0.28760000  0.91410000  1.0 -0.4268193653
O  O29  1  0.46360000  0.38050000  0.84950000  1.0 -0.4730719345
O  O30  1  0.43450000  0.44700000  0.99210000  1.0 -0.1934379605
O  O31  1  0.08330000  0.61970000  0.84970000  1.0 -0.4780859667
O  O32  1  0.35050000  0.00020000  0.69510000  1.0 -0.4242314865
O  O33  1  0.78620000  0.32150000  0.59150000  1.0 -0.6324835686
O  O34  1  0.21390000  0.53530000  0.59140000  1.0 -0.6324835686
O  O35  1  0.28750000  0.37190000  0.91480000  1.0 -0.4377401464
O  O36  1  0.71240000  0.08390000  0.91410000  1.0 -0.4268193653
O  O37  1  0.61950000  0.08310000  0.84950000  1.0 -0.4730719345
O  O38  1  0.55300000  0.98750000  0.99210000  1.0 -0.1934379605
O  O39  1  0.38030000  0.46360000  0.84970000  1.0 -0.4780859667
O  O40  1  0.99980000  0.35030000  0.69510000  1.0 -0.4242314865
O  O41  1  0.67850000  0.46470000  0.59150000  1.0 -0.6324835686
O  O42  1  0.46470000  0.67860000  0.59140000  1.0 -0.6324835686
O  O43  1  0.62810000  0.91560000  0.91480000  1.0 -0.4377401464
O  O44  1  0.91610000  0.62850000  0.91410000  1.0 -0.4268193653
O  O45  1  0.91690000  0.53640000  0.84950000  1.0 -0.4730719345
O  O46  1  0.01250000  0.56550000  0.99210000  1.0 -0.1934379605
O  O47  1  0.53640000  0.91670000  0.84970000  1.0 -0.4780859667
O  O48  1  0.64970000  0.64950000  0.69510000  1.0 -0.4242314865
O  O49  1  0.67850000  0.21380000  0.59150000  1.0 -0.6324835686
O  O50  1  0.46470000  0.78610000  0.59140000  1.0 -0.6324835686
O  O51  1  0.62810000  0.71250000  0.91480000  1.0 -0.4377401464
O  O52  1  0.91610000  0.28760000  0.91410000  1.0 -0.4268193653
O  O53  1  0.91690000  0.38050000  0.84950000  1.0 -0.4730719345
O  O54  1  0.01250000  0.44700000  0.99210000  1.0 -0.1934379605
O  O55  1  0.53640000  0.61970000  0.84970000  1.0 -0.4780859667
O  O56  1  0.64970000  0.00020000  0.69510000  1.0 -0.4242314865
O  O57  1  0.53530000  0.32150000  0.59150000  1.0 -0.6324835686
O  O58  1  0.32140000  0.53530000  0.59140000  1.0 -0.6324835686
O  O59  1  0.08440000  0.37190000  0.91480000  1.0 -0.4377401464
O  O60  1  0.37150000  0.08390000  0.91410000  1.0 -0.4268193653
O  O61  1  0.46360000  0.08310000  0.84950000  1.0 -0.4730719345
O  O62  1  0.43450000  0.98750000  0.99210000  1.0 -0.1934379605
O  O63  1  0.08330000  0.46360000  0.84970000  1.0 -0.4780859667
O  O64  1  0.35050000  0.35030000  0.69510000  1.0 -0.4242314865
O  O65  1  0.78620000  0.46470000  0.59150000  1.0 -0.6324835686
O  O66  1  0.21390000  0.67860000  0.59140000  1.0 -0.6324835686
O  O67  1  0.28750000  0.91560000  0.91480000  1.0 -0.4377401464
O  O68  1  0.71240000  0.62850000  0.91410000  1.0 -0.4268193653
O  O69  1  0.61950000  0.53640000  0.84950000  1.0 -0.4730719345
O  O70  1  0.55300000  0.56550000  0.99210000  1.0 -0.1934379605
O  O71  1  0.38030000  0.91670000  0.84970000  1.0 -0.4780859667
O  O72  1  0.99980000  0.64950000  0.69510000  1.0 -0.4242314865
O  O73  1  0.46470000  0.78620000  0.40850000  1.0 -0.6324835686
O  O74  1  0.67860000  0.21390000  0.40860000  1.0 -0.6324835686
O  O75  1  0.91560000  0.28750000  0.08520000  1.0 -0.4377401464
O  O76  1  0.62850000  0.71240000  0.08590000  1.0 -0.4242314865
O  O77  1  0.53640000  0.61950000  0.15050000  1.0 -0.4730719345
O  O78  1  0.56550000  0.55300000  0.00790000  1.0 -0.1934379605
O  O79  1  0.91670000  0.38030000  0.15030000  1.0 -0.4780859667
O  O80  1  0.64950000  0.99980000  0.30490000  1.0 -0.4242314865
O  O81  1  0.21380000  0.67850000  0.40850000  1.0 -0.6324835686
O  O82  1  0.78610000  0.46470000  0.40860000  1.0 -0.6324835686
O  O83  1  0.71250000  0.62810000  0.08520000  1.0 -0.4377401464
O  O84  1  0.28760000  0.91610000  0.08590000  1.0 -0.4268193653
O  O85  1  0.38050000  0.91690000  0.15050000  1.0 -0.4730719345
O  O86  1  0.44700000  0.01250000  0.00790000  1.0 -0.1934379605
O  O87  1  0.61970000  0.53640000  0.15030000  1.0 -0.4780859667
O  O88  1  0.00020000  0.64970000  0.30490000  1.0 -0.4242314865
O  O89  1  0.32150000  0.53530000  0.40850000  1.0 -0.6324835686
O  O90  1  0.53530000  0.32140000  0.40860000  1.0 -0.6324835686
O  O91  1  0.37190000  0.08440000  0.08520000  1.0 -0.4377401464
O  O92  1  0.08390000  0.37150000  0.08590000  1.0 -0.4268193653
O  O93  1  0.08310000  0.46360000  0.15050000  1.0 -0.4730719345
O  O94  1  0.98750000  0.43450000  0.00790000  1.0 -0.1934379605
O  O95  1  0.46360000  0.08330000  0.15030000  1.0 -0.4780859667
O  O96  1  0.35030000  0.35050000  0.30490000  1.0 -0.4242314865
O  O97  1  0.33333333  0.66666667  0.49990000  1.0 -1.257896979
O  O98  1  0.66666667  0.33333333  0.50010000  1.0 -1.257896979
