# DDEC6 charges by PACMAN v1.1 (https://github.com/mtap-research/PACMAN-charge/)
data_JUXFOZ_ASR_pacman
_symmetry_space_group_name_H-M   'P 1'
_cell_length_a   14.77760000
_cell_length_b   12.40940000
_cell_length_c   29.95540000
_cell_angle_alpha   90.00000000
_cell_angle_beta   115.57200000
_cell_angle_gamma   90.00000000
_symmetry_Int_Tables_number   1
_chemical_formula_structural   ZnH9C13O4
_chemical_formula_sum   'Zn8 H72 C104 O32'
_cell_volume   4955.15599904
_cell_formula_units_Z   8
loop_
 _symmetry_equiv_pos_site_id
 _symmetry_equiv_pos_as_xyz
  1  'x, y, z'
loop_
 _atom_site_type_symbol
 _atom_site_label
 _atom_site_symmetry_multiplicity
 _atom_site_fract_x
 _atom_site_fract_y
 _atom_site_fract_z
 _atom_site_occupancy
 _atom_site_charge
Zn  Zn1  1  0.25281000  0.99685000  0.24000000  1.0 0.9248000022
Zn  Zn2  1  0.74719000  0.49685000  0.26000000  1.0 0.9248000022
Zn  Zn3  1  0.74719000  0.00315000  0.76000000  1.0 0.9248000022
Zn  Zn4  1  0.25281000  0.50315000  0.74000000  1.0 0.9248000022
Zn  Zn5  1  0.62284000  0.31682000  0.17522000  1.0 1.0191750165
Zn  Zn6  1  0.37716000  0.81682000  0.32478000  1.0 1.0191750165
Zn  Zn7  1  0.37716000  0.68318000  0.82478000  1.0 1.0191750165
Zn  Zn8  1  0.62284000  0.18318000  0.67522000  1.0 1.0191750165
H  H1  1  0.01810000  0.18970000  0.12710000  1.0 0.1366095889
H  H2  1  0.98190000  0.68970000  0.37290000  1.0 0.1366095889
H  H3  1  0.98190000  0.81030000  0.87290000  1.0 0.1366095889
H  H4  1  0.01810000  0.31030000  0.62710000  1.0 0.1366095889
H  H5  1  0.52120000  0.32130000  0.77140000  1.0 0.1366095889
H  H6  1  0.47880000  0.82130000  0.72860000  1.0 0.1366095889
H  H7  1  0.47880000  0.67870000  0.22860000  1.0 0.1366095889
H  H8  1  0.52120000  0.17870000  0.27140000  1.0 0.1366095889
H  H9  1  0.75530000  0.19350000  0.88640000  1.0 0.1296045549
H  H10  1  0.24470000  0.69350000  0.61360000  1.0 0.1296045549
H  H11  1  0.24470000  0.80650000  0.11360000  1.0 0.1296045549
H  H12  1  0.75530000  0.30650000  0.38640000  1.0 0.1296045549
H  H13  1  0.59090000  0.42680000  0.90890000  1.0 0.1296045549
H  H14  1  0.40910000  0.92680000  0.59110000  1.0 0.1296045549
H  H15  1  0.40910000  0.57320000  0.09110000  1.0 0.1296045549
H  H16  1  0.59090000  0.07320000  0.40890000  1.0 0.1296045549
H  H17  1  0.01980000  0.26560000  0.25720000  1.0 0.1296045549
H  H18  1  0.98020000  0.76560000  0.24280000  1.0 0.1296045549
H  H19  1  0.98020000  0.73440000  0.74280000  1.0 0.1296045549
H  H20  1  0.01980000  0.23440000  0.75720000  1.0 0.1296045549
H  H21  1  0.79160000  0.36110000  0.13120000  1.0 0.1296045549
H  H22  1  0.20840000  0.86110000  0.36880000  1.0 0.1296045549
H  H23  1  0.20840000  0.63890000  0.86880000  1.0 0.1296045549
H  H24  1  0.79160000  0.13890000  0.63120000  1.0 0.1296045549
H  H25  1  0.77540000  0.03430000  0.04460000  1.0 0.121052943
H  H26  1  0.22460000  0.53430000  0.45540000  1.0 0.121052943
H  H27  1  0.22460000  0.96570000  0.95540000  1.0 0.121052943
H  H28  1  0.77540000  0.46570000  0.54460000  1.0 0.121052943
H  H29  1  0.83650000  0.09150000  0.09550000  1.0 0.1106262637
H  H30  1  0.16350000  0.59150000  0.40450000  1.0 0.1106262637
H  H31  1  0.16350000  0.90850000  0.90450000  1.0 0.1106262637
H  H32  1  0.83650000  0.40850000  0.59550000  1.0 0.1106262637
H  H33  1  0.71920000  0.10060000  0.06950000  1.0 0.121052943
H  H34  1  0.28080000  0.60060000  0.43050000  1.0 0.121052943
H  H35  1  0.28080000  0.89940000  0.93050000  1.0 0.121052943
H  H36  1  0.71920000  0.39940000  0.56950000  1.0 0.121052943
H  H37  1  0.99450000  0.45190000  0.06970000  1.0 0.1296045549
H  H38  1  0.00550000  0.95190000  0.43030000  1.0 0.1296045549
H  H39  1  0.00550000  0.54810000  0.93030000  1.0 0.1296045549
H  H40  1  0.99450000  0.04810000  0.56970000  1.0 0.1296045549
H  H41  1  0.90380000  0.53120000  0.05560000  1.0 0.1296045549
H  H42  1  0.09620000  0.03120000  0.44440000  1.0 0.1296045549
H  H43  1  0.09620000  0.46880000  0.94440000  1.0 0.1296045549
H  H44  1  0.90380000  0.96880000  0.55560000  1.0 0.1296045549
H  H45  1  0.93770000  0.45980000  0.10330000  1.0 0.121052943
H  H46  1  0.06230000  0.95980000  0.39670000  1.0 0.121052943
H  H47  1  0.06230000  0.54020000  0.89670000  1.0 0.121052943
H  H48  1  0.93770000  0.04020000  0.60330000  1.0 0.121052943
H  H49  1  0.66940000  0.05540000  0.97990000  1.0 0.1106262637
H  H50  1  0.33060000  0.55540000  0.52010000  1.0 0.1106262637
H  H51  1  0.33060000  0.94460000  0.02010000  1.0 0.1106262637
H  H52  1  0.66940000  0.44460000  0.47990000  1.0 0.1106262637
H  H53  1  0.60440000  0.13350000  0.93680000  1.0 0.1296045549
H  H54  1  0.39560000  0.63350000  0.56320000  1.0 0.1296045549
H  H55  1  0.39560000  0.86650000  0.06320000  1.0 0.1296045549
H  H56  1  0.60440000  0.36650000  0.43680000  1.0 0.1296045549
H  H57  1  0.69980000  0.07840000  0.93670000  1.0 0.121052943
H  H58  1  0.30020000  0.57840000  0.56330000  1.0 0.121052943
H  H59  1  0.30020000  0.92160000  0.06330000  1.0 0.121052943
H  H60  1  0.69980000  0.42160000  0.43670000  1.0 0.121052943
H  H61  1  0.80040000  0.46040000  0.92670000  1.0 0.121052943
H  H62  1  0.19960000  0.96040000  0.57330000  1.0 0.121052943
H  H63  1  0.19960000  0.53960000  0.07330000  1.0 0.121052943
H  H64  1  0.80040000  0.03960000  0.42670000  1.0 0.121052943
H  H65  1  0.78510000  0.53780000  0.96430000  1.0 0.1296045549
H  H66  1  0.21490000  0.03780000  0.53570000  1.0 0.1296045549
H  H67  1  0.21490000  0.46220000  0.03570000  1.0 0.1296045549
H  H68  1  0.78510000  0.96220000  0.46430000  1.0 0.1296045549
H  H69  1  0.89280000  0.49590000  0.97520000  1.0 0.121052943
H  H70  1  0.10720000  0.99590000  0.52480000  1.0 0.121052943
H  H71  1  0.10720000  0.50410000  0.02480000  1.0 0.121052943
H  H72  1  0.89280000  0.00410000  0.47520000  1.0 0.121052943
C  C1  1  0.12630000  0.15130000  0.22207000  1.0 0.5428955045
C  C2  1  0.87370000  0.65130000  0.27793000  1.0 0.5428955045
C  C3  1  0.87370000  0.84870000  0.77793000  1.0 0.5428955045
C  C4  1  0.12630000  0.34870000  0.72207000  1.0 0.5428955045
C  C5  1  0.03320000  0.21780000  0.19554000  1.0 -0.0033065472
C  C6  1  0.96680000  0.71780000  0.30446000  1.0 -0.0033065472
C  C7  1  0.96680000  0.78220000  0.80446000  1.0 -0.0033065472
C  C8  1  0.03320000  0.28220000  0.69554000  1.0 -0.0033065472
C  C9  1  0.98820000  0.22340000  0.14502000  1.0 -0.1376703222
C  C10  1  0.01180000  0.72340000  0.35498000  1.0 -0.1376703222
C  C11  1  0.01180000  0.77660000  0.85498000  1.0 -0.1376703222
C  C12  1  0.98820000  0.27660000  0.64502000  1.0 -0.1376703222
C  C13  1  0.66390000  0.17710000  0.78831000  1.0 0.5942227032
C  C14  1  0.33610000  0.67710000  0.71169000  1.0 0.5942227032
C  C15  1  0.33610000  0.82290000  0.21169000  1.0 0.5942227032
C  C16  1  0.66390000  0.32290000  0.28831000  1.0 0.5942227032
C  C17  1  0.64290000  0.24710000  0.82358000  1.0 -0.0209143939
C  C18  1  0.35710000  0.74710000  0.67642000  1.0 -0.0209143939
C  C19  1  0.35710000  0.75290000  0.17642000  1.0 -0.0209143939
C  C20  1  0.64290000  0.25290000  0.32358000  1.0 -0.0209143939
C  C21  1  0.56210000  0.31880000  0.80519000  1.0 -0.1000899159
C  C22  1  0.43790000  0.81880000  0.69481000  1.0 -0.1000899159
C  C23  1  0.43790000  0.68120000  0.19481000  1.0 -0.1000899159
C  C24  1  0.56210000  0.18120000  0.30519000  1.0 -0.1000899159
C  C25  1  0.70190000  0.24170000  0.87429000  1.0 -0.1376703222
C  C26  1  0.29810000  0.74170000  0.62571000  1.0 -0.1376703222
C  C27  1  0.29810000  0.75830000  0.12571000  1.0 -0.1376703222
C  C28  1  0.70190000  0.25830000  0.37429000  1.0 -0.1376703222
C  C29  1  0.68360000  0.30570000  0.90726000  1.0 0.0805048954
C  C30  1  0.31640000  0.80570000  0.59274000  1.0 0.0805048954
C  C31  1  0.31640000  0.69430000  0.09274000  1.0 0.0805048954
C  C32  1  0.68360000  0.19430000  0.40726000  1.0 0.0805048954
C  C33  1  0.74380000  0.29650000  0.96153000  1.0 -0.0650134411
C  C34  1  0.25620000  0.79650000  0.53847000  1.0 -0.0650134411
C  C35  1  0.25620000  0.70350000  0.03847000  1.0 -0.0650134411
C  C36  1  0.74380000  0.20350000  0.46153000  1.0 -0.0650134411
C  C37  1  0.73500000  0.20330000  0.98601000  1.0 0.0516020099
C  C38  1  0.26500000  0.70330000  0.51399000  1.0 0.0516020099
C  C39  1  0.26500000  0.79670000  0.01399000  1.0 0.0516020099
C  C40  1  0.73500000  0.29670000  0.48601000  1.0 0.0516020099
C  C41  1  0.80710000  0.38030000  0.98825000  1.0 0.0516020099
C  C42  1  0.19290000  0.88030000  0.51175000  1.0 0.0516020099
C  C43  1  0.19290000  0.61970000  0.01175000  1.0 0.0516020099
C  C44  1  0.80710000  0.11970000  0.48825000  1.0 0.0516020099
C  C45  1  0.45510000  0.46160000  0.81630000  1.0 0.6033089991
C  C46  1  0.54490000  0.96160000  0.68370000  1.0 0.6033089991
C  C47  1  0.54490000  0.53840000  0.18370000  1.0 0.6033089991
C  C48  1  0.45510000  0.03840000  0.31630000  1.0 0.6033089991
C  C49  1  0.54230000  0.38570000  0.83665000  1.0 -0.0209143939
C  C50  1  0.45770000  0.88570000  0.66335000  1.0 -0.0209143939
C  C51  1  0.45770000  0.61430000  0.16335000  1.0 -0.0209143939
C  C52  1  0.54230000  0.11430000  0.33665000  1.0 -0.0209143939
C  C53  1  0.60320000  0.38070000  0.88763000  1.0 -0.1332818705
C  C54  1  0.39680000  0.88070000  0.61237000  1.0 -0.1332818705
C  C55  1  0.39680000  0.61930000  0.11237000  1.0 -0.1332818705
C  C56  1  0.60320000  0.11930000  0.38763000  1.0 -0.1332818705
C  C57  1  0.85600000  0.37860000  0.22914000  1.0 0.5659128662
C  C58  1  0.14400000  0.87860000  0.27086000  1.0 0.5659128662
C  C59  1  0.14400000  0.62140000  0.77086000  1.0 0.5659128662
C  C60  1  0.85600000  0.12140000  0.72914000  1.0 0.5659128662
C  C61  1  0.89980000  0.32360000  0.19860000  1.0 -0.0149141194
C  C62  1  0.10020000  0.82360000  0.30140000  1.0 -0.0209143939
C  C63  1  0.10020000  0.67640000  0.80140000  1.0 -0.0149141194
C  C64  1  0.89980000  0.17640000  0.69860000  1.0 -0.0149141194
C  C65  1  0.98910000  0.26870000  0.22284000  1.0 -0.1000899159
C  C66  1  0.01090000  0.76870000  0.27716000  1.0 -0.1000899159
C  C67  1  0.01090000  0.73130000  0.77716000  1.0 -0.1000899159
C  C68  1  0.98910000  0.23130000  0.72284000  1.0 -0.1000899159
C  C69  1  0.85320000  0.32680000  0.14737000  1.0 -0.1579214398
C  C70  1  0.14680000  0.82680000  0.35263000  1.0 -0.1579214398
C  C71  1  0.14680000  0.67320000  0.85263000  1.0 -0.1579214398
C  C72  1  0.85320000  0.17320000  0.64737000  1.0 -0.1579214398
C  C73  1  0.89830000  0.27870000  0.12000000  1.0 0.086556188
C  C74  1  0.10170000  0.77870000  0.38000000  1.0 0.086556188
C  C75  1  0.10170000  0.72130000  0.88000000  1.0 0.086556188
C  C76  1  0.89830000  0.22130000  0.62000000  1.0 0.086556188
C  C77  1  0.84740000  0.28290000  0.06421000  1.0 -0.0553021513
C  C78  1  0.15260000  0.78290000  0.43579000  1.0 -0.0553021513
C  C79  1  0.15260000  0.71710000  0.93579000  1.0 -0.0553021513
C  C80  1  0.84740000  0.21710000  0.56421000  1.0 -0.0553021513
C  C81  1  0.85900000  0.37390000  0.03975000  1.0 0.0516020099
C  C82  1  0.14100000  0.87390000  0.46025000  1.0 0.0516020099
C  C83  1  0.14100000  0.62610000  0.96025000  1.0 0.0516020099
C  C84  1  0.85900000  0.12610000  0.53975000  1.0 0.0516020099
C  C85  1  0.78670000  0.19650000  0.03745000  1.0 0.0446803357
C  C86  1  0.21330000  0.69650000  0.46255000  1.0 0.0446803357
C  C87  1  0.21330000  0.80350000  0.96255000  1.0 0.0446803357
C  C88  1  0.78670000  0.30350000  0.53745000  1.0 0.0516020099
C  C89  1  0.77870000  0.09670000  0.06417000  1.0 -0.4027085144
C  C90  1  0.22130000  0.59670000  0.43583000  1.0 -0.4027085144
C  C91  1  0.22130000  0.90330000  0.93583000  1.0 -0.4027085144
C  C92  1  0.77870000  0.40330000  0.56417000  1.0 -0.4027085144
C  C93  1  0.93030000  0.46230000  0.06985000  1.0 -0.4262703646
C  C94  1  0.06970000  0.96230000  0.43015000  1.0 -0.4262703646
C  C95  1  0.06970000  0.53770000  0.93015000  1.0 -0.4262703646
C  C96  1  0.93030000  0.03770000  0.56985000  1.0 -0.4262703646
C  C97  1  0.67130000  0.10900000  0.95719000  1.0 -0.4151495461
C  C98  1  0.32870000  0.60900000  0.54281000  1.0 -0.4135405187
C  C99  1  0.32870000  0.89100000  0.04281000  1.0 -0.4135405187
C  C100  1  0.67130000  0.39100000  0.45719000  1.0 -0.4135405187
C  C101  1  0.82280000  0.47760000  0.96108000  1.0 -0.4262703646
C  C102  1  0.17720000  0.97760000  0.53892000  1.0 -0.4262703646
C  C103  1  0.17720000  0.52240000  0.03892000  1.0 -0.4262703646
C  C104  1  0.82280000  0.02240000  0.46108000  1.0 -0.4262703646
O  O1  1  0.16140000  0.13990000  0.26755000  1.0 -0.5010101411
O  O2  1  0.83860000  0.63990000  0.23245000  1.0 -0.4938680891
O  O3  1  0.83860000  0.86010000  0.73245000  1.0 -0.5010101411
O  O4  1  0.16140000  0.36010000  0.76755000  1.0 -0.4938680891
O  O5  1  0.16329000  0.10670000  0.19535000  1.0 -0.5193030799
O  O6  1  0.83671000  0.60670000  0.30465000  1.0 -0.5143363539
O  O7  1  0.83671000  0.89330000  0.80465000  1.0 -0.5193030799
O  O8  1  0.16329000  0.39330000  0.69535000  1.0 -0.5143363539
O  O9  1  0.61740000  0.19790000  0.74303000  1.0 -0.5827942852
O  O10  1  0.38260000  0.69790000  0.75697000  1.0 -0.5827942852
O  O11  1  0.38260000  0.80210000  0.25697000  1.0 -0.5827942852
O  O12  1  0.61740000  0.30210000  0.24303000  1.0 -0.5827942852
O  O13  1  0.90650000  0.39750000  0.27312000  1.0 -0.4457079384
O  O14  1  0.09350000  0.89750000  0.22688000  1.0 -0.4426661942
O  O15  1  0.09350000  0.60250000  0.72688000  1.0 -0.4457079384
O  O16  1  0.90650000  0.10250000  0.77312000  1.0 -0.4426661942
O  O17  1  0.38820000  0.43840000  0.77407000  1.0 -0.5193030799
O  O18  1  0.61180000  0.93840000  0.72593000  1.0 -0.5193030799
O  O19  1  0.61180000  0.56160000  0.22593000  1.0 -0.5193030799
O  O20  1  0.38820000  0.06160000  0.27407000  1.0 -0.5193030799
O  O21  1  0.45430000  0.53940000  0.84295000  1.0 -0.5683677856
O  O22  1  0.54570000  0.03940000  0.65705000  1.0 -0.5683677856
O  O23  1  0.54570000  0.46060000  0.15705000  1.0 -0.5683677856
O  O24  1  0.45430000  0.96060000  0.34295000  1.0 -0.5683677856
O  O25  1  0.76062000  0.40580000  0.20691000  1.0 -0.6285166506
O  O26  1  0.23938000  0.90580000  0.29309000  1.0 -0.6285166506
O  O27  1  0.23938000  0.59420000  0.79309000  1.0 -0.6285166506
O  O28  1  0.76062000  0.09420000  0.70691000  1.0 -0.6285166506
O  O29  1  0.72736000  0.10380000  0.80676000  1.0 -0.5010101411
O  O30  1  0.27264000  0.60380000  0.69324000  1.0 -0.5010101411
O  O31  1  0.27264000  0.89620000  0.19324000  1.0 -0.5010101411
O  O32  1  0.72736000  0.39620000  0.30676000  1.0 -0.5010101411
