# DDEC6 charges by PACMAN v1.1 (https://github.com/mtap-research/PACMAN-charge/)
data_KABJOQ_ASR_pacman
_symmetry_space_group_name_H-M   'P 1'
_cell_length_a   13.69270000
_cell_length_b   16.28750000
_cell_length_c   18.10250000
_cell_angle_alpha   71.49700000
_cell_angle_beta   85.21200000
_cell_angle_gamma   87.66400000
_symmetry_Int_Tables_number   1
_chemical_formula_structural   Ca5P2H12(C8O5)4
_chemical_formula_sum   'Ca10 P4 H24 C64 O40'
_cell_volume   3814.72599405
_cell_formula_units_Z   2
loop_
 _symmetry_equiv_pos_site_id
 _symmetry_equiv_pos_as_xyz
  1  'x, y, z'
loop_
 _atom_site_type_symbol
 _atom_site_label
 _atom_site_symmetry_multiplicity
 _atom_site_fract_x
 _atom_site_fract_y
 _atom_site_fract_z
 _atom_site_occupancy
 _atom_site_charge
Ca  Ca1  1  0.76135000  0.19888000  0.70275000  1.0 1.3887399955
Ca  Ca2  1  0.23346000  0.33892000  0.81085000  1.0 1.3780240341
Ca  Ca3  1  0.50153000  0.82216000  0.15676000  1.0 1.3887399955
Ca  Ca4  1  0.62162000  0.22243000  0.27308000  1.0 1.4379784091
Ca  Ca5  1  0.99640000  0.65694000  0.31759000  1.0 1.3780240341
Ca  Ca6  1  0.23865000  0.80112000  0.29725000  1.0 1.3887399955
Ca  Ca7  1  0.76654000  0.66108000  0.18915000  1.0 1.3780240341
Ca  Ca8  1  0.49847000  0.17784000  0.84324000  1.0 1.3887399955
Ca  Ca9  1  0.37838000  0.77757000  0.72692000  1.0 1.4179761632
Ca  Ca10  1  0.00360000  0.34306000  0.68241000  1.0 1.3780240341
P  P1  1  0.39834000  0.29397000  0.37169000  1.0 1.0796379868
P  P2  1  0.84092000  0.17767000  0.16072000  1.0 1.074513696
P  P3  1  0.60166000  0.70603000  0.62831000  1.0 1.0796379868
P  P4  1  0.15908000  0.82233000  0.83928000  1.0 1.0796379868
H  H1  1  0.36569000  0.65148000  0.24503000  1.0 0.0994826042
H  H2  1  0.38083000  0.26966000  0.68556000  1.0 0.0994826042
H  H3  1  0.00112000  0.05034000  0.21173000  1.0 0.1203062523
H  H4  1  0.87127000  0.24750000  0.83990000  1.0 0.0994826042
H  H5  1  0.24544000  0.29397000  0.48963000  1.0 0.1203062523
H  H6  1  0.53516000  0.43455000  0.30195000  1.0 0.11305245
H  H7  1  0.88232000  0.82196000  0.22520000  1.0 0.0994826042
H  H8  1  0.70781000  0.18143000  0.04483000  1.0 0.1203062523
H  H9  1  0.99829000  0.23700000  0.03659000  1.0 0.1203062523
H  H10  1  0.53992000  0.26738000  0.48763000  1.0 0.1203062523
H  H11  1  0.71479000  0.04127000  0.17366000  1.0 0.1203062523
H  H12  1  0.24047000  0.41671000  0.34072000  1.0 0.1203062523
H  H13  1  0.63431000  0.34852000  0.75497000  1.0 0.0994826042
H  H14  1  0.61917000  0.73034000  0.31444000  1.0 0.0994826042
H  H15  1  0.99888000  0.94966000  0.78827000  1.0 0.1203062523
H  H16  1  0.12873000  0.75250000  0.16010000  1.0 0.0994826042
H  H17  1  0.75456000  0.70603000  0.51037000  1.0 0.1203062523
H  H18  1  0.46484000  0.56545000  0.69805000  1.0 0.11305245
H  H19  1  0.11768000  0.17804000  0.77480000  1.0 0.0994826042
H  H20  1  0.29219000  0.81857000  0.95517000  1.0 0.1203062523
H  H21  1  0.00171000  0.76300000  0.96341000  1.0 0.1203062523
H  H22  1  0.46008000  0.73262000  0.51237000  1.0 0.1203062523
H  H23  1  0.28521000  0.95873000  0.82634000  1.0 0.1203062523
H  H24  1  0.75953000  0.58329000  0.65928000  1.0 0.1203062523
C  C1  1  0.28860000  0.54070000  0.29600000  1.0 -0.0211618968
C  C2  1  0.77770000  0.21010000  0.93770000  1.0 -0.0313202768
C  C3  1  0.37180000  0.59030000  0.26610000  1.0 -0.1151242555
C  C4  1  0.95720000  0.92840000  0.22330000  1.0 -0.0313202768
C  C5  1  0.47440000  0.26330000  0.59410000  1.0 -0.0211618968
C  C6  1  0.78640000  0.92370000  0.19610000  1.0 -0.0211618968
C  C7  1  0.38390000  0.27200000  0.63230000  1.0 -0.1080587638
C  C8  1  0.94630000  0.01810000  0.20840000  1.0 -0.0921905174
C  C9  1  0.56480000  0.24500000  0.63800000  1.0 0.5798110365
C  C10  1  0.86640000  0.23670000  0.89480000  1.0 -0.1006718031
C  C11  1  0.30370000  0.28790000  0.51600000  1.0 -0.0921905174
C  C12  1  0.70050000  0.87540000  0.18590000  1.0 0.5798110365
C  C13  1  0.47210000  0.46140000  0.29910000  1.0 -0.1080587638
C  C14  1  0.94750000  0.24760000  0.93120000  1.0 -0.0313202768
C  C15  1  0.20310000  0.30050000  0.63260000  1.0 0.5737167223
C  C16  1  0.46260000  0.55130000  0.26680000  1.0 -0.0211618968
C  C17  1  0.29720000  0.28430000  0.59380000  1.0 -0.0462353119
C  C18  1  0.87610000  0.88260000  0.21620000  1.0 -0.1080587638
C  C19  1  0.85870000  0.06100000  0.18920000  1.0 -0.1597734489
C  C20  1  0.19150000  0.58400000  0.29920000  1.0 0.5798110365
C  C21  1  0.85150000  0.20550000  0.05570000  1.0 -0.1597734489
C  C22  1  0.39530000  0.28280000  0.47500000  1.0 -0.1597734489
C  C23  1  0.76940000  0.19680000  0.01630000  1.0 -0.0921905174
C  C24  1  0.94200000  0.23110000  0.01150000  1.0 -0.0921905174
C  C25  1  0.47810000  0.27080000  0.51470000  1.0 -0.1006718031
C  C26  1  0.77650000  0.01300000  0.18460000  1.0 -0.1006718031
C  C27  1  0.55460000  0.60370000  0.23510000  1.0 0.5975926145
C  C28  1  0.38810000  0.41080000  0.32730000  1.0 -0.1597734489
C  C29  1  0.69140000  0.19530000  0.89900000  1.0 0.5894993617
C  C30  1  0.04140000  0.27830000  0.88380000  1.0 0.5894993617
C  C31  1  0.05060000  0.88350000  0.24710000  1.0 0.5798110365
C  C32  1  0.29770000  0.45080000  0.32390000  1.0 -0.1006718031
C  C33  1  0.71140000  0.45930000  0.70400000  1.0 -0.0211618968
C  C34  1  0.22230000  0.78990000  0.06230000  1.0 -0.0313202768
C  C35  1  0.62820000  0.40970000  0.73390000  1.0 -0.1080587638
C  C36  1  0.04280000  0.07160000  0.77670000  1.0 -0.0313202768
C  C37  1  0.52560000  0.73670000  0.40590000  1.0 -0.0211618968
C  C38  1  0.21360000  0.07630000  0.80390000  1.0 -0.0211618968
C  C39  1  0.61610000  0.72800000  0.36770000  1.0 -0.1080587638
C  C40  1  0.05370000  0.98190000  0.79160000  1.0 -0.0921905174
C  C41  1  0.43520000  0.75500000  0.36200000  1.0 0.5798110365
C  C42  1  0.13360000  0.76330000  0.10520000  1.0 -0.1080587638
C  C43  1  0.69630000  0.71210000  0.48400000  1.0 -0.0921905174
C  C44  1  0.29950000  0.12460000  0.81410000  1.0 0.5798110365
C  C45  1  0.52790000  0.53860000  0.70090000  1.0 -0.1080587638
C  C46  1  0.05250000  0.75240000  0.06880000  1.0 -0.0313202768
C  C47  1  0.79690000  0.69950000  0.36740000  1.0 0.5737167223
C  C48  1  0.53740000  0.44870000  0.73320000  1.0 -0.0211618968
C  C49  1  0.70280000  0.71570000  0.40620000  1.0 -0.0462353119
C  C50  1  0.12390000  0.11740000  0.78380000  1.0 -0.1080587638
C  C51  1  0.14130000  0.93900000  0.81080000  1.0 -0.1656873004
C  C52  1  0.80850000  0.41600000  0.70080000  1.0 0.5798110365
C  C53  1  0.14850000  0.79450000  0.94430000  1.0 -0.1597734489
C  C54  1  0.60470000  0.71720000  0.52500000  1.0 -0.1597734489
C  C55  1  0.23060000  0.80320000  0.98370000  1.0 -0.0921905174
C  C56  1  0.05800000  0.76890000  0.98850000  1.0 -0.0921905174
C  C57  1  0.52190000  0.72920000  0.48530000  1.0 -0.0921905174
C  C58  1  0.22350000  0.98700000  0.81540000  1.0 -0.1006718031
C  C59  1  0.44540000  0.39630000  0.76490000  1.0 0.5975926145
C  C60  1  0.61190000  0.58920000  0.67270000  1.0 -0.1597734489
C  C61  1  0.30860000  0.80470000  0.10100000  1.0 0.5894993617
C  C62  1  0.95860000  0.72170000  0.11620000  1.0 0.5894993617
C  C63  1  0.94940000  0.11650000  0.75290000  1.0 0.5798110365
C  C64  1  0.70230000  0.54920000  0.67610000  1.0 -0.1006718031
O  O1  1  0.73670000  0.19500000  0.18550000  1.0 -0.8585603015
O  O2  1  0.04280000  0.30980000  0.81180000  1.0 -0.6533389167
O  O3  1  0.49610000  0.26390000  0.34660000  1.0 -0.8434489743
O  O4  1  0.30770000  0.25550000  0.35590000  1.0 -0.5803539133
O  O5  1  0.18720000  0.66160000  0.30160000  1.0 -0.6782158465
O  O6  1  0.12690000  0.92520000  0.24030000  1.0 -0.5803539133
O  O7  1  0.92260000  0.21960000  0.18650000  1.0 -0.6100936831
O  O8  1  0.19900000  0.32860000  0.68860000  1.0 -0.6380421099
O  O9  1  0.55740000  0.21840000  0.71170000  1.0 -0.6782158465
O  O10  1  0.11370000  0.54350000  0.30360000  1.0 -0.6026442425
O  O11  1  0.64790000  0.25710000  0.60040000  1.0 -0.6223837511
O  O12  1  0.05210000  0.80110000  0.27370000  1.0 -0.6782158465
O  O13  1  0.12480000  0.28490000  0.60690000  1.0 -0.6100936831
O  O14  1  0.71370000  0.80480000  0.17560000  1.0 -0.6223837511
O  O15  1  0.70160000  0.19720000  0.82790000  1.0 -0.6782158465
O  O16  1  0.61000000  0.18040000  0.93790000  1.0 -0.6100936831
O  O17  1  0.61650000  0.91210000  0.18510000  1.0 -0.6380421099
O  O18  1  0.54410000  0.67810000  0.18830000  1.0 -0.6569640414
O  O19  1  0.63570000  0.57200000  0.25610000  1.0 -0.6100936831
O  O20  1  0.11940000  0.27060000  0.92070000  1.0 -0.6223837511
O  O21  1  0.26330000  0.80500000  0.81450000  1.0 -0.8585603015
O  O22  1  0.95720000  0.69020000  0.18820000  1.0 -0.6533389167
O  O23  1  0.50390000  0.73610000  0.65340000  1.0 -0.8434489743
O  O24  1  0.69230000  0.74450000  0.64410000  1.0 -0.5738769547
O  O25  1  0.81280000  0.33840000  0.69840000  1.0 -0.6782158465
O  O26  1  0.87310000  0.07480000  0.75970000  1.0 -0.5803539133
O  O27  1  0.07740000  0.78040000  0.81350000  1.0 -0.6100936831
O  O28  1  0.80100000  0.67140000  0.31140000  1.0 -0.6380421099
O  O29  1  0.44260000  0.78160000  0.28830000  1.0 -0.6782158465
O  O30  1  0.88630000  0.45650000  0.69640000  1.0 -0.6026442425
O  O31  1  0.35210000  0.74290000  0.39960000  1.0 -0.6223837511
O  O32  1  0.94790000  0.19890000  0.72630000  1.0 -0.6782158465
O  O33  1  0.87520000  0.71510000  0.39310000  1.0 -0.6100936831
O  O34  1  0.28630000  0.19520000  0.82440000  1.0 -0.6223837511
O  O35  1  0.29840000  0.80280000  0.17210000  1.0 -0.6782158465
O  O36  1  0.39000000  0.81960000  0.06210000  1.0 -0.6100936831
O  O37  1  0.38350000  0.08790000  0.81490000  1.0 -0.6349105613
O  O38  1  0.45590000  0.32190000  0.81170000  1.0 -0.6569640414
O  O39  1  0.36430000  0.42800000  0.74390000  1.0 -0.6100936831
O  O40  1  0.88060000  0.72940000  0.07930000  1.0 -0.6223837511
