# DDEC6 charges by PACMAN v1.1 (https://github.com/mtap-research/PACMAN-charge/)
data_KABJUW_ASR_pacman
_symmetry_space_group_name_H-M   'P 1'
_cell_length_a   5.67470000
_cell_length_b   10.96700000
_cell_length_c   38.77110000
_cell_angle_alpha   90.00000000
_cell_angle_beta   94.68350000
_cell_angle_gamma   90.00000000
_symmetry_Int_Tables_number   1
_chemical_formula_structural   CaPC7O6
_chemical_formula_sum   'Ca8 P8 C56 O48'
_cell_volume   2404.84069447
_cell_formula_units_Z   8
loop_
 _symmetry_equiv_pos_site_id
 _symmetry_equiv_pos_as_xyz
  1  'x, y, z'
loop_
 _atom_site_type_symbol
 _atom_site_label
 _atom_site_symmetry_multiplicity
 _atom_site_fract_x
 _atom_site_fract_y
 _atom_site_fract_z
 _atom_site_occupancy
 _atom_site_charge
Ca  Ca1  1  0.31553000  0.06020000  0.83613000  1.0 1.4482138064
Ca  Ca2  1  0.41434000  0.56310000  0.82424000  1.0 1.4370069709
Ca  Ca3  1  0.91439000  0.79460000  0.82389000  1.0 1.4370069709
Ca  Ca4  1  0.81228000  0.29200000  0.83468000  1.0 1.4552378562
Ca  Ca5  1  0.31553000  0.93980000  0.33613000  1.0 1.4482138064
Ca  Ca6  1  0.41434000  0.43690000  0.32424000  1.0 1.4370069709
Ca  Ca7  1  0.91439000  0.20540000  0.32389000  1.0 1.4370069709
Ca  Ca8  1  0.81228000  0.70800000  0.33468000  1.0 1.4552378562
P  P1  1  0.27846000  0.35660000  0.87526000  1.0 1.3095284607
P  P2  1  0.45035000  0.85660000  0.78315000  1.0 1.3095284607
P  P3  1  0.94200000  0.50400000  0.78170000  1.0 1.319135597
P  P4  1  0.78058000  0.99990000  0.87708000  1.0 1.3095284607
P  P5  1  0.27846000  0.64340000  0.37526000  1.0 1.3095284607
P  P6  1  0.45035000  0.14340000  0.28315000  1.0 1.3095284607
P  P7  1  0.94200000  0.49600000  0.28170000  1.0 1.319135597
P  P8  1  0.78058000  0.00010000  0.37708000  1.0 1.3095284607
C  C1  1  0.34090000  0.36020000  0.92190000  1.0 -0.224468926
C  C2  1  0.84460000  0.01240000  0.92360000  1.0 -0.2286964524
C  C3  1  0.37730000  0.86330000  0.73730000  1.0 -0.2433183882
C  C4  1  0.86020000  0.52270000  0.73620000  1.0 -0.2466436866
C  C5  1  0.25260000  0.88920000  0.66560000  1.0 -0.0541601162
C  C6  1  0.73770000  0.55150000  0.66470000  1.0 -0.0245571975
C  C7  1  0.43530000  0.36670000  0.99330000  1.0 -0.0086219874
C  C8  1  0.94800000  0.04370000  0.99400000  1.0 -0.0086219874
C  C9  1  0.01610000  0.06130000  0.03210000  1.0 0.5684667733
C  C10  1  0.67570000  0.56970000  0.62670000  1.0 0.5641052332
C  C11  1  0.48540000  0.37720000  0.03240000  1.0 0.578208318
C  C12  1  0.19180000  0.89910000  0.62880000  1.0 0.5490255561
C  C13  1  0.01770000  0.57980000  0.71470000  1.0 0.0804297819
C  C14  1  0.96360000  0.59320000  0.67960000  1.0 0.0804297819
C  C15  1  0.58330000  0.49080000  0.68530000  1.0 0.0311872913
C  C16  1  0.68070000  0.97330000  0.94670000  1.0 0.1013671812
C  C17  1  0.64210000  0.47960000  0.72110000  1.0 0.1096395729
C  C18  1  0.73580000  0.99310000  0.98180000  1.0 0.0613880854
C  C19  1  0.10890000  0.08490000  0.97190000  1.0 0.0390509139
C  C20  1  0.47450000  0.83170000  0.67750000  1.0 0.1096395729
C  C21  1  0.53260000  0.82040000  0.71300000  1.0 0.0695913465
C  C22  1  0.17050000  0.40780000  0.94250000  1.0 0.1096395729
C  C23  1  0.22190000  0.40670000  0.97890000  1.0 0.0613880854
C  C24  1  0.05630000  0.07250000  0.93630000  1.0 0.0804297819
C  C25  1  0.15820000  0.91690000  0.72420000  1.0 0.1096395729
C  C26  1  0.10230000  0.92810000  0.68930000  1.0 0.0141344797
C  C27  1  0.55160000  0.31650000  0.93730000  1.0 0.0613880854
C  C28  1  0.59460000  0.31680000  0.97260000  1.0 0.0390509139
C  C29  1  0.34090000  0.63980000  0.42190000  1.0 -0.224468926
C  C30  1  0.84460000  0.98760000  0.42360000  1.0 -0.2286964524
C  C31  1  0.37730000  0.13670000  0.23730000  1.0 -0.2433183882
C  C32  1  0.86020000  0.47730000  0.23620000  1.0 -0.2466436866
C  C33  1  0.25260000  0.11080000  0.16560000  1.0 -0.0541601162
C  C34  1  0.73770000  0.44850000  0.16470000  1.0 -0.0245571975
C  C35  1  0.43530000  0.63330000  0.49330000  1.0 -0.0086219874
C  C36  1  0.94800000  0.95630000  0.49400000  1.0 -0.0086219874
C  C37  1  0.01610000  0.93870000  0.53210000  1.0 0.5684667733
C  C38  1  0.67570000  0.43030000  0.12670000  1.0 0.5641052332
C  C39  1  0.48540000  0.62280000  0.53240000  1.0 0.578208318
C  C40  1  0.19180000  0.10090000  0.12880000  1.0 0.5490255561
C  C41  1  0.01770000  0.42020000  0.21470000  1.0 0.0804297819
C  C42  1  0.96360000  0.40680000  0.17960000  1.0 0.0804297819
C  C43  1  0.58330000  0.50920000  0.18530000  1.0 0.0311872913
C  C44  1  0.68070000  0.02670000  0.44670000  1.0 0.1013671812
C  C45  1  0.64210000  0.52040000  0.22110000  1.0 0.1096395729
C  C46  1  0.73580000  0.00690000  0.48180000  1.0 0.0613880854
C  C47  1  0.10890000  0.91510000  0.47190000  1.0 0.0390509139
C  C48  1  0.47450000  0.16830000  0.17750000  1.0 0.1096395729
C  C49  1  0.53260000  0.17960000  0.21300000  1.0 0.0695913465
C  C50  1  0.17050000  0.59220000  0.44250000  1.0 0.1096395729
C  C51  1  0.22190000  0.59330000  0.47890000  1.0 0.0613880854
C  C52  1  0.05630000  0.92750000  0.43630000  1.0 0.0804297819
C  C53  1  0.15820000  0.08310000  0.22420000  1.0 0.1096395729
C  C54  1  0.10230000  0.07190000  0.18930000  1.0 0.0141344797
C  C55  1  0.55160000  0.68350000  0.43730000  1.0 0.0695913465
C  C56  1  0.59460000  0.68320000  0.47260000  1.0 0.0390509139
O  O1  1  0.68550000  0.12360000  0.86370000  1.0 -0.8115156386
O  O2  1  0.27690000  0.72100000  0.86370000  1.0 -0.4281710032
O  O3  1  0.77930000  0.63210000  0.86140000  1.0 -0.4882872198
O  O4  1  0.18320000  0.22890000  0.86460000  1.0 -0.8115156386
O  O5  1  0.59090000  0.90670000  0.86990000  1.0 -0.680353025
O  O6  1  0.22470000  0.88930000  0.80000000  1.0 -0.7975895497
O  O7  1  0.50740000  0.39180000  0.86040000  1.0 -0.7825213962
O  O8  1  0.72080000  0.46120000  0.79750000  1.0 -0.7825213962
O  O9  1  0.04370000  0.62180000  0.79490000  1.0 -0.7825213962
O  O10  1  0.64630000  0.94840000  0.79210000  1.0 -0.680353025
O  O11  1  0.68730000  0.33150000  0.04490000  1.0 -0.3102439511
O  O12  1  0.00490000  0.95060000  0.61790000  1.0 -0.2929801587
O  O13  1  0.34940000  0.44370000  0.04840000  1.0 -0.2987061236
O  O14  1  0.33850000  0.85420000  0.60750000  1.0 -0.2987061236
O  O15  1  0.19720000  0.11590000  0.04340000  1.0 -0.3386508319
O  O16  1  0.48370000  0.53060000  0.61450000  1.0 -0.3174034003
O  O17  1  0.81590000  0.63170000  0.60990000  1.0 -0.3305667731
O  O18  1  0.86230000  0.01700000  0.05230000  1.0 -0.3102439511
O  O19  1  0.01210000  0.96200000  0.86180000  1.0 -0.7891668174
O  O20  1  0.13490000  0.40310000  0.78560000  1.0 -0.6658132467
O  O21  1  0.45940000  0.21810000  0.79700000  1.0 -0.4685289953
O  O22  1  0.08580000  0.45180000  0.86440000  1.0 -0.6903725955
O  O23  1  0.96150000  0.13120000  0.79740000  1.0 -0.454077566
O  O24  1  0.54410000  0.73020000  0.79380000  1.0 -0.7975895497
O  O25  1  0.68550000  0.87640000  0.36370000  1.0 -0.8115156386
O  O26  1  0.27690000  0.27900000  0.36370000  1.0 -0.4281710032
O  O27  1  0.77930000  0.36790000  0.36140000  1.0 -0.4882872198
O  O28  1  0.18320000  0.77110000  0.36460000  1.0 -0.8115156386
O  O29  1  0.59090000  0.09330000  0.36990000  1.0 -0.680353025
O  O30  1  0.22470000  0.11070000  0.30000000  1.0 -0.7975895497
O  O31  1  0.50740000  0.60820000  0.36040000  1.0 -0.7825213962
O  O32  1  0.72080000  0.53880000  0.29750000  1.0 -0.7825213962
O  O33  1  0.04370000  0.37820000  0.29490000  1.0 -0.7825213962
O  O34  1  0.64630000  0.05160000  0.29210000  1.0 -0.680353025
O  O35  1  0.68730000  0.66850000  0.54490000  1.0 -0.3102439511
O  O36  1  0.00490000  0.04940000  0.11790000  1.0 -0.2929801587
O  O37  1  0.34940000  0.55630000  0.54840000  1.0 -0.2987061236
O  O38  1  0.33850000  0.14580000  0.10750000  1.0 -0.2987061236
O  O39  1  0.19720000  0.88410000  0.54340000  1.0 -0.3386508319
O  O40  1  0.48370000  0.46940000  0.11450000  1.0 -0.3174034003
O  O41  1  0.81590000  0.36830000  0.10990000  1.0 -0.3305667731
O  O42  1  0.86230000  0.98300000  0.55230000  1.0 -0.3102439511
O  O43  1  0.01210000  0.03800000  0.36180000  1.0 -0.7891668174
O  O44  1  0.13490000  0.59690000  0.28560000  1.0 -0.6658132467
O  O45  1  0.45940000  0.78190000  0.29700000  1.0 -0.4685289953
O  O46  1  0.08580000  0.54820000  0.36440000  1.0 -0.6903725955
O  O47  1  0.96150000  0.86880000  0.29740000  1.0 -0.454077566
O  O48  1  0.54410000  0.26980000  0.29380000  1.0 -0.7975895497
