# DDEC6 charges by PACMAN v1.1 (https://github.com/mtap-research/PACMAN-charge/)
data_KABPIQ_FSR_pacman
_symmetry_space_group_name_H-M   'P 1'
_cell_length_a   29.39250000
_cell_length_b   29.39250000
_cell_length_c   29.39250000
_cell_angle_alpha   99.05100000
_cell_angle_beta   99.05100000
_cell_angle_gamma   99.05100000
_symmetry_Int_Tables_number   1
_chemical_formula_structural   In2H66RuC104(NO3)6
_chemical_formula_sum   'In12 H396 Ru6 C624 N36 O108'
_cell_volume   24328.98998018
_cell_formula_units_Z   6
loop_
 _symmetry_equiv_pos_site_id
 _symmetry_equiv_pos_as_xyz
  1  'x, y, z'
loop_
 _atom_site_type_symbol
 _atom_site_label
 _atom_site_symmetry_multiplicity
 _atom_site_fract_x
 _atom_site_fract_y
 _atom_site_fract_z
 _atom_site_occupancy
 _atom_site_charge
In  In1  1  0.91547000  0.20091000  0.76888000  1.0 1.3452123828
In  In2  1  0.49334000  0.36038000  0.06885000  1.0 1.2066389269
In  In3  1  0.20091000  0.76888000  0.91547000  1.0 1.3442506022
In  In4  1  0.36038000  0.06885000  0.49334000  1.0 1.2066389269
In  In5  1  0.76888000  0.91547000  0.20091000  1.0 1.3452123828
In  In6  1  0.06885000  0.49334000  0.36038000  1.0 1.2045923896
In  In7  1  0.08453000  0.79909000  0.23112000  1.0 1.3442506022
In  In8  1  0.50666000  0.63962000  0.93115000  1.0 1.2066389269
In  In9  1  0.79909000  0.23112000  0.08453000  1.0 1.3452123828
In  In10  1  0.63962000  0.93115000  0.50666000  1.0 1.2066389269
In  In11  1  0.23112000  0.08453000  0.79909000  1.0 1.3442506022
In  In12  1  0.93115000  0.50666000  0.63962000  1.0 1.2066389269
H  H1  1  0.18380000  0.54600000  0.03200000  1.0 0.1196519736
H  H2  1  0.12780000  0.48160000  0.99190000  1.0 0.1292146202
H  H3  1  0.14170000  0.40630000  0.99450000  1.0 0.1196519736
H  H4  1  0.21120000  0.39560000  0.03740000  1.0 0.1292146202
H  H5  1  0.28100000  0.39030000  0.07190000  1.0 0.1196519736
H  H6  1  0.35580000  0.39320000  0.11330000  1.0 0.1292146202
H  H7  1  0.40000000  0.46450000  0.15440000  1.0 0.1292146202
H  H8  1  0.36970000  0.53260000  0.15380000  1.0 0.110386086
H  H9  1  0.37190000  0.63490000  0.13720000  1.0 0.110386086
H  H10  1  0.41030000  0.68730000  0.20480000  1.0 0.1196519736
H  H11  1  0.37840000  0.69100000  0.27230000  1.0 0.1196519736
H  H12  1  0.30810000  0.64250000  0.27230000  1.0 0.1196519736
H  H13  1  0.24520000  0.59600000  0.26470000  1.0 0.110386086
H  H14  1  0.17240000  0.54720000  0.25100000  1.0 0.0771772863
H  H15  1  0.14140000  0.50240000  0.17710000  1.0 0.1196519736
H  H16  1  0.18330000  0.50640000  0.11680000  1.0 0.0999061184
H  H17  1  0.19270000  0.61450000  0.11810000  1.0 0.110386086
H  H18  1  0.17010000  0.68140000  0.09630000  1.0 0.1367106325
H  H19  1  0.20870000  0.71950000  0.04600000  1.0 0.1292146202
H  H20  1  0.26990000  0.69080000  0.01740000  1.0 0.1367106325
H  H21  1  0.32170000  0.65880000  0.98770000  1.0 0.1367106325
H  H22  1  0.38170000  0.62210000  0.96710000  1.0 0.1196519736
H  H23  1  0.39900000  0.55860000  0.00010000  1.0 0.1367106325
H  H24  1  0.35600000  0.53190000  0.05360000  1.0 0.110386086
H  H25  1  0.08110000  0.25830000  0.81070000  1.0 0.1196519736
H  H26  1  0.15010000  0.31130000  0.84350000  1.0 0.110386086
H  H27  1  0.07160000  0.40500000  0.88650000  1.0 0.110386086
H  H28  1  0.00280000  0.34660000  0.84870000  1.0 0.1196519736
H  H29  1  0.20270000  0.35570000  0.91330000  1.0 0.110386086
H  H30  1  0.26660000  0.48920000  0.94330000  1.0 0.110386086
H  H31  1  0.13530000  0.45840000  0.87380000  1.0 0.110386086
H  H32  1  0.26640000  0.55010000  0.89910000  1.0 0.110386086
H  H33  1  0.13280000  0.52940000  0.91270000  1.0 0.110386086
H  H34  1  0.32640000  0.47050000  0.96700000  1.0 0.110386086
H  H35  1  0.39450000  0.45040000  0.00300000  1.0 0.110386086
H  H36  1  0.32670000  0.31780000  0.98980000  1.0 0.1196519736
H  H37  1  0.25860000  0.33790000  0.95380000  1.0 0.110386086
H  H38  1  0.74570000  0.14420000  0.72740000  1.0 0.1292146202
H  H39  1  0.67030000  0.14840000  0.73230000  1.0 0.110386086
H  H40  1  0.71210000  0.26690000  0.82400000  1.0 0.1196519736
H  H41  1  0.78980000  0.26430000  0.81490000  1.0 0.110386086
H  H42  1  0.50780000  0.21430000  0.78810000  1.0 0.110386086
H  H43  1  0.64400000  0.24280000  0.84930000  1.0 0.110386086
H  H44  1  0.60540000  0.18280000  0.71300000  1.0 0.1196519736
H  H45  1  0.60610000  0.22710000  0.91700000  1.0 0.1196519736
H  H46  1  0.58410000  0.26200000  0.98450000  1.0 0.110386086
H  H47  1  0.49170000  0.31910000  0.90640000  1.0 0.1196519736
H  H48  1  0.51360000  0.28420000  0.83900000  1.0 0.1196519736
H  H49  1  0.54720000  0.12750000  0.67170000  1.0 0.1196519736
H  H50  1  0.46240000  0.20260000  0.73030000  1.0 0.0902593687
H  H51  1  0.95430000  0.05660000  0.80080000  1.0 0.1196519736
H  H52  1  0.92080000  0.13380000  0.91160000  1.0 0.1292146202
H  H53  1  0.92680000  0.07340000  0.95190000  1.0 0.110386086
H  H54  1  0.95580000  0.99500000  0.84230000  1.0 0.1196519736
H  H55  1  0.49580000  0.09850000  0.60840000  1.0 0.1196519736
H  H56  1  0.41350000  0.18400000  0.64750000  1.0 0.1196519736
H  H57  1  0.43680000  0.41220000  0.20410000  1.0 0.110386086
H  H58  1  0.39280000  0.40390000  0.26240000  1.0 0.110386086
H  H59  1  0.37990000  0.26380000  0.23000000  1.0 0.110386086
H  H60  1  0.42370000  0.27220000  0.17180000  1.0 0.1292146202
H  H61  1  0.36970000  0.26920000  0.30800000  1.0 0.0999061184
H  H62  1  0.00070000  0.96890000  0.89970000  1.0 0.110386086
H  H63  1  0.26740000  0.62750000  0.89870000  1.0 0.1196519736
H  H64  1  0.13610000  0.61380000  0.92190000  1.0 0.1196519736
H  H65  1  0.47130000  0.22330000  0.70610000  1.0 0.0902593687
H  H66  1  0.40340000  0.31570000  0.34210000  1.0 0.110386086
H  H67  1  0.54600000  0.03200000  0.18380000  1.0 0.1196519736
H  H68  1  0.48160000  0.99190000  0.12780000  1.0 0.1196519736
H  H69  1  0.40630000  0.99450000  0.14170000  1.0 0.1196519736
H  H70  1  0.39560000  0.03740000  0.21120000  1.0 0.1292146202
H  H71  1  0.39030000  0.07190000  0.28100000  1.0 0.1196519736
H  H72  1  0.39320000  0.11330000  0.35580000  1.0 0.1292146202
H  H73  1  0.46450000  0.15440000  0.40000000  1.0 0.1292146202
H  H74  1  0.53260000  0.15380000  0.36970000  1.0 0.110386086
H  H75  1  0.63490000  0.13720000  0.37190000  1.0 0.110386086
H  H76  1  0.68730000  0.20480000  0.41030000  1.0 0.1196519736
H  H77  1  0.69100000  0.27230000  0.37840000  1.0 0.1196519736
H  H78  1  0.64250000  0.27230000  0.30810000  1.0 0.1196519736
H  H79  1  0.59600000  0.26470000  0.24520000  1.0 0.110386086
H  H80  1  0.54720000  0.25100000  0.17240000  1.0 0.0771772863
H  H81  1  0.50240000  0.17710000  0.14140000  1.0 0.1196519736
H  H82  1  0.50640000  0.11680000  0.18330000  1.0 0.0999061184
H  H83  1  0.61450000  0.11810000  0.19270000  1.0 0.110386086
H  H84  1  0.68140000  0.09630000  0.17010000  1.0 0.1367106325
H  H85  1  0.71950000  0.04600000  0.20870000  1.0 0.1292146202
H  H86  1  0.69080000  0.01740000  0.26990000  1.0 0.1367106325
H  H87  1  0.65880000  0.98770000  0.32170000  1.0 0.1367106325
H  H88  1  0.62210000  0.96710000  0.38170000  1.0 0.1196519736
H  H89  1  0.55860000  0.00010000  0.39900000  1.0 0.1367106325
H  H90  1  0.53190000  0.05360000  0.35600000  1.0 0.110386086
H  H91  1  0.25830000  0.81070000  0.08110000  1.0 0.1196519736
H  H92  1  0.31130000  0.84350000  0.15010000  1.0 0.110386086
H  H93  1  0.40500000  0.88650000  0.07160000  1.0 0.110386086
H  H94  1  0.34660000  0.84870000  0.00280000  1.0 0.1196519736
H  H95  1  0.35570000  0.91330000  0.20270000  1.0 0.110386086
H  H96  1  0.48920000  0.94330000  0.26660000  1.0 0.110386086
H  H97  1  0.45840000  0.87380000  0.13530000  1.0 0.110386086
H  H98  1  0.55010000  0.89910000  0.26640000  1.0 0.110386086
H  H99  1  0.52940000  0.91270000  0.13280000  1.0 0.110386086
H  H100  1  0.47050000  0.96700000  0.32640000  1.0 0.0999061184
H  H101  1  0.45040000  0.00300000  0.39450000  1.0 0.110386086
H  H102  1  0.31780000  0.98980000  0.32670000  1.0 0.1196519736
H  H103  1  0.33790000  0.95380000  0.25860000  1.0 0.110386086
H  H104  1  0.14420000  0.72740000  0.74570000  1.0 0.1292146202
H  H105  1  0.14840000  0.73230000  0.67030000  1.0 0.110386086
H  H106  1  0.26690000  0.82400000  0.71210000  1.0 0.1196519736
H  H107  1  0.26430000  0.81490000  0.78980000  1.0 0.110386086
H  H108  1  0.21430000  0.78810000  0.50780000  1.0 0.110386086
H  H109  1  0.24280000  0.84930000  0.64400000  1.0 0.110386086
H  H110  1  0.18280000  0.71300000  0.60540000  1.0 0.1196519736
H  H111  1  0.22710000  0.91700000  0.60610000  1.0 0.1196519736
H  H112  1  0.26200000  0.98450000  0.58410000  1.0 0.110386086
H  H113  1  0.31910000  0.90640000  0.49170000  1.0 0.1196519736
H  H114  1  0.28420000  0.83900000  0.51360000  1.0 0.1196519736
H  H115  1  0.12750000  0.67170000  0.54720000  1.0 0.1196519736
H  H116  1  0.20260000  0.73030000  0.46240000  1.0 0.0902593687
H  H117  1  0.05660000  0.80080000  0.95430000  1.0 0.1196519736
H  H118  1  0.13380000  0.91160000  0.92080000  1.0 0.1292146202
H  H119  1  0.07340000  0.95190000  0.92680000  1.0 0.110386086
H  H120  1  0.99500000  0.84230000  0.95580000  1.0 0.1196519736
H  H121  1  0.09850000  0.60840000  0.49580000  1.0 0.1196519736
H  H122  1  0.18400000  0.64750000  0.41350000  1.0 0.1196519736
H  H123  1  0.41220000  0.20410000  0.43680000  1.0 0.110386086
H  H124  1  0.40390000  0.26240000  0.39280000  1.0 0.110386086
H  H125  1  0.26380000  0.23000000  0.37990000  1.0 0.110386086
H  H126  1  0.27220000  0.17180000  0.42370000  1.0 0.1292146202
H  H127  1  0.26920000  0.30800000  0.36970000  1.0 0.0999061184
H  H128  1  0.96890000  0.89970000  0.00070000  1.0 0.110386086
H  H129  1  0.62750000  0.89870000  0.26740000  1.0 0.1196519736
H  H130  1  0.61380000  0.92190000  0.13610000  1.0 0.1196519736
H  H131  1  0.22330000  0.70610000  0.47130000  1.0 0.0902593687
H  H132  1  0.31570000  0.34210000  0.40340000  1.0 0.110386086
H  H133  1  0.03200000  0.18380000  0.54600000  1.0 0.1196519736
H  H134  1  0.99190000  0.12780000  0.48160000  1.0 0.1196519736
H  H135  1  0.99450000  0.14170000  0.40630000  1.0 0.1196519736
H  H136  1  0.03740000  0.21120000  0.39560000  1.0 0.1292146202
H  H137  1  0.07190000  0.28100000  0.39030000  1.0 0.1196519736
H  H138  1  0.11330000  0.35580000  0.39320000  1.0 0.1292146202
H  H139  1  0.15440000  0.40000000  0.46450000  1.0 0.1292146202
H  H140  1  0.15380000  0.36970000  0.53260000  1.0 0.110386086
H  H141  1  0.13720000  0.37190000  0.63490000  1.0 0.110386086
H  H142  1  0.20480000  0.41030000  0.68730000  1.0 0.1196519736
H  H143  1  0.27230000  0.37840000  0.69100000  1.0 0.1196519736
H  H144  1  0.27230000  0.30810000  0.64250000  1.0 0.1196519736
H  H145  1  0.26470000  0.24520000  0.59600000  1.0 0.110386086
H  H146  1  0.25100000  0.17240000  0.54720000  1.0 0.0771772863
H  H147  1  0.17710000  0.14140000  0.50240000  1.0 0.1196519736
H  H148  1  0.11680000  0.18330000  0.50640000  1.0 0.0999061184
H  H149  1  0.11810000  0.19270000  0.61450000  1.0 0.110386086
H  H150  1  0.09630000  0.17010000  0.68140000  1.0 0.1367106325
H  H151  1  0.04600000  0.20870000  0.71950000  1.0 0.1292146202
H  H152  1  0.01740000  0.26990000  0.69080000  1.0 0.1367106325
H  H153  1  0.98770000  0.32170000  0.65880000  1.0 0.1367106325
H  H154  1  0.96710000  0.38170000  0.62210000  1.0 0.1196519736
H  H155  1  0.00010000  0.39900000  0.55860000  1.0 0.1367106325
H  H156  1  0.05360000  0.35600000  0.53190000  1.0 0.110386086
H  H157  1  0.81070000  0.08110000  0.25830000  1.0 0.1196519736
H  H158  1  0.84350000  0.15010000  0.31130000  1.0 0.110386086
H  H159  1  0.88650000  0.07160000  0.40500000  1.0 0.110386086
H  H160  1  0.84870000  0.00280000  0.34660000  1.0 0.1196519736
H  H161  1  0.91330000  0.20270000  0.35570000  1.0 0.110386086
H  H162  1  0.94330000  0.26660000  0.48920000  1.0 0.110386086
H  H163  1  0.87380000  0.13530000  0.45840000  1.0 0.110386086
H  H164  1  0.89910000  0.26640000  0.55010000  1.0 0.110386086
H  H165  1  0.91270000  0.13280000  0.52940000  1.0 0.110386086
H  H166  1  0.96700000  0.32640000  0.47050000  1.0 0.0999061184
H  H167  1  0.00300000  0.39450000  0.45040000  1.0 0.110386086
H  H168  1  0.98980000  0.32670000  0.31780000  1.0 0.1196519736
H  H169  1  0.95380000  0.25860000  0.33790000  1.0 0.110386086
H  H170  1  0.72740000  0.74570000  0.14420000  1.0 0.1292146202
H  H171  1  0.73230000  0.67030000  0.14840000  1.0 0.110386086
H  H172  1  0.82400000  0.71210000  0.26690000  1.0 0.1196519736
H  H173  1  0.81490000  0.78980000  0.26430000  1.0 0.110386086
H  H174  1  0.78810000  0.50780000  0.21430000  1.0 0.110386086
H  H175  1  0.84930000  0.64400000  0.24280000  1.0 0.110386086
H  H176  1  0.71300000  0.60540000  0.18280000  1.0 0.1196519736
H  H177  1  0.91700000  0.60610000  0.22710000  1.0 0.1196519736
H  H178  1  0.98450000  0.58410000  0.26200000  1.0 0.110386086
H  H179  1  0.90640000  0.49170000  0.31910000  1.0 0.1196519736
H  H180  1  0.83900000  0.51360000  0.28420000  1.0 0.1196519736
H  H181  1  0.67170000  0.54720000  0.12750000  1.0 0.1196519736
H  H182  1  0.73030000  0.46240000  0.20260000  1.0 0.0902593687
H  H183  1  0.80080000  0.95430000  0.05660000  1.0 0.1196519736
H  H184  1  0.91160000  0.92080000  0.13380000  1.0 0.1292146202
H  H185  1  0.95190000  0.92680000  0.07340000  1.0 0.110386086
H  H186  1  0.84230000  0.95580000  0.99500000  1.0 0.1196519736
H  H187  1  0.60840000  0.49580000  0.09850000  1.0 0.1196519736
H  H188  1  0.64750000  0.41350000  0.18400000  1.0 0.1196519736
H  H189  1  0.20410000  0.43680000  0.41220000  1.0 0.110386086
H  H190  1  0.26240000  0.39280000  0.40390000  1.0 0.110386086
H  H191  1  0.23000000  0.37990000  0.26380000  1.0 0.110386086
H  H192  1  0.17180000  0.42370000  0.27220000  1.0 0.1292146202
H  H193  1  0.30800000  0.36970000  0.26920000  1.0 0.0999061184
H  H194  1  0.89970000  0.00070000  0.96890000  1.0 0.110386086
H  H195  1  0.89870000  0.26740000  0.62750000  1.0 0.1196519736
H  H196  1  0.92190000  0.13610000  0.61380000  1.0 0.1196519736
H  H197  1  0.70610000  0.47130000  0.22330000  1.0 0.0902593687
H  H198  1  0.34210000  0.40340000  0.31570000  1.0 0.110386086
H  H199  1  0.81620000  0.45400000  0.96800000  1.0 0.1196519736
H  H200  1  0.87220000  0.51840000  0.00810000  1.0 0.1196519736
H  H201  1  0.85830000  0.59370000  0.00550000  1.0 0.1196519736
H  H202  1  0.78880000  0.60440000  0.96260000  1.0 0.1292146202
H  H203  1  0.71900000  0.60970000  0.92810000  1.0 0.1196519736
H  H204  1  0.64420000  0.60680000  0.88670000  1.0 0.1292146202
H  H205  1  0.60000000  0.53550000  0.84560000  1.0 0.1292146202
H  H206  1  0.63030000  0.46740000  0.84620000  1.0 0.110386086
H  H207  1  0.62810000  0.36510000  0.86280000  1.0 0.110386086
H  H208  1  0.58970000  0.31270000  0.79520000  1.0 0.1196519736
H  H209  1  0.62160000  0.30900000  0.72770000  1.0 0.1196519736
H  H210  1  0.69190000  0.35750000  0.72770000  1.0 0.1196519736
H  H211  1  0.75480000  0.40400000  0.73530000  1.0 0.110386086
H  H212  1  0.82760000  0.45280000  0.74900000  1.0 0.0771772863
H  H213  1  0.85860000  0.49760000  0.82290000  1.0 0.1196519736
H  H214  1  0.81670000  0.49360000  0.88320000  1.0 0.0999061184
H  H215  1  0.80730000  0.38550000  0.88190000  1.0 0.110386086
H  H216  1  0.82990000  0.31860000  0.90370000  1.0 0.1367106325
H  H217  1  0.79130000  0.28050000  0.95400000  1.0 0.1292146202
H  H218  1  0.73010000  0.30920000  0.98260000  1.0 0.1367106325
H  H219  1  0.67830000  0.34120000  0.01230000  1.0 0.1367106325
H  H220  1  0.61830000  0.37790000  0.03290000  1.0 0.1196519736
H  H221  1  0.60100000  0.44140000  0.99990000  1.0 0.1367106325
H  H222  1  0.64400000  0.46810000  0.94640000  1.0 0.110386086
H  H223  1  0.91890000  0.74170000  0.18930000  1.0 0.1196519736
H  H224  1  0.84990000  0.68870000  0.15650000  1.0 0.110386086
H  H225  1  0.92840000  0.59500000  0.11350000  1.0 0.110386086
H  H226  1  0.99720000  0.65340000  0.15130000  1.0 0.1196519736
H  H227  1  0.79730000  0.64430000  0.08670000  1.0 0.110386086
H  H228  1  0.73340000  0.51080000  0.05670000  1.0 0.110386086
H  H229  1  0.86470000  0.54160000  0.12620000  1.0 0.110386086
H  H230  1  0.73360000  0.44990000  0.10090000  1.0 0.110386086
H  H231  1  0.86720000  0.47060000  0.08730000  1.0 0.0999061184
H  H232  1  0.67360000  0.52950000  0.03300000  1.0 0.110386086
H  H233  1  0.60550000  0.54960000  0.99700000  1.0 0.110386086
H  H234  1  0.67330000  0.68220000  0.01020000  1.0 0.1196519736
H  H235  1  0.74140000  0.66210000  0.04620000  1.0 0.110386086
H  H236  1  0.25430000  0.85580000  0.27260000  1.0 0.1292146202
H  H237  1  0.32970000  0.85160000  0.26770000  1.0 0.110386086
H  H238  1  0.28790000  0.73310000  0.17600000  1.0 0.1196519736
H  H239  1  0.21020000  0.73570000  0.18510000  1.0 0.110386086
H  H240  1  0.49220000  0.78570000  0.21190000  1.0 0.110386086
H  H241  1  0.35600000  0.75720000  0.15070000  1.0 0.110386086
H  H242  1  0.39460000  0.81720000  0.28700000  1.0 0.1196519736
H  H243  1  0.39390000  0.77290000  0.08300000  1.0 0.1196519736
H  H244  1  0.41590000  0.73800000  0.01550000  1.0 0.110386086
H  H245  1  0.50830000  0.68090000  0.09360000  1.0 0.1196519736
H  H246  1  0.48640000  0.71580000  0.16100000  1.0 0.1196519736
H  H247  1  0.45280000  0.87250000  0.32830000  1.0 0.1196519736
H  H248  1  0.53760000  0.79740000  0.26970000  1.0 0.0902593687
H  H249  1  0.04570000  0.94340000  0.19920000  1.0 0.1196519736
H  H250  1  0.07920000  0.86620000  0.08840000  1.0 0.1292146202
H  H251  1  0.07320000  0.92660000  0.04810000  1.0 0.110386086
H  H252  1  0.04420000  0.00500000  0.15770000  1.0 0.1196519736
H  H253  1  0.50420000  0.90150000  0.39160000  1.0 0.1196519736
H  H254  1  0.58650000  0.81600000  0.35250000  1.0 0.1196519736
H  H255  1  0.56320000  0.58780000  0.79590000  1.0 0.110386086
H  H256  1  0.60720000  0.59610000  0.73760000  1.0 0.110386086
H  H257  1  0.62010000  0.73620000  0.77000000  1.0 0.110386086
H  H258  1  0.57630000  0.72780000  0.82820000  1.0 0.1292146202
H  H259  1  0.63030000  0.73080000  0.69200000  1.0 0.0999061184
H  H260  1  0.99930000  0.03110000  0.10030000  1.0 0.110386086
H  H261  1  0.73260000  0.37250000  0.10130000  1.0 0.1196519736
H  H262  1  0.86390000  0.38620000  0.07810000  1.0 0.1196519736
H  H263  1  0.52870000  0.77670000  0.29390000  1.0 0.0902593687
H  H264  1  0.59660000  0.68430000  0.65790000  1.0 0.110386086
H  H265  1  0.45400000  0.96800000  0.81620000  1.0 0.1196519736
H  H266  1  0.51840000  0.00810000  0.87220000  1.0 0.1196519736
H  H267  1  0.59370000  0.00550000  0.85830000  1.0 0.1196519736
H  H268  1  0.60440000  0.96260000  0.78880000  1.0 0.1292146202
H  H269  1  0.60970000  0.92810000  0.71900000  1.0 0.1196519736
H  H270  1  0.60680000  0.88670000  0.64420000  1.0 0.1292146202
H  H271  1  0.53550000  0.84560000  0.60000000  1.0 0.1292146202
H  H272  1  0.46740000  0.84620000  0.63030000  1.0 0.110386086
H  H273  1  0.36510000  0.86280000  0.62810000  1.0 0.110386086
H  H274  1  0.31270000  0.79520000  0.58970000  1.0 0.1196519736
H  H275  1  0.30900000  0.72770000  0.62160000  1.0 0.1196519736
H  H276  1  0.35750000  0.72770000  0.69190000  1.0 0.1196519736
H  H277  1  0.40400000  0.73530000  0.75480000  1.0 0.110386086
H  H278  1  0.45280000  0.74900000  0.82760000  1.0 0.0771772863
H  H279  1  0.49760000  0.82290000  0.85860000  1.0 0.1196519736
H  H280  1  0.49360000  0.88320000  0.81670000  1.0 0.0999061184
H  H281  1  0.38550000  0.88190000  0.80730000  1.0 0.110386086
H  H282  1  0.31860000  0.90370000  0.82990000  1.0 0.1367106325
H  H283  1  0.28050000  0.95400000  0.79130000  1.0 0.1292146202
H  H284  1  0.30920000  0.98260000  0.73010000  1.0 0.1367106325
H  H285  1  0.34120000  0.01230000  0.67830000  1.0 0.1367106325
H  H286  1  0.37790000  0.03290000  0.61830000  1.0 0.1196519736
H  H287  1  0.44140000  0.99990000  0.60100000  1.0 0.1367106325
H  H288  1  0.46810000  0.94640000  0.64400000  1.0 0.110386086
H  H289  1  0.74170000  0.18930000  0.91890000  1.0 0.1196519736
H  H290  1  0.68870000  0.15650000  0.84990000  1.0 0.110386086
H  H291  1  0.59500000  0.11350000  0.92840000  1.0 0.110386086
H  H292  1  0.65340000  0.15130000  0.99720000  1.0 0.1196519736
H  H293  1  0.64430000  0.08670000  0.79730000  1.0 0.110386086
H  H294  1  0.51080000  0.05670000  0.73340000  1.0 0.110386086
H  H295  1  0.54160000  0.12620000  0.86470000  1.0 0.110386086
H  H296  1  0.44990000  0.10090000  0.73360000  1.0 0.110386086
H  H297  1  0.47060000  0.08730000  0.86720000  1.0 0.110386086
H  H298  1  0.52950000  0.03300000  0.67360000  1.0 0.110386086
H  H299  1  0.54960000  0.99700000  0.60550000  1.0 0.110386086
H  H300  1  0.68220000  0.01020000  0.67330000  1.0 0.1196519736
H  H301  1  0.66210000  0.04620000  0.74140000  1.0 0.110386086
H  H302  1  0.85580000  0.27260000  0.25430000  1.0 0.1292146202
H  H303  1  0.85160000  0.26770000  0.32970000  1.0 0.110386086
H  H304  1  0.73310000  0.17600000  0.28790000  1.0 0.110386086
H  H305  1  0.73570000  0.18510000  0.21020000  1.0 0.110386086
H  H306  1  0.78570000  0.21190000  0.49220000  1.0 0.110386086
H  H307  1  0.75720000  0.15070000  0.35600000  1.0 0.110386086
H  H308  1  0.81720000  0.28700000  0.39460000  1.0 0.1196519736
H  H309  1  0.77290000  0.08300000  0.39390000  1.0 0.1196519736
H  H310  1  0.73800000  0.01550000  0.41590000  1.0 0.110386086
H  H311  1  0.68090000  0.09360000  0.50830000  1.0 0.1196519736
H  H312  1  0.71580000  0.16100000  0.48640000  1.0 0.1196519736
H  H313  1  0.87250000  0.32830000  0.45280000  1.0 0.1196519736
H  H314  1  0.79740000  0.26970000  0.53760000  1.0 0.0902593687
H  H315  1  0.94340000  0.19920000  0.04570000  1.0 0.1196519736
H  H316  1  0.86620000  0.08840000  0.07920000  1.0 0.1292146202
H  H317  1  0.92660000  0.04810000  0.07320000  1.0 0.110386086
H  H318  1  0.00500000  0.15770000  0.04420000  1.0 0.1196519736
H  H319  1  0.90150000  0.39160000  0.50420000  1.0 0.1196519736
H  H320  1  0.81600000  0.35250000  0.58650000  1.0 0.1196519736
H  H321  1  0.58780000  0.79590000  0.56320000  1.0 0.110386086
H  H322  1  0.59610000  0.73760000  0.60720000  1.0 0.110386086
H  H323  1  0.73620000  0.77000000  0.62010000  1.0 0.110386086
H  H324  1  0.72780000  0.82820000  0.57630000  1.0 0.1292146202
H  H325  1  0.73080000  0.69200000  0.63030000  1.0 0.0999061184
H  H326  1  0.03110000  0.10030000  0.99930000  1.0 0.110386086
H  H327  1  0.37250000  0.10130000  0.73260000  1.0 0.1196519736
H  H328  1  0.38620000  0.07810000  0.86390000  1.0 0.1196519736
H  H329  1  0.77670000  0.29390000  0.52870000  1.0 0.0902593687
H  H330  1  0.68430000  0.65790000  0.59660000  1.0 0.110386086
H  H331  1  0.96800000  0.81620000  0.45400000  1.0 0.1196519736
H  H332  1  0.00810000  0.87220000  0.51840000  1.0 0.1292146202
H  H333  1  0.00550000  0.85830000  0.59370000  1.0 0.1196519736
H  H334  1  0.96260000  0.78880000  0.60440000  1.0 0.1292146202
H  H335  1  0.92810000  0.71900000  0.60970000  1.0 0.1196519736
H  H336  1  0.88670000  0.64420000  0.60680000  1.0 0.1292146202
H  H337  1  0.84560000  0.60000000  0.53550000  1.0 0.1292146202
H  H338  1  0.84620000  0.63030000  0.46740000  1.0 0.110386086
H  H339  1  0.86280000  0.62810000  0.36510000  1.0 0.110386086
H  H340  1  0.79520000  0.58970000  0.31270000  1.0 0.1196519736
H  H341  1  0.72770000  0.62160000  0.30900000  1.0 0.1196519736
H  H342  1  0.72770000  0.69190000  0.35750000  1.0 0.1196519736
H  H343  1  0.73530000  0.75480000  0.40400000  1.0 0.110386086
H  H344  1  0.74900000  0.82760000  0.45280000  1.0 0.0771772863
H  H345  1  0.82290000  0.85860000  0.49760000  1.0 0.1196519736
H  H346  1  0.88320000  0.81670000  0.49360000  1.0 0.0999061184
H  H347  1  0.88190000  0.80730000  0.38550000  1.0 0.110386086
H  H348  1  0.90370000  0.82990000  0.31860000  1.0 0.1367106325
H  H349  1  0.95400000  0.79130000  0.28050000  1.0 0.1292146202
H  H350  1  0.98260000  0.73010000  0.30920000  1.0 0.1367106325
H  H351  1  0.01230000  0.67830000  0.34120000  1.0 0.1367106325
H  H352  1  0.03290000  0.61830000  0.37790000  1.0 0.1196519736
H  H353  1  0.99990000  0.60100000  0.44140000  1.0 0.1367106325
H  H354  1  0.94640000  0.64400000  0.46810000  1.0 0.110386086
H  H355  1  0.18930000  0.91890000  0.74170000  1.0 0.1196519736
H  H356  1  0.15650000  0.84990000  0.68870000  1.0 0.110386086
H  H357  1  0.11350000  0.92840000  0.59500000  1.0 0.110386086
H  H358  1  0.15130000  0.99720000  0.65340000  1.0 0.1196519736
H  H359  1  0.08670000  0.79730000  0.64430000  1.0 0.110386086
H  H360  1  0.05670000  0.73340000  0.51080000  1.0 0.110386086
H  H361  1  0.12620000  0.86470000  0.54160000  1.0 0.110386086
H  H362  1  0.10090000  0.73360000  0.44990000  1.0 0.110386086
H  H363  1  0.08730000  0.86720000  0.47060000  1.0 0.110386086
H  H364  1  0.03300000  0.67360000  0.52950000  1.0 0.110386086
H  H365  1  0.99700000  0.60550000  0.54960000  1.0 0.110386086
H  H366  1  0.01020000  0.67330000  0.68220000  1.0 0.1196519736
H  H367  1  0.04620000  0.74140000  0.66210000  1.0 0.110386086
H  H368  1  0.27260000  0.25430000  0.85580000  1.0 0.1292146202
H  H369  1  0.26770000  0.32970000  0.85160000  1.0 0.110386086
H  H370  1  0.17600000  0.28790000  0.73310000  1.0 0.110386086
H  H371  1  0.18510000  0.21020000  0.73570000  1.0 0.110386086
H  H372  1  0.21190000  0.49220000  0.78570000  1.0 0.110386086
H  H373  1  0.15070000  0.35600000  0.75720000  1.0 0.110386086
H  H374  1  0.28700000  0.39460000  0.81720000  1.0 0.1196519736
H  H375  1  0.08300000  0.39390000  0.77290000  1.0 0.1196519736
H  H376  1  0.01550000  0.41590000  0.73800000  1.0 0.110386086
H  H377  1  0.09360000  0.50830000  0.68090000  1.0 0.1196519736
H  H378  1  0.16100000  0.48640000  0.71580000  1.0 0.1196519736
H  H379  1  0.32830000  0.45280000  0.87250000  1.0 0.1196519736
H  H380  1  0.26970000  0.53760000  0.79740000  1.0 0.0902593687
H  H381  1  0.19920000  0.04570000  0.94340000  1.0 0.1196519736
H  H382  1  0.08840000  0.07920000  0.86620000  1.0 0.1292146202
H  H383  1  0.04810000  0.07320000  0.92660000  1.0 0.110386086
H  H384  1  0.15770000  0.04420000  0.00500000  1.0 0.1196519736
H  H385  1  0.39160000  0.50420000  0.90150000  1.0 0.1196519736
H  H386  1  0.35250000  0.58650000  0.81600000  1.0 0.1196519736
H  H387  1  0.79590000  0.56320000  0.58780000  1.0 0.110386086
H  H388  1  0.73760000  0.60720000  0.59610000  1.0 0.110386086
H  H389  1  0.77000000  0.62010000  0.73620000  1.0 0.110386086
H  H390  1  0.82820000  0.57630000  0.72780000  1.0 0.1292146202
H  H391  1  0.69200000  0.63030000  0.73080000  1.0 0.0999061184
H  H392  1  0.10030000  0.99930000  0.03110000  1.0 0.110386086
H  H393  1  0.10130000  0.73260000  0.37250000  1.0 0.1196519736
H  H394  1  0.07810000  0.86390000  0.38620000  1.0 0.1196519736
H  H395  1  0.29390000  0.52870000  0.77670000  1.0 0.0902593687
H  H396  1  0.65790000  0.59660000  0.68430000  1.0 0.110386086
Ru  Ru1  1  0.27687000  0.56034000  0.10393000  1.0 0.527018175
Ru  Ru2  1  0.56034000  0.10393000  0.27687000  1.0 0.527018175
Ru  Ru3  1  0.10393000  0.27687000  0.56034000  1.0 0.527018175
Ru  Ru4  1  0.72313000  0.43966000  0.89607000  1.0 0.527018175
Ru  Ru5  1  0.43966000  0.89607000  0.72313000  1.0 0.527018175
Ru  Ru6  1  0.89607000  0.72313000  0.43966000  1.0 0.527018175
C  C1  1  0.18910000  0.51590000  0.03310000  1.0 0.0037123076
C  C2  1  0.15570000  0.47730000  0.00910000  1.0 -0.1496664519
C  C3  1  0.16410000  0.43220000  0.01070000  1.0 -0.0507315714
C  C4  1  0.20570000  0.42580000  0.03640000  1.0 -0.179858683
C  C5  1  0.23910000  0.46440000  0.06040000  1.0 0.1196519736
C  C6  1  0.28050000  0.45960000  0.08800000  1.0 0.1292146202
C  C7  1  0.29880000  0.41880000  0.08830000  1.0 -0.1610078314
C  C8  1  0.34350000  0.42060000  0.11320000  1.0 -0.043058347
C  C9  1  0.37000000  0.46320000  0.13770000  1.0 -0.1496664519
C  C10  1  0.35190000  0.50410000  0.13740000  1.0 0.0291012894
C  C11  1  0.35900000  0.63640000  0.16420000  1.0 0.0291012894
C  C12  1  0.38210000  0.66780000  0.20480000  1.0 -0.1496664519
C  C13  1  0.36300000  0.67010000  0.24530000  1.0 -0.0609987699
C  C14  1  0.32080000  0.64100000  0.24520000  1.0 -0.1695649611
C  C15  1  0.29790000  0.60960000  0.20470000  1.0 0.1196519736
C  C16  1  0.25790000  0.58040000  0.19890000  1.0 0.0902593687
C  C17  1  0.23290000  0.57800000  0.23500000  1.0 -0.1695649611
C  C18  1  0.18920000  0.54880000  0.22690000  1.0 -0.0898091138
C  C19  1  0.17070000  0.52200000  0.18250000  1.0 -0.1610078314
C  C20  1  0.19580000  0.52430000  0.14640000  1.0 0.0291012894
C  C21  1  0.20810000  0.62980000  0.09790000  1.0 0.0201581648
C  C22  1  0.19460000  0.66980000  0.08490000  1.0 -0.1392597815
C  C23  1  0.21780000  0.69270000  0.05470000  1.0 -0.0326652119
C  C24  1  0.25450000  0.67550000  0.03760000  1.0 -0.1610078314
C  C25  1  0.26790000  0.63550000  0.05070000  1.0 0.1196519736
C  C26  1  0.30270000  0.61730000  0.03290000  1.0 0.1292146202
C  C27  1  0.32850000  0.63340000  0.00090000  1.0 -0.1610078314
C  C28  1  0.36460000  0.61140000  0.98860000  1.0 -0.0507315714
C  C29  1  0.37480000  0.57340000  0.00830000  1.0 -0.1392597815
C  C30  1  0.34900000  0.55730000  0.04030000  1.0 0.0291012894
C  C31  1  0.99370000  0.26480000  0.80610000  1.0 0.5392299867
C  C32  1  0.03660000  0.29850000  0.82820000  1.0 -0.0205742945
C  C33  1  0.07940000  0.28800000  0.82590000  1.0 -0.1002262748
C  C34  1  0.12120000  0.31960000  0.84550000  1.0 -0.1496664519
C  C35  1  0.11800000  0.36400000  0.86820000  1.0 0.062509056
C  C36  1  0.07440000  0.37570000  0.87100000  1.0 -0.1610078314
C  C37  1  0.03230000  0.33960000  0.84840000  1.0 -0.0898091138
C  C38  1  0.16080000  0.40070000  0.89010000  1.0 0.0902593687
C  C39  1  0.20220000  0.38710000  0.91240000  1.0 -0.2152819731
C  C40  1  0.24130000  0.42120000  0.93250000  1.0 0.0711848466
C  C41  1  0.23980000  0.46660000  0.93030000  1.0 -0.2039239794
C  C42  1  0.20000000  0.48080000  0.90910000  1.0 0.0711848466
C  C43  1  0.16160000  0.44890000  0.88880000  1.0 -0.2086675857
C  C44  1  0.20070000  0.53030000  0.90780000  1.0 0.062509056
C  C45  1  0.23930000  0.56190000  0.90300000  1.0 -0.1695649611
C  C46  1  0.16070000  0.54910000  0.91220000  1.0 -0.1695649611
C  C47  1  0.28569000  0.40617000  0.95678000  1.0 0.0711848466
C  C48  1  0.32646000  0.43986000  0.97151000  1.0 -0.1695649611
C  C49  1  0.36731000  0.42781000  0.99311000  1.0 -0.1094798376
C  C50  1  0.36734000  0.38212000  0.99998000  1.0 -0.0326652119
C  C51  1  0.32658000  0.34844000  0.98526000  1.0 -0.1002262748
C  C52  1  0.28575000  0.36045000  0.96365000  1.0 -0.179858683
C  C53  1  0.41110000  0.37140000  0.02490000  1.0 0.527018175
C  C54  1  0.82480000  0.20370000  0.77060000  1.0 0.5392299867
C  C55  1  0.77650000  0.20370000  0.77300000  1.0 -0.0326652119
C  C56  1  0.73940000  0.16960000  0.74700000  1.0 -0.0898091138
C  C57  1  0.69420000  0.17230000  0.74960000  1.0 -0.1610078314
C  C58  1  0.68290000  0.20960000  0.77730000  1.0 0.0711848466
C  C59  1  0.71840000  0.24240000  0.80320000  1.0 -0.1610078314
C  C60  1  0.76580000  0.23980000  0.79890000  1.0 -0.1002262748
C  C61  1  0.55088000  0.19562000  0.74402000  1.0 0.0711848466
C  C62  1  0.53907000  0.21386000  0.78622000  1.0 -0.2278568991
C  C63  1  0.57392000  0.23154000  0.82564000  1.0 0.0771772863
C  C64  1  0.62061000  0.23097000  0.82284000  1.0 -0.2039239794
C  C65  1  0.63242000  0.21273000  0.78064000  1.0 0.0902593687
C  C66  1  0.59757000  0.19505000  0.74122000  1.0 -0.2086675857
C  C67  1  0.56210000  0.25210000  0.87120000  1.0 0.0711848466
C  C68  1  0.58310000  0.24560000  0.91490000  1.0 -0.1496664519
C  C69  1  0.57000000  0.26640000  0.95520000  1.0 -0.1002262748
C  C70  1  0.53570000  0.29410000  0.95220000  1.0 -0.0326652119
C  C71  1  0.51460000  0.30070000  0.90850000  1.0 -0.0898091138
C  C72  1  0.52770000  0.27970000  0.86810000  1.0 -0.1610078314
C  C73  1  0.51390000  0.17540000  0.69940000  1.0 0.062509056
C  C74  1  0.51970000  0.13940000  0.66690000  1.0 -0.179858683
C  C75  1  0.47060000  0.18720000  0.70360000  1.0 -0.043058347
C  C76  1  0.92600000  0.13780000  0.81960000  1.0 0.5182699091
C  C77  1  0.94670000  0.05960000  0.83060000  1.0 -0.0898091138
C  C78  1  0.93240000  0.10030000  0.85040000  1.0 0.005448966
C  C79  1  0.92730000  0.10580000  0.89680000  1.0 -0.0898091138
C  C80  1  0.93170000  0.06980000  0.92120000  1.0 -0.1695649611
C  C81  1  0.94330000  0.02860000  0.90100000  1.0 0.0711848466
C  C82  1  0.94950000  0.02320000  0.85640000  1.0 -0.1610078314
C  C83  1  0.41220000  0.11180000  0.57730000  1.0 0.5492845502
C  C84  1  0.44650000  0.13330000  0.62080000  1.0 -0.0701897676
C  C85  1  0.48860000  0.12150000  0.63010000  1.0 -0.1002262748
C  C86  1  0.43900000  0.16970000  0.65490000  1.0 -0.0507315714
C  C87  1  0.45960000  0.34890000  0.14350000  1.0 0.527018175
C  C88  1  0.42530000  0.38250000  0.20930000  1.0 -0.0822254548
C  C89  1  0.39900000  0.37750000  0.24420000  1.0 -0.1695649611
C  C90  1  0.38210000  0.33300000  0.25190000  1.0 0.048848703
C  C91  1  0.39130000  0.29360000  0.22480000  1.0 -0.1610078314
C  C92  1  0.41760000  0.29860000  0.18990000  1.0 -0.0822254548
C  C93  1  0.43460000  0.34300000  0.18220000  1.0 -0.0507315714
C  C94  1  0.35410000  0.32810000  0.28930000  1.0 0.0291012894
C  C95  1  0.35310000  0.29280000  0.31570000  1.0 -0.1002262748
C  C96  1  0.98286000  0.96459000  0.92275000  1.0 -0.1695649611
C  C97  1  0.51940000  0.31710000  0.99470000  1.0 0.4321936346
C  C98  1  0.95140000  0.98990000  0.92980000  1.0 0.0771772863
C  C99  1  0.20240000  0.67930000  0.91220000  1.0 0.527018175
C  C100  1  0.20110000  0.62760000  0.91030000  1.0 -0.0088273997
C  C101  1  0.24050000  0.60860000  0.90310000  1.0 -0.1094798376
C  C102  1  0.16180000  0.60070000  0.91590000  1.0 -0.1002262748
C  C103  1  0.47390000  0.19450000  0.68940000  1.0 -0.0701897676
C  C104  1  0.37170000  0.31300000  0.33000000  1.0 -0.1094798376
C  C105  1  0.51590000  0.03310000  0.18910000  1.0 0.0037123076
C  C106  1  0.47730000  0.00910000  0.15570000  1.0 -0.1496664519
C  C107  1  0.43220000  0.01070000  0.16410000  1.0 -0.0507315714
C  C108  1  0.42580000  0.03640000  0.20570000  1.0 -0.179858683
C  C109  1  0.46440000  0.06040000  0.23910000  1.0 0.1196519736
C  C110  1  0.45960000  0.08800000  0.28050000  1.0 0.1292146202
C  C111  1  0.41880000  0.08830000  0.29880000  1.0 -0.1695649611
C  C112  1  0.42060000  0.11320000  0.34350000  1.0 -0.043058347
C  C113  1  0.46320000  0.13770000  0.37000000  1.0 -0.1496664519
C  C114  1  0.50410000  0.13740000  0.35190000  1.0 0.0291012894
C  C115  1  0.63640000  0.16420000  0.35900000  1.0 0.0291012894
C  C116  1  0.66780000  0.20480000  0.38210000  1.0 -0.1496664519
C  C117  1  0.67010000  0.24530000  0.36300000  1.0 -0.0609987699
C  C118  1  0.64100000  0.24520000  0.32080000  1.0 -0.1695649611
C  C119  1  0.60960000  0.20470000  0.29790000  1.0 0.1196519736
C  C120  1  0.58040000  0.19890000  0.25790000  1.0 0.0902593687
C  C121  1  0.57800000  0.23500000  0.23290000  1.0 -0.1695649611
C  C122  1  0.54880000  0.22690000  0.18920000  1.0 -0.0898091138
C  C123  1  0.52200000  0.18250000  0.17070000  1.0 -0.1610078314
C  C124  1  0.52430000  0.14640000  0.19580000  1.0 0.0291012894
C  C125  1  0.62980000  0.09790000  0.20810000  1.0 0.0201581648
C  C126  1  0.66980000  0.08490000  0.19460000  1.0 -0.1392597815
C  C127  1  0.69270000  0.05470000  0.21780000  1.0 -0.043058347
C  C128  1  0.67550000  0.03760000  0.25450000  1.0 -0.1610078314
C  C129  1  0.63550000  0.05070000  0.26790000  1.0 0.1196519736
C  C130  1  0.61730000  0.03290000  0.30270000  1.0 0.1292146202
C  C131  1  0.63340000  0.00090000  0.32850000  1.0 -0.1610078314
C  C132  1  0.61140000  0.98860000  0.36460000  1.0 -0.0507315714
C  C133  1  0.57340000  0.00830000  0.37480000  1.0 -0.1392597815
C  C134  1  0.55730000  0.04030000  0.34900000  1.0 0.0291012894
C  C135  1  0.26480000  0.80610000  0.99370000  1.0 0.5392299867
C  C136  1  0.29850000  0.82820000  0.03660000  1.0 -0.0205742945
C  C137  1  0.28800000  0.82590000  0.07940000  1.0 -0.1094798376
C  C138  1  0.31960000  0.84550000  0.12120000  1.0 -0.1496664519
C  C139  1  0.36400000  0.86820000  0.11800000  1.0 0.062509056
C  C140  1  0.37570000  0.87100000  0.07440000  1.0 -0.1610078314
C  C141  1  0.33960000  0.84840000  0.03230000  1.0 -0.0898091138
C  C142  1  0.40070000  0.89010000  0.16080000  1.0 0.0902593687
C  C143  1  0.38710000  0.91240000  0.20220000  1.0 -0.2152819731
C  C144  1  0.42120000  0.93250000  0.24130000  1.0 0.0711848466
C  C145  1  0.46660000  0.93030000  0.23980000  1.0 -0.2039239794
C  C146  1  0.48080000  0.90910000  0.20000000  1.0 0.0711848466
C  C147  1  0.44890000  0.88880000  0.16160000  1.0 -0.2086675857
C  C148  1  0.53030000  0.90780000  0.20070000  1.0 0.062509056
C  C149  1  0.56190000  0.90300000  0.23930000  1.0 -0.1695649611
C  C150  1  0.54910000  0.91220000  0.16070000  1.0 -0.1695649611
C  C151  1  0.40617000  0.95678000  0.28569000  1.0 0.0711848466
C  C152  1  0.43986000  0.97151000  0.32646000  1.0 -0.1695649611
C  C153  1  0.42781000  0.99311000  0.36731000  1.0 -0.1094798376
C  C154  1  0.38212000  0.99998000  0.36734000  1.0 -0.0326652119
C  C155  1  0.34844000  0.98526000  0.32658000  1.0 -0.1002262748
C  C156  1  0.36045000  0.96365000  0.28575000  1.0 -0.179858683
C  C157  1  0.37140000  0.02490000  0.41110000  1.0 0.527018175
C  C158  1  0.20370000  0.77060000  0.82480000  1.0 0.5392299867
C  C159  1  0.20370000  0.77300000  0.77650000  1.0 -0.0326652119
C  C160  1  0.16960000  0.74700000  0.73940000  1.0 -0.0898091138
C  C161  1  0.17230000  0.74960000  0.69420000  1.0 -0.1610078314
C  C162  1  0.20960000  0.77730000  0.68290000  1.0 0.0711848466
C  C163  1  0.24240000  0.80320000  0.71840000  1.0 -0.1610078314
C  C164  1  0.23980000  0.79890000  0.76580000  1.0 -0.1002262748
C  C165  1  0.19562000  0.74402000  0.55088000  1.0 0.0711848466
C  C166  1  0.21386000  0.78622000  0.53907000  1.0 -0.2278568991
C  C167  1  0.23154000  0.82564000  0.57392000  1.0 0.0771772863
C  C168  1  0.23097000  0.82284000  0.62061000  1.0 -0.2086675857
C  C169  1  0.21273000  0.78064000  0.63242000  1.0 0.0902593687
C  C170  1  0.19505000  0.74122000  0.59757000  1.0 -0.2086675857
C  C171  1  0.25210000  0.87120000  0.56210000  1.0 0.0711848466
C  C172  1  0.24560000  0.91490000  0.58310000  1.0 -0.1610078314
C  C173  1  0.26640000  0.95520000  0.57000000  1.0 -0.1002262748
C  C174  1  0.29410000  0.95220000  0.53570000  1.0 -0.0326652119
C  C175  1  0.30070000  0.90850000  0.51460000  1.0 -0.0898091138
C  C176  1  0.27970000  0.86810000  0.52770000  1.0 -0.1610078314
C  C177  1  0.17540000  0.69940000  0.51390000  1.0 0.062509056
C  C178  1  0.13940000  0.66690000  0.51970000  1.0 -0.179858683
C  C179  1  0.18720000  0.70360000  0.47060000  1.0 -0.043058347
C  C180  1  0.13780000  0.81960000  0.92600000  1.0 0.5182699091
C  C181  1  0.05960000  0.83060000  0.94670000  1.0 -0.0898091138
C  C182  1  0.10030000  0.85040000  0.93240000  1.0 0.005448966
C  C183  1  0.10580000  0.89680000  0.92730000  1.0 -0.0898091138
C  C184  1  0.06980000  0.92120000  0.93170000  1.0 -0.1695649611
C  C185  1  0.02860000  0.90100000  0.94330000  1.0 0.0711848466
C  C186  1  0.02320000  0.85640000  0.94950000  1.0 -0.1610078314
C  C187  1  0.11180000  0.57730000  0.41220000  1.0 0.5492845502
C  C188  1  0.13330000  0.62080000  0.44650000  1.0 -0.0701897676
C  C189  1  0.12150000  0.63010000  0.48860000  1.0 -0.1002262748
C  C190  1  0.16970000  0.65490000  0.43900000  1.0 -0.0507315714
C  C191  1  0.34890000  0.14350000  0.45960000  1.0 0.527018175
C  C192  1  0.38250000  0.20930000  0.42530000  1.0 -0.0822254548
C  C193  1  0.37750000  0.24420000  0.39900000  1.0 -0.1695649611
C  C194  1  0.33300000  0.25190000  0.38210000  1.0 0.048848703
C  C195  1  0.29360000  0.22480000  0.39130000  1.0 -0.1610078314
C  C196  1  0.29860000  0.18990000  0.41760000  1.0 -0.0822254548
C  C197  1  0.34300000  0.18220000  0.43460000  1.0 -0.0507315714
C  C198  1  0.32810000  0.28930000  0.35410000  1.0 0.0291012894
C  C199  1  0.29280000  0.31570000  0.35310000  1.0 -0.1002262748
C  C200  1  0.96459000  0.92275000  0.98286000  1.0 -0.1695649611
C  C201  1  0.31710000  0.99470000  0.51940000  1.0 0.4321936346
C  C202  1  0.98990000  0.92980000  0.95140000  1.0 0.0771772863
C  C203  1  0.67930000  0.91220000  0.20240000  1.0 0.527018175
C  C204  1  0.62760000  0.91030000  0.20110000  1.0 -0.0088273997
C  C205  1  0.60860000  0.90310000  0.24050000  1.0 -0.1094798376
C  C206  1  0.60070000  0.91590000  0.16180000  1.0 -0.1002262748
C  C207  1  0.19450000  0.68940000  0.47390000  1.0 -0.0701897676
C  C208  1  0.31300000  0.33000000  0.37170000  1.0 -0.1094798376
C  C209  1  0.03310000  0.18910000  0.51590000  1.0 0.0037123076
C  C210  1  0.00910000  0.15570000  0.47730000  1.0 -0.1496664519
C  C211  1  0.01070000  0.16410000  0.43220000  1.0 -0.0507315714
C  C212  1  0.03640000  0.20570000  0.42580000  1.0 -0.179858683
C  C213  1  0.06040000  0.23910000  0.46440000  1.0 0.1196519736
C  C214  1  0.08800000  0.28050000  0.45960000  1.0 0.1292146202
C  C215  1  0.08830000  0.29880000  0.41880000  1.0 -0.1695649611
C  C216  1  0.11320000  0.34350000  0.42060000  1.0 -0.043058347
C  C217  1  0.13770000  0.37000000  0.46320000  1.0 -0.1496664519
C  C218  1  0.13740000  0.35190000  0.50410000  1.0 0.0291012894
C  C219  1  0.16420000  0.35900000  0.63640000  1.0 0.0291012894
C  C220  1  0.20480000  0.38210000  0.66780000  1.0 -0.1496664519
C  C221  1  0.24530000  0.36300000  0.67010000  1.0 -0.0609987699
C  C222  1  0.24520000  0.32080000  0.64100000  1.0 -0.1695649611
C  C223  1  0.20470000  0.29790000  0.60960000  1.0 0.1196519736
C  C224  1  0.19890000  0.25790000  0.58040000  1.0 0.0902593687
C  C225  1  0.23500000  0.23290000  0.57800000  1.0 -0.1610078314
C  C226  1  0.22690000  0.18920000  0.54880000  1.0 -0.0898091138
C  C227  1  0.18250000  0.17070000  0.52200000  1.0 -0.1496664519
C  C228  1  0.14640000  0.19580000  0.52430000  1.0 0.0201581648
C  C229  1  0.09790000  0.20810000  0.62980000  1.0 0.0201581648
C  C230  1  0.08490000  0.19460000  0.66980000  1.0 -0.1392597815
C  C231  1  0.05470000  0.21780000  0.69270000  1.0 -0.0326652119
C  C232  1  0.03760000  0.25450000  0.67550000  1.0 -0.1610078314
C  C233  1  0.05070000  0.26790000  0.63550000  1.0 0.1196519736
C  C234  1  0.03290000  0.30270000  0.61730000  1.0 0.1292146202
C  C235  1  0.00090000  0.32850000  0.63340000  1.0 -0.1610078314
C  C236  1  0.98860000  0.36460000  0.61140000  1.0 -0.0507315714
C  C237  1  0.00830000  0.37480000  0.57340000  1.0 -0.1392597815
C  C238  1  0.04030000  0.34900000  0.55730000  1.0 0.0291012894
C  C239  1  0.80610000  0.99370000  0.26480000  1.0 0.5392299867
C  C240  1  0.82820000  0.03660000  0.29850000  1.0 -0.0205742945
C  C241  1  0.82590000  0.07940000  0.28800000  1.0 -0.1002262748
C  C242  1  0.84550000  0.12120000  0.31960000  1.0 -0.1496664519
C  C243  1  0.86820000  0.11800000  0.36400000  1.0 0.062509056
C  C244  1  0.87100000  0.07440000  0.37570000  1.0 -0.1610078314
C  C245  1  0.84840000  0.03230000  0.33960000  1.0 -0.0898091138
C  C246  1  0.89010000  0.16080000  0.40070000  1.0 0.0902593687
C  C247  1  0.91240000  0.20220000  0.38710000  1.0 -0.2152819731
C  C248  1  0.93250000  0.24130000  0.42120000  1.0 0.0711848466
C  C249  1  0.93030000  0.23980000  0.46660000  1.0 -0.2039239794
C  C250  1  0.90910000  0.20000000  0.48080000  1.0 0.0711848466
C  C251  1  0.88880000  0.16160000  0.44890000  1.0 -0.2086675857
C  C252  1  0.90780000  0.20070000  0.53030000  1.0 0.062509056
C  C253  1  0.90300000  0.23930000  0.56190000  1.0 -0.1695649611
C  C254  1  0.91220000  0.16070000  0.54910000  1.0 -0.1695649611
C  C255  1  0.95678000  0.28569000  0.40617000  1.0 0.0711848466
C  C256  1  0.97151000  0.32646000  0.43986000  1.0 -0.1695649611
C  C257  1  0.99311000  0.36731000  0.42781000  1.0 -0.1094798376
C  C258  1  0.99998000  0.36734000  0.38212000  1.0 -0.0326652119
C  C259  1  0.98526000  0.32658000  0.34844000  1.0 -0.1002262748
C  C260  1  0.96365000  0.28575000  0.36045000  1.0 -0.179858683
C  C261  1  0.02490000  0.41110000  0.37140000  1.0 0.527018175
C  C262  1  0.77060000  0.82480000  0.20370000  1.0 0.5392299867
C  C263  1  0.77300000  0.77650000  0.20370000  1.0 -0.0326652119
C  C264  1  0.74700000  0.73940000  0.16960000  1.0 -0.0898091138
C  C265  1  0.74960000  0.69420000  0.17230000  1.0 -0.1610078314
C  C266  1  0.77730000  0.68290000  0.20960000  1.0 0.0711848466
C  C267  1  0.80320000  0.71840000  0.24240000  1.0 -0.1610078314
C  C268  1  0.79890000  0.76580000  0.23980000  1.0 -0.1002262748
C  C269  1  0.74402000  0.55088000  0.19562000  1.0 0.0711848466
C  C270  1  0.78622000  0.53907000  0.21386000  1.0 -0.2278568991
C  C271  1  0.82564000  0.57392000  0.23154000  1.0 0.0771772863
C  C272  1  0.82284000  0.62061000  0.23097000  1.0 -0.2039239794
C  C273  1  0.78064000  0.63242000  0.21273000  1.0 0.0902593687
C  C274  1  0.74122000  0.59757000  0.19505000  1.0 -0.2086675857
C  C275  1  0.87120000  0.56210000  0.25210000  1.0 0.0711848466
C  C276  1  0.91490000  0.58310000  0.24560000  1.0 -0.1610078314
C  C277  1  0.95520000  0.57000000  0.26640000  1.0 -0.1002262748
C  C278  1  0.95220000  0.53570000  0.29410000  1.0 -0.0326652119
C  C279  1  0.90850000  0.51460000  0.30070000  1.0 -0.0898091138
C  C280  1  0.86810000  0.52770000  0.27970000  1.0 -0.1610078314
C  C281  1  0.69940000  0.51390000  0.17540000  1.0 0.062509056
C  C282  1  0.66690000  0.51970000  0.13940000  1.0 -0.179858683
C  C283  1  0.70360000  0.47060000  0.18720000  1.0 -0.043058347
C  C284  1  0.81960000  0.92600000  0.13780000  1.0 0.5182699091
C  C285  1  0.83060000  0.94670000  0.05960000  1.0 -0.0898091138
C  C286  1  0.85040000  0.93240000  0.10030000  1.0 0.0037123076
C  C287  1  0.89680000  0.92730000  0.10580000  1.0 -0.0898091138
C  C288  1  0.92120000  0.93170000  0.06980000  1.0 -0.1695649611
C  C289  1  0.90100000  0.94330000  0.02860000  1.0 0.0711848466
C  C290  1  0.85640000  0.94950000  0.02320000  1.0 -0.1610078314
C  C291  1  0.57730000  0.41220000  0.11180000  1.0 0.5492845502
C  C292  1  0.62080000  0.44650000  0.13330000  1.0 -0.0701897676
C  C293  1  0.63010000  0.48860000  0.12150000  1.0 -0.1002262748
C  C294  1  0.65490000  0.43900000  0.16970000  1.0 -0.0507315714
C  C295  1  0.14350000  0.45960000  0.34890000  1.0 0.527018175
C  C296  1  0.20930000  0.42530000  0.38250000  1.0 -0.0822254548
C  C297  1  0.24420000  0.39900000  0.37750000  1.0 -0.1695649611
C  C298  1  0.25190000  0.38210000  0.33300000  1.0 0.048848703
C  C299  1  0.22480000  0.39130000  0.29360000  1.0 -0.1610078314
C  C300  1  0.18990000  0.41760000  0.29860000  1.0 -0.0822254548
C  C301  1  0.18220000  0.43460000  0.34300000  1.0 -0.0507315714
C  C302  1  0.28930000  0.35410000  0.32810000  1.0 0.0291012894
C  C303  1  0.31570000  0.35310000  0.29280000  1.0 -0.1002262748
C  C304  1  0.92275000  0.98286000  0.96459000  1.0 -0.1695649611
C  C305  1  0.99470000  0.51940000  0.31710000  1.0 0.4321936346
C  C306  1  0.92980000  0.95140000  0.98990000  1.0 0.0771772863
C  C307  1  0.91220000  0.20240000  0.67930000  1.0 0.527018175
C  C308  1  0.91030000  0.20110000  0.62760000  1.0 -0.0088273997
C  C309  1  0.90310000  0.24050000  0.60860000  1.0 -0.1094798376
C  C310  1  0.91590000  0.16180000  0.60070000  1.0 -0.1002262748
C  C311  1  0.68940000  0.47390000  0.19450000  1.0 -0.0701897676
C  C312  1  0.33000000  0.37170000  0.31300000  1.0 -0.1094798376
C  C313  1  0.81090000  0.48410000  0.96690000  1.0 0.0037123076
C  C314  1  0.84430000  0.52270000  0.99090000  1.0 -0.1496664519
C  C315  1  0.83590000  0.56780000  0.98930000  1.0 -0.0507315714
C  C316  1  0.79430000  0.57420000  0.96360000  1.0 -0.179858683
C  C317  1  0.76090000  0.53560000  0.93960000  1.0 0.1196519736
C  C318  1  0.71950000  0.54040000  0.91200000  1.0 0.1292146202
C  C319  1  0.70120000  0.58120000  0.91170000  1.0 -0.1695649611
C  C320  1  0.65650000  0.57940000  0.88680000  1.0 -0.043058347
C  C321  1  0.63000000  0.53680000  0.86230000  1.0 -0.1496664519
C  C322  1  0.64810000  0.49590000  0.86260000  1.0 0.0291012894
C  C323  1  0.64100000  0.36360000  0.83580000  1.0 0.0351679786
C  C324  1  0.61790000  0.33220000  0.79520000  1.0 -0.1496664519
C  C325  1  0.63700000  0.32990000  0.75470000  1.0 -0.0609987699
C  C326  1  0.67920000  0.35900000  0.75480000  1.0 -0.1695649611
C  C327  1  0.70210000  0.39040000  0.79530000  1.0 0.1196519736
C  C328  1  0.74210000  0.41960000  0.80110000  1.0 0.0902593687
C  C329  1  0.76710000  0.42200000  0.76500000  1.0 -0.1695649611
C  C330  1  0.81080000  0.45120000  0.77310000  1.0 -0.0898091138
C  C331  1  0.82930000  0.47800000  0.81750000  1.0 -0.1610078314
C  C332  1  0.80420000  0.47570000  0.85360000  1.0 0.0291012894
C  C333  1  0.79190000  0.37020000  0.90210000  1.0 0.0201581648
C  C334  1  0.80540000  0.33020000  0.91510000  1.0 -0.1392597815
C  C335  1  0.78220000  0.30730000  0.94530000  1.0 -0.0326652119
C  C336  1  0.74550000  0.32450000  0.96240000  1.0 -0.1610078314
C  C337  1  0.73210000  0.36450000  0.94930000  1.0 0.1196519736
C  C338  1  0.69730000  0.38270000  0.96710000  1.0 0.1292146202
C  C339  1  0.67150000  0.36660000  0.99910000  1.0 -0.1610078314
C  C340  1  0.63540000  0.38860000  0.01140000  1.0 -0.0507315714
C  C341  1  0.62520000  0.42660000  0.99170000  1.0 -0.1392597815
C  C342  1  0.65100000  0.44270000  0.95970000  1.0 0.0291012894
C  C343  1  0.00630000  0.73520000  0.19390000  1.0 0.5392299867
C  C344  1  0.96340000  0.70150000  0.17180000  1.0 -0.0205742945
C  C345  1  0.92060000  0.71200000  0.17410000  1.0 -0.1094798376
C  C346  1  0.87880000  0.68040000  0.15450000  1.0 -0.1496664519
C  C347  1  0.88200000  0.63600000  0.13180000  1.0 0.062509056
C  C348  1  0.92560000  0.62430000  0.12900000  1.0 -0.1610078314
C  C349  1  0.96770000  0.66040000  0.15160000  1.0 -0.0898091138
C  C350  1  0.83920000  0.59930000  0.10990000  1.0 0.0902593687
C  C351  1  0.79780000  0.61290000  0.08760000  1.0 -0.2152819731
C  C352  1  0.75870000  0.57880000  0.06750000  1.0 0.0711848466
C  C353  1  0.76020000  0.53340000  0.06970000  1.0 -0.2039239794
C  C354  1  0.80000000  0.51920000  0.09090000  1.0 0.0711848466
C  C355  1  0.83840000  0.55110000  0.11120000  1.0 -0.2086675857
C  C356  1  0.79930000  0.46970000  0.09220000  1.0 0.062509056
C  C357  1  0.76070000  0.43810000  0.09700000  1.0 -0.1610078314
C  C358  1  0.83930000  0.45090000  0.08780000  1.0 -0.1695649611
C  C359  1  0.71431000  0.59383000  0.04322000  1.0 0.0711848466
C  C360  1  0.67354000  0.56014000  0.02849000  1.0 -0.1695649611
C  C361  1  0.63269000  0.57219000  0.00689000  1.0 -0.1094798376
C  C362  1  0.63266000  0.61788000  0.00002000  1.0 -0.0326652119
C  C363  1  0.67342000  0.65156000  0.01474000  1.0 -0.1002262748
C  C364  1  0.71425000  0.63955000  0.03635000  1.0 -0.179858683
C  C365  1  0.58890000  0.62860000  0.97510000  1.0 0.527018175
C  C366  1  0.17520000  0.79630000  0.22940000  1.0 0.5392299867
C  C367  1  0.22350000  0.79630000  0.22700000  1.0 -0.0326652119
C  C368  1  0.26060000  0.83040000  0.25300000  1.0 -0.0898091138
C  C369  1  0.30580000  0.82770000  0.25040000  1.0 -0.1610078314
C  C370  1  0.31710000  0.79040000  0.22270000  1.0 0.0711848466
C  C371  1  0.28160000  0.75760000  0.19680000  1.0 -0.1610078314
C  C372  1  0.23420000  0.76020000  0.20110000  1.0 -0.1002262748
C  C373  1  0.44912000  0.80438000  0.25598000  1.0 0.0711848466
C  C374  1  0.46093000  0.78614000  0.21378000  1.0 -0.2278568991
C  C375  1  0.42608000  0.76846000  0.17436000  1.0 0.0771772863
C  C376  1  0.37939000  0.76903000  0.17716000  1.0 -0.2039239794
C  C377  1  0.36758000  0.78727000  0.21936000  1.0 0.0902593687
C  C378  1  0.40243000  0.80495000  0.25878000  1.0 -0.2086675857
C  C379  1  0.43790000  0.74790000  0.12880000  1.0 0.0711848466
C  C380  1  0.41690000  0.75440000  0.08510000  1.0 -0.1496664519
C  C381  1  0.43000000  0.73360000  0.04480000  1.0 -0.1002262748
C  C382  1  0.46430000  0.70590000  0.04780000  1.0 -0.0326652119
C  C383  1  0.48540000  0.69930000  0.09150000  1.0 -0.0898091138
C  C384  1  0.47230000  0.72030000  0.13190000  1.0 -0.1610078314
C  C385  1  0.48610000  0.82460000  0.30060000  1.0 0.062509056
C  C386  1  0.48030000  0.86060000  0.33310000  1.0 -0.179858683
C  C387  1  0.52940000  0.81280000  0.29640000  1.0 -0.043058347
C  C388  1  0.07400000  0.86220000  0.18040000  1.0 0.5182699091
C  C389  1  0.05330000  0.94040000  0.16940000  1.0 -0.0898091138
C  C390  1  0.06760000  0.89970000  0.14960000  1.0 0.0037123076
C  C391  1  0.07270000  0.89420000  0.10320000  1.0 -0.0898091138
C  C392  1  0.06830000  0.93020000  0.07880000  1.0 -0.1695649611
C  C393  1  0.05670000  0.97140000  0.09900000  1.0 0.0711848466
C  C394  1  0.05050000  0.97680000  0.14360000  1.0 -0.1610078314
C  C395  1  0.58780000  0.88820000  0.42270000  1.0 0.5492845502
C  C396  1  0.55350000  0.86670000  0.37920000  1.0 -0.0701897676
C  C397  1  0.51140000  0.87850000  0.36990000  1.0 -0.1002262748
C  C398  1  0.56100000  0.83030000  0.34510000  1.0 -0.0507315714
C  C399  1  0.54040000  0.65110000  0.85650000  1.0 0.527018175
C  C400  1  0.57470000  0.61750000  0.79070000  1.0 -0.0822254548
C  C401  1  0.60100000  0.62250000  0.75580000  1.0 -0.1695649611
C  C402  1  0.61790000  0.66700000  0.74810000  1.0 0.048848703
C  C403  1  0.60870000  0.70640000  0.77520000  1.0 -0.1610078314
C  C404  1  0.58240000  0.70140000  0.81010000  1.0 -0.0822254548
C  C405  1  0.56540000  0.65700000  0.81780000  1.0 -0.0507315714
C  C406  1  0.64590000  0.67190000  0.71070000  1.0 0.0291012894
C  C407  1  0.64690000  0.70720000  0.68430000  1.0 -0.1002262748
C  C408  1  0.01714000  0.03541000  0.07725000  1.0 -0.1695649611
C  C409  1  0.48060000  0.68290000  0.00530000  1.0 0.4321936346
C  C410  1  0.04860000  0.01010000  0.07020000  1.0 0.0771772863
C  C411  1  0.79760000  0.32070000  0.08780000  1.0 0.527018175
C  C412  1  0.79890000  0.37240000  0.08970000  1.0 -0.0088273997
C  C413  1  0.75950000  0.39140000  0.09690000  1.0 -0.1094798376
C  C414  1  0.83820000  0.39930000  0.08410000  1.0 -0.1002262748
C  C415  1  0.52610000  0.80550000  0.31060000  1.0 -0.0701897676
C  C416  1  0.62830000  0.68700000  0.67000000  1.0 -0.1094798376
C  C417  1  0.48410000  0.96690000  0.81090000  1.0 0.005448966
C  C418  1  0.52270000  0.99090000  0.84430000  1.0 -0.1496664519
C  C419  1  0.56780000  0.98930000  0.83590000  1.0 -0.0507315714
C  C420  1  0.57420000  0.96360000  0.79430000  1.0 -0.179858683
C  C421  1  0.53560000  0.93960000  0.76090000  1.0 0.1196519736
C  C422  1  0.54040000  0.91200000  0.71950000  1.0 0.1292146202
C  C423  1  0.58120000  0.91170000  0.70120000  1.0 -0.1610078314
C  C424  1  0.57940000  0.88680000  0.65650000  1.0 -0.043058347
C  C425  1  0.53680000  0.86230000  0.63000000  1.0 -0.1496664519
C  C426  1  0.49590000  0.86260000  0.64810000  1.0 0.0291012894
C  C427  1  0.36360000  0.83580000  0.64100000  1.0 0.0351679786
C  C428  1  0.33220000  0.79520000  0.61790000  1.0 -0.1496664519
C  C429  1  0.32990000  0.75470000  0.63700000  1.0 -0.0609987699
C  C430  1  0.35900000  0.75480000  0.67920000  1.0 -0.1695649611
C  C431  1  0.39040000  0.79530000  0.70210000  1.0 0.1196519736
C  C432  1  0.41960000  0.80110000  0.74210000  1.0 0.0902593687
C  C433  1  0.42200000  0.76500000  0.76710000  1.0 -0.1610078314
C  C434  1  0.45120000  0.77310000  0.81080000  1.0 -0.0898091138
C  C435  1  0.47800000  0.81750000  0.82930000  1.0 -0.1496664519
C  C436  1  0.47570000  0.85360000  0.80420000  1.0 0.0291012894
C  C437  1  0.37020000  0.90210000  0.79190000  1.0 0.0201581648
C  C438  1  0.33020000  0.91510000  0.80540000  1.0 -0.1392597815
C  C439  1  0.30730000  0.94530000  0.78220000  1.0 -0.043058347
C  C440  1  0.32450000  0.96240000  0.74550000  1.0 -0.1610078314
C  C441  1  0.36450000  0.94930000  0.73210000  1.0 0.1196519736
C  C442  1  0.38270000  0.96710000  0.69730000  1.0 0.1292146202
C  C443  1  0.36660000  0.99910000  0.67150000  1.0 -0.1610078314
C  C444  1  0.38860000  0.01140000  0.63540000  1.0 -0.0507315714
C  C445  1  0.42660000  0.99170000  0.62520000  1.0 -0.1392597815
C  C446  1  0.44270000  0.95970000  0.65100000  1.0 0.0291012894
C  C447  1  0.73520000  0.19390000  0.00630000  1.0 0.5392299867
C  C448  1  0.70150000  0.17180000  0.96340000  1.0 -0.0205742945
C  C449  1  0.71200000  0.17410000  0.92060000  1.0 -0.1002262748
C  C450  1  0.68040000  0.15450000  0.87880000  1.0 -0.1496664519
C  C451  1  0.63600000  0.13180000  0.88200000  1.0 0.062509056
C  C452  1  0.62430000  0.12900000  0.92560000  1.0 -0.1610078314
C  C453  1  0.66040000  0.15160000  0.96770000  1.0 -0.0898091138
C  C454  1  0.59930000  0.10990000  0.83920000  1.0 0.0902593687
C  C455  1  0.61290000  0.08760000  0.79780000  1.0 -0.2152819731
C  C456  1  0.57880000  0.06750000  0.75870000  1.0 0.0711848466
C  C457  1  0.53340000  0.06970000  0.76020000  1.0 -0.2039239794
C  C458  1  0.51920000  0.09090000  0.80000000  1.0 0.0711848466
C  C459  1  0.55110000  0.11120000  0.83840000  1.0 -0.2086675857
C  C460  1  0.46970000  0.09220000  0.79930000  1.0 0.062509056
C  C461  1  0.43810000  0.09700000  0.76070000  1.0 -0.1610078314
C  C462  1  0.45090000  0.08780000  0.83930000  1.0 -0.1695649611
C  C463  1  0.59383000  0.04322000  0.71431000  1.0 0.0711848466
C  C464  1  0.56014000  0.02849000  0.67354000  1.0 -0.1695649611
C  C465  1  0.57219000  0.00689000  0.63269000  1.0 -0.1094798376
C  C466  1  0.61788000  0.00002000  0.63266000  1.0 -0.0326652119
C  C467  1  0.65156000  0.01474000  0.67342000  1.0 -0.1002262748
C  C468  1  0.63955000  0.03635000  0.71425000  1.0 -0.179858683
C  C469  1  0.62860000  0.97510000  0.58890000  1.0 0.527018175
C  C470  1  0.79630000  0.22940000  0.17520000  1.0 0.5392299867
C  C471  1  0.79630000  0.22700000  0.22350000  1.0 -0.0326652119
C  C472  1  0.83040000  0.25300000  0.26060000  1.0 -0.0898091138
C  C473  1  0.82770000  0.25040000  0.30580000  1.0 -0.1610078314
C  C474  1  0.79040000  0.22270000  0.31710000  1.0 0.0711848466
C  C475  1  0.75760000  0.19680000  0.28160000  1.0 -0.1610078314
C  C476  1  0.76020000  0.20110000  0.23420000  1.0 -0.1002262748
C  C477  1  0.80438000  0.25598000  0.44912000  1.0 0.0711848466
C  C478  1  0.78614000  0.21378000  0.46093000  1.0 -0.2278568991
C  C479  1  0.76846000  0.17436000  0.42608000  1.0 0.0771772863
C  C480  1  0.76903000  0.17716000  0.37939000  1.0 -0.2086675857
C  C481  1  0.78727000  0.21936000  0.36758000  1.0 0.0902593687
C  C482  1  0.80495000  0.25878000  0.40243000  1.0 -0.2086675857
C  C483  1  0.74790000  0.12880000  0.43790000  1.0 0.0711848466
C  C484  1  0.75440000  0.08510000  0.41690000  1.0 -0.1610078314
C  C485  1  0.73360000  0.04480000  0.43000000  1.0 -0.1002262748
C  C486  1  0.70590000  0.04780000  0.46430000  1.0 -0.0326652119
C  C487  1  0.69930000  0.09150000  0.48540000  1.0 -0.0898091138
C  C488  1  0.72030000  0.13190000  0.47230000  1.0 -0.1610078314
C  C489  1  0.82460000  0.30060000  0.48610000  1.0 0.062509056
C  C490  1  0.86060000  0.33310000  0.48030000  1.0 -0.179858683
C  C491  1  0.81280000  0.29640000  0.52940000  1.0 -0.043058347
C  C492  1  0.86220000  0.18040000  0.07400000  1.0 0.5182699091
C  C493  1  0.94040000  0.16940000  0.05330000  1.0 -0.0898091138
C  C494  1  0.89970000  0.14960000  0.06760000  1.0 0.005448966
C  C495  1  0.89420000  0.10320000  0.07270000  1.0 -0.0898091138
C  C496  1  0.93020000  0.07880000  0.06830000  1.0 -0.1695649611
C  C497  1  0.97140000  0.09900000  0.05670000  1.0 0.0711848466
C  C498  1  0.97680000  0.14360000  0.05050000  1.0 -0.1610078314
C  C499  1  0.88820000  0.42270000  0.58780000  1.0 0.5492845502
C  C500  1  0.86670000  0.37920000  0.55350000  1.0 -0.0701897676
C  C501  1  0.87850000  0.36990000  0.51140000  1.0 -0.1002262748
C  C502  1  0.83030000  0.34510000  0.56100000  1.0 -0.0507315714
C  C503  1  0.65110000  0.85650000  0.54040000  1.0 0.527018175
C  C504  1  0.61750000  0.79070000  0.57470000  1.0 -0.0822254548
C  C505  1  0.62250000  0.75580000  0.60100000  1.0 -0.1695649611
C  C506  1  0.66700000  0.74810000  0.61790000  1.0 0.048848703
C  C507  1  0.70640000  0.77520000  0.60870000  1.0 -0.1610078314
C  C508  1  0.70140000  0.81010000  0.58240000  1.0 -0.0822254548
C  C509  1  0.65700000  0.81780000  0.56540000  1.0 -0.0507315714
C  C510  1  0.67190000  0.71070000  0.64590000  1.0 0.0291012894
C  C511  1  0.70720000  0.68430000  0.64690000  1.0 -0.1002262748
C  C512  1  0.03541000  0.07725000  0.01714000  1.0 -0.1695649611
C  C513  1  0.68290000  0.00530000  0.48060000  1.0 0.4321936346
C  C514  1  0.01010000  0.07020000  0.04860000  1.0 0.0771772863
C  C515  1  0.32070000  0.08780000  0.79760000  1.0 0.527018175
C  C516  1  0.37240000  0.08970000  0.79890000  1.0 -0.0088273997
C  C517  1  0.39140000  0.09690000  0.75950000  1.0 -0.1094798376
C  C518  1  0.39930000  0.08410000  0.83820000  1.0 -0.1002262748
C  C519  1  0.80550000  0.31060000  0.52610000  1.0 -0.0701897676
C  C520  1  0.68700000  0.67000000  0.62830000  1.0 -0.1094798376
C  C521  1  0.96690000  0.81090000  0.48410000  1.0 0.0037123076
C  C522  1  0.99090000  0.84430000  0.52270000  1.0 -0.1496664519
C  C523  1  0.98930000  0.83590000  0.56780000  1.0 -0.0507315714
C  C524  1  0.96360000  0.79430000  0.57420000  1.0 -0.179858683
C  C525  1  0.93960000  0.76090000  0.53560000  1.0 0.1196519736
C  C526  1  0.91200000  0.71950000  0.54040000  1.0 0.1292146202
C  C527  1  0.91170000  0.70120000  0.58120000  1.0 -0.1610078314
C  C528  1  0.88680000  0.65650000  0.57940000  1.0 -0.043058347
C  C529  1  0.86230000  0.63000000  0.53680000  1.0 -0.1496664519
C  C530  1  0.86260000  0.64810000  0.49590000  1.0 0.0291012894
C  C531  1  0.83580000  0.64100000  0.36360000  1.0 0.0291012894
C  C532  1  0.79520000  0.61790000  0.33220000  1.0 -0.1496664519
C  C533  1  0.75470000  0.63700000  0.32990000  1.0 -0.0609987699
C  C534  1  0.75480000  0.67920000  0.35900000  1.0 -0.1695649611
C  C535  1  0.79530000  0.70210000  0.39040000  1.0 0.1196519736
C  C536  1  0.80110000  0.74210000  0.41960000  1.0 0.0902593687
C  C537  1  0.76500000  0.76710000  0.42200000  1.0 -0.1610078314
C  C538  1  0.77310000  0.81080000  0.45120000  1.0 -0.0898091138
C  C539  1  0.81750000  0.82930000  0.47800000  1.0 -0.1496664519
C  C540  1  0.85360000  0.80420000  0.47570000  1.0 0.0291012894
C  C541  1  0.90210000  0.79190000  0.37020000  1.0 0.0201581648
C  C542  1  0.91510000  0.80540000  0.33020000  1.0 -0.1392597815
C  C543  1  0.94530000  0.78220000  0.30730000  1.0 -0.0326652119
C  C544  1  0.96240000  0.74550000  0.32450000  1.0 -0.1610078314
C  C545  1  0.94930000  0.73210000  0.36450000  1.0 0.1196519736
C  C546  1  0.96710000  0.69730000  0.38270000  1.0 0.1367106325
C  C547  1  0.99910000  0.67150000  0.36660000  1.0 -0.1610078314
C  C548  1  0.01140000  0.63540000  0.38860000  1.0 -0.0507315714
C  C549  1  0.99170000  0.62520000  0.42660000  1.0 -0.1392597815
C  C550  1  0.95970000  0.65100000  0.44270000  1.0 0.0291012894
C  C551  1  0.19390000  0.00630000  0.73520000  1.0 0.5392299867
C  C552  1  0.17180000  0.96340000  0.70150000  1.0 -0.0205742945
C  C553  1  0.17410000  0.92060000  0.71200000  1.0 -0.1094798376
C  C554  1  0.15450000  0.87880000  0.68040000  1.0 -0.1496664519
C  C555  1  0.13180000  0.88200000  0.63600000  1.0 0.062509056
C  C556  1  0.12900000  0.92560000  0.62430000  1.0 -0.1610078314
C  C557  1  0.15160000  0.96770000  0.66040000  1.0 -0.0898091138
C  C558  1  0.10990000  0.83920000  0.59930000  1.0 0.0902593687
C  C559  1  0.08760000  0.79780000  0.61290000  1.0 -0.2152819731
C  C560  1  0.06750000  0.75870000  0.57880000  1.0 0.0711848466
C  C561  1  0.06970000  0.76020000  0.53340000  1.0 -0.2039239794
C  C562  1  0.09090000  0.80000000  0.51920000  1.0 0.0711848466
C  C563  1  0.11120000  0.83840000  0.55110000  1.0 -0.2086675857
C  C564  1  0.09220000  0.79930000  0.46970000  1.0 0.062509056
C  C565  1  0.09700000  0.76070000  0.43810000  1.0 -0.1695649611
C  C566  1  0.08780000  0.83930000  0.45090000  1.0 -0.1695649611
C  C567  1  0.04322000  0.71431000  0.59383000  1.0 0.0711848466
C  C568  1  0.02849000  0.67354000  0.56014000  1.0 -0.1695649611
C  C569  1  0.00689000  0.63269000  0.57219000  1.0 -0.1094798376
C  C570  1  0.00002000  0.63266000  0.61788000  1.0 -0.0326652119
C  C571  1  0.01474000  0.67342000  0.65156000  1.0 -0.1002262748
C  C572  1  0.03635000  0.71425000  0.63955000  1.0 -0.179858683
C  C573  1  0.97510000  0.58890000  0.62860000  1.0 0.5182699091
C  C574  1  0.22940000  0.17520000  0.79630000  1.0 0.5392299867
C  C575  1  0.22700000  0.22350000  0.79630000  1.0 -0.0326652119
C  C576  1  0.25300000  0.26060000  0.83040000  1.0 -0.0898091138
C  C577  1  0.25040000  0.30580000  0.82770000  1.0 -0.1610078314
C  C578  1  0.22270000  0.31710000  0.79040000  1.0 0.0711848466
C  C579  1  0.19680000  0.28160000  0.75760000  1.0 -0.1610078314
C  C580  1  0.20110000  0.23420000  0.76020000  1.0 -0.1002262748
C  C581  1  0.25598000  0.44912000  0.80438000  1.0 0.0711848466
C  C582  1  0.21378000  0.46093000  0.78614000  1.0 -0.2278568991
C  C583  1  0.17436000  0.42608000  0.76846000  1.0 0.0771772863
C  C584  1  0.17716000  0.37939000  0.76903000  1.0 -0.2086675857
C  C585  1  0.21936000  0.36758000  0.78727000  1.0 0.0902593687
C  C586  1  0.25878000  0.40243000  0.80495000  1.0 -0.2086675857
C  C587  1  0.12880000  0.43790000  0.74790000  1.0 0.0711848466
C  C588  1  0.08510000  0.41690000  0.75440000  1.0 -0.1610078314
C  C589  1  0.04480000  0.43000000  0.73360000  1.0 -0.1002262748
C  C590  1  0.04780000  0.46430000  0.70590000  1.0 -0.0326652119
C  C591  1  0.09150000  0.48540000  0.69930000  1.0 -0.0898091138
C  C592  1  0.13190000  0.47230000  0.72030000  1.0 -0.1610078314
C  C593  1  0.30060000  0.48610000  0.82460000  1.0 0.062509056
C  C594  1  0.33310000  0.48030000  0.86060000  1.0 -0.179858683
C  C595  1  0.29640000  0.52940000  0.81280000  1.0 -0.0507315714
C  C596  1  0.18040000  0.07400000  0.86220000  1.0 0.5182699091
C  C597  1  0.16940000  0.05330000  0.94040000  1.0 -0.0898091138
C  C598  1  0.14960000  0.06760000  0.89970000  1.0 0.005448966
C  C599  1  0.10320000  0.07270000  0.89420000  1.0 -0.0898091138
C  C600  1  0.07880000  0.06830000  0.93020000  1.0 -0.1695649611
C  C601  1  0.09900000  0.05670000  0.97140000  1.0 0.0711848466
C  C602  1  0.14360000  0.05050000  0.97680000  1.0 -0.1610078314
C  C603  1  0.42270000  0.58780000  0.88820000  1.0 0.5492845502
C  C604  1  0.37920000  0.55350000  0.86670000  1.0 -0.0701897676
C  C605  1  0.36990000  0.51140000  0.87850000  1.0 -0.1002262748
C  C606  1  0.34510000  0.56100000  0.83030000  1.0 -0.0507315714
C  C607  1  0.85650000  0.54040000  0.65110000  1.0 0.527018175
C  C608  1  0.79070000  0.57470000  0.61750000  1.0 -0.0822254548
C  C609  1  0.75580000  0.60100000  0.62250000  1.0 -0.1695649611
C  C610  1  0.74810000  0.61790000  0.66700000  1.0 0.048848703
C  C611  1  0.77520000  0.60870000  0.70640000  1.0 -0.1610078314
C  C612  1  0.81010000  0.58240000  0.70140000  1.0 -0.0822254548
C  C613  1  0.81780000  0.56540000  0.65700000  1.0 -0.0507315714
C  C614  1  0.71070000  0.64590000  0.67190000  1.0 0.0291012894
C  C615  1  0.68430000  0.64690000  0.70720000  1.0 -0.1002262748
C  C616  1  0.07725000  0.01714000  0.03541000  1.0 -0.1695649611
C  C617  1  0.00530000  0.48060000  0.68290000  1.0 0.4321936346
C  C618  1  0.07020000  0.04860000  0.01010000  1.0 0.0771772863
C  C619  1  0.08780000  0.79760000  0.32070000  1.0 0.5182699091
C  C620  1  0.08970000  0.79890000  0.37240000  1.0 -0.0088273997
C  C621  1  0.09690000  0.75950000  0.39140000  1.0 -0.1094798376
C  C622  1  0.08410000  0.83820000  0.39930000  1.0 -0.1002262748
C  C623  1  0.31060000  0.52610000  0.80550000  1.0 -0.0701897676
C  C624  1  0.67000000  0.62830000  0.68700000  1.0 -0.1094798376
N  N1  1  0.23084000  0.50944000  0.05884000  1.0 -0.2278568991
N  N2  1  0.30710000  0.50230000  0.11260000  1.0 -0.2590712533
N  N3  1  0.31690000  0.60740000  0.16420000  1.0 -0.2590712533
N  N4  1  0.23940000  0.55350000  0.15460000  1.0 -0.2086675857
N  N5  1  0.24480000  0.61260000  0.08080000  1.0 -0.244855734
N  N6  1  0.31310000  0.57930000  0.05270000  1.0 -0.2590712533
N  N7  1  0.50944000  0.05884000  0.23084000  1.0 -0.2278568991
N  N8  1  0.50230000  0.11260000  0.30710000  1.0 -0.2590712533
N  N9  1  0.60740000  0.16420000  0.31690000  1.0 -0.2590712533
N  N10  1  0.55350000  0.15460000  0.23940000  1.0 -0.2086675857
N  N11  1  0.61260000  0.08080000  0.24480000  1.0 -0.2460801475
N  N12  1  0.57930000  0.05270000  0.31310000  1.0 -0.2590712533
N  N13  1  0.05884000  0.23084000  0.50944000  1.0 -0.2278568991
N  N14  1  0.11260000  0.30710000  0.50230000  1.0 -0.2590712533
N  N15  1  0.16420000  0.31690000  0.60740000  1.0 -0.26534568
N  N16  1  0.15460000  0.23940000  0.55350000  1.0 -0.2086675857
N  N17  1  0.08080000  0.24480000  0.61260000  1.0 -0.244855734
N  N18  1  0.05270000  0.31310000  0.57930000  1.0 -0.2590712533
N  N19  1  0.76916000  0.49056000  0.94116000  1.0 -0.2278568991
N  N20  1  0.69290000  0.49770000  0.88740000  1.0 -0.2590712533
N  N21  1  0.68310000  0.39260000  0.83580000  1.0 -0.2590712533
N  N22  1  0.76060000  0.44650000  0.84540000  1.0 -0.2086675857
N  N23  1  0.75520000  0.38740000  0.91920000  1.0 -0.2460801475
N  N24  1  0.68690000  0.42070000  0.94730000  1.0 -0.2590712533
N  N25  1  0.49056000  0.94116000  0.76916000  1.0 -0.2278568991
N  N26  1  0.49770000  0.88740000  0.69290000  1.0 -0.2590712533
N  N27  1  0.39260000  0.83580000  0.68310000  1.0 -0.2590712533
N  N28  1  0.44650000  0.84540000  0.76060000  1.0 -0.2086675857
N  N29  1  0.38740000  0.91920000  0.75520000  1.0 -0.2460801475
N  N30  1  0.42070000  0.94730000  0.68690000  1.0 -0.2590712533
N  N31  1  0.94116000  0.76916000  0.49056000  1.0 -0.2278568991
N  N32  1  0.88740000  0.69290000  0.49770000  1.0 -0.2590712533
N  N33  1  0.83580000  0.68310000  0.39260000  1.0 -0.2590712533
N  N34  1  0.84540000  0.76060000  0.44650000  1.0 -0.2086675857
N  N35  1  0.91920000  0.75520000  0.38740000  1.0 -0.244855734
N  N36  1  0.94730000  0.68690000  0.42070000  1.0 -0.2590712533
O  O1  1  0.54160000  0.29770000  0.11720000  1.0 0.7897472359
O  O2  1  0.99492000  0.22569000  0.78276000  1.0 -0.4975880755
O  O3  1  0.95377000  0.26971000  0.81094000  1.0 -0.4608968105
O  O4  1  0.41330000  0.33260000  0.03150000  1.0 -0.472847014
O  O5  1  0.44700000  0.40550000  0.04130000  1.0 -0.5325164868
O  O6  1  0.85721000  0.23631000  0.79111000  1.0 -0.5066192819
O  O7  1  0.83600000  0.16760000  0.74690000  1.0 -0.5371695531
O  O8  1  0.23913000  0.70535000  0.90765000  1.0 -0.5325164868
O  O9  1  0.16801000  0.69544000  0.91902000  1.0 -0.4856172525
O  O10  1  0.92802000  0.13076000  0.77890000  1.0 -0.481904721
O  O11  1  0.91914000  0.17768000  0.84010000  1.0 -0.5558826897
O  O12  1  0.42197000  0.08057000  0.54857000  1.0 -0.481904721
O  O13  1  0.37230000  0.12230000  0.57100000  1.0 -0.6573588126
O  O14  1  0.46840000  0.38830000  0.13520000  1.0 -0.4608968105
O  O15  1  0.47320000  0.31530000  0.12000000  1.0 -0.6215702567
O  O16  1  0.52230000  0.30020000  0.03000000  1.0 -0.1855412894
O  O17  1  0.50550000  0.35370000  0.99210000  1.0 -0.3963472658
O  O18  1  0.49140000  0.29260000  0.01330000  1.0 -0.1002262748
O  O19  1  0.29770000  0.11720000  0.54160000  1.0 0.7897472359
O  O20  1  0.22569000  0.78276000  0.99492000  1.0 -0.4975880755
O  O21  1  0.26971000  0.81094000  0.95377000  1.0 -0.4608968105
O  O22  1  0.33260000  0.03150000  0.41330000  1.0 -0.472847014
O  O23  1  0.40550000  0.04130000  0.44700000  1.0 -0.5325164868
O  O24  1  0.23631000  0.79111000  0.85721000  1.0 -0.5066192819
O  O25  1  0.16760000  0.74690000  0.83600000  1.0 -0.5371695531
O  O26  1  0.70535000  0.90765000  0.23913000  1.0 -0.5325164868
O  O27  1  0.69544000  0.91902000  0.16801000  1.0 -0.4856172525
O  O28  1  0.13076000  0.77890000  0.92802000  1.0 -0.481904721
O  O29  1  0.17768000  0.84010000  0.91914000  1.0 -0.5558826897
O  O30  1  0.08057000  0.54857000  0.42197000  1.0 -0.481904721
O  O31  1  0.12230000  0.57100000  0.37230000  1.0 -0.6573588126
O  O32  1  0.38830000  0.13520000  0.46840000  1.0 -0.4608968105
O  O33  1  0.31530000  0.12000000  0.47320000  1.0 -0.6215702567
O  O34  1  0.30020000  0.03000000  0.52230000  1.0 -0.179858683
O  O35  1  0.35370000  0.99210000  0.50550000  1.0 -0.3963472658
O  O36  1  0.29260000  0.01330000  0.49140000  1.0 -0.1002262748
O  O37  1  0.11720000  0.54160000  0.29770000  1.0 0.7849128074
O  O38  1  0.78276000  0.99492000  0.22569000  1.0 -0.4975880755
O  O39  1  0.81094000  0.95377000  0.26971000  1.0 -0.4549450152
O  O40  1  0.03150000  0.41330000  0.33260000  1.0 -0.472847014
O  O41  1  0.04130000  0.44700000  0.40550000  1.0 -0.5325164868
O  O42  1  0.79111000  0.85721000  0.23631000  1.0 -0.5066192819
O  O43  1  0.74690000  0.83600000  0.16760000  1.0 -0.5371695531
O  O44  1  0.90765000  0.23913000  0.70535000  1.0 -0.5325164868
O  O45  1  0.91902000  0.16801000  0.69544000  1.0 -0.4856172525
O  O46  1  0.77890000  0.92802000  0.13076000  1.0 -0.481904721
O  O47  1  0.84010000  0.91914000  0.17768000  1.0 -0.5558826897
O  O48  1  0.54857000  0.42197000  0.08057000  1.0 -0.481904721
O  O49  1  0.57100000  0.37230000  0.12230000  1.0 -0.6573588126
O  O50  1  0.13520000  0.46840000  0.38830000  1.0 -0.4608968105
O  O51  1  0.12000000  0.47320000  0.31530000  1.0 -0.6215702567
O  O52  1  0.03000000  0.52230000  0.30020000  1.0 -0.179858683
O  O53  1  0.99210000  0.50550000  0.35370000  1.0 -0.3963472658
O  O54  1  0.01330000  0.49140000  0.29260000  1.0 -0.0898091138
O  O55  1  0.45840000  0.70230000  0.88280000  1.0 0.7897472359
O  O56  1  0.00508000  0.77431000  0.21724000  1.0 -0.4975880755
O  O57  1  0.04623000  0.73029000  0.18906000  1.0 -0.4549450152
O  O58  1  0.58670000  0.66740000  0.96850000  1.0 -0.472847014
O  O59  1  0.55300000  0.59450000  0.95870000  1.0 -0.5325164868
O  O60  1  0.14279000  0.76369000  0.20889000  1.0 -0.5066192819
O  O61  1  0.16400000  0.83240000  0.25310000  1.0 -0.5371695531
O  O62  1  0.76087000  0.29465000  0.09235000  1.0 -0.5325164868
O  O63  1  0.83199000  0.30456000  0.08098000  1.0 -0.4856172525
O  O64  1  0.07198000  0.86924000  0.22110000  1.0 -0.481904721
O  O65  1  0.08086000  0.82232000  0.15990000  1.0 -0.5558826897
O  O66  1  0.57803000  0.91943000  0.45143000  1.0 -0.481904721
O  O67  1  0.62770000  0.87770000  0.42900000  1.0 -0.6573588126
O  O68  1  0.53160000  0.61170000  0.86480000  1.0 -0.4608968105
O  O69  1  0.52680000  0.68470000  0.88000000  1.0 -0.6215702567
O  O70  1  0.47770000  0.69980000  0.97000000  1.0 -0.179858683
O  O71  1  0.49450000  0.64630000  0.00790000  1.0 -0.3963472658
O  O72  1  0.50860000  0.70740000  0.98670000  1.0 -0.1002262748
O  O73  1  0.70230000  0.88280000  0.45840000  1.0 0.7373601026
O  O74  1  0.77431000  0.21724000  0.00508000  1.0 -0.4975880755
O  O75  1  0.73029000  0.18906000  0.04623000  1.0 -0.4608968105
O  O76  1  0.66740000  0.96850000  0.58670000  1.0 -0.472847014
O  O77  1  0.59450000  0.95870000  0.55300000  1.0 -0.5325164868
O  O78  1  0.76369000  0.20889000  0.14279000  1.0 -0.5066192819
O  O79  1  0.83240000  0.25310000  0.16400000  1.0 -0.5371695531
O  O80  1  0.29465000  0.09235000  0.76087000  1.0 -0.5325164868
O  O81  1  0.30456000  0.08098000  0.83199000  1.0 -0.481904721
O  O82  1  0.86924000  0.22110000  0.07198000  1.0 -0.4856172525
O  O83  1  0.82232000  0.15990000  0.08086000  1.0 -0.5558826897
O  O84  1  0.91943000  0.45143000  0.57803000  1.0 -0.481904721
O  O85  1  0.87770000  0.42900000  0.62770000  1.0 -0.6573588126
O  O86  1  0.61170000  0.86480000  0.53160000  1.0 -0.4608968105
O  O87  1  0.68470000  0.88000000  0.52680000  1.0 -0.6215702567
O  O88  1  0.69980000  0.97000000  0.47770000  1.0 -0.179858683
O  O89  1  0.64630000  0.00790000  0.49450000  1.0 -0.3963472658
O  O90  1  0.70740000  0.98670000  0.50860000  1.0 -0.1002262748
O  O91  1  0.88280000  0.45840000  0.70230000  1.0 0.7897472359
O  O92  1  0.21724000  0.00508000  0.77431000  1.0 -0.4975880755
O  O93  1  0.18906000  0.04623000  0.73029000  1.0 -0.4549450152
O  O94  1  0.96850000  0.58670000  0.66740000  1.0 -0.481904721
O  O95  1  0.95870000  0.55300000  0.59450000  1.0 -0.5325164868
O  O96  1  0.20889000  0.14279000  0.76369000  1.0 -0.5066192819
O  O97  1  0.25310000  0.16400000  0.83240000  1.0 -0.5371695531
O  O98  1  0.09235000  0.76087000  0.29465000  1.0 -0.5325164868
O  O99  1  0.08098000  0.83199000  0.30456000  1.0 -0.4856172525
O  O100  1  0.22110000  0.07198000  0.86924000  1.0 -0.481904721
O  O101  1  0.15990000  0.08086000  0.82232000  1.0 -0.5558826897
O  O102  1  0.45143000  0.57803000  0.91943000  1.0 -0.481904721
O  O103  1  0.42900000  0.62770000  0.87770000  1.0 -0.6573588126
O  O104  1  0.86480000  0.53160000  0.61170000  1.0 -0.4608968105
O  O105  1  0.88000000  0.52680000  0.68470000  1.0 -0.6215702567
O  O106  1  0.97000000  0.47770000  0.69980000  1.0 -0.179858683
O  O107  1  0.00790000  0.49450000  0.64630000  1.0 -0.3938580923
O  O108  1  0.98670000  0.50860000  0.70740000  1.0 -0.0898091138
