# DDEC6 charges by PACMAN v1.1 (https://github.com/mtap-research/PACMAN-charge/)
data_KABPOW_ASR_pacman
_symmetry_space_group_name_H-M   'P 1'
_cell_length_a   29.42460000
_cell_length_b   29.42460000
_cell_length_c   29.42460000
_cell_angle_alpha   99.34650000
_cell_angle_beta   99.34650000
_cell_angle_gamma   99.34650000
_symmetry_Int_Tables_number   1
_chemical_formula_structural   In2H51C85O16
_chemical_formula_sum   'In12 H306 C510 O96'
_cell_volume   24333.37001239
_cell_formula_units_Z   6
loop_
 _symmetry_equiv_pos_site_id
 _symmetry_equiv_pos_as_xyz
  1  'x, y, z'
loop_
 _atom_site_type_symbol
 _atom_site_label
 _atom_site_symmetry_multiplicity
 _atom_site_fract_x
 _atom_site_fract_y
 _atom_site_fract_z
 _atom_site_occupancy
 _atom_site_charge
In  In1  1  0.08573000  0.22986000  0.79927000  1.0 1.3832949016
In  In2  1  0.50789000  0.93060000  0.64061000  1.0 1.3195667082
In  In3  1  0.79927000  0.08573000  0.22986000  1.0 1.3832949016
In  In4  1  0.64061000  0.50789000  0.93060000  1.0 1.3195667082
In  In5  1  0.22986000  0.79927000  0.08573000  1.0 1.3832949016
In  In6  1  0.93060000  0.64061000  0.50789000  1.0 1.3195667082
In  In7  1  0.91427000  0.77014000  0.20073000  1.0 1.3832949016
In  In8  1  0.49211000  0.06940000  0.35939000  1.0 1.3195667082
In  In9  1  0.20073000  0.91427000  0.77014000  1.0 1.3832949016
In  In10  1  0.35939000  0.49211000  0.06940000  1.0 1.3195667082
In  In11  1  0.77014000  0.20073000  0.91427000  1.0 1.3832949016
In  In12  1  0.06940000  0.35939000  0.49211000  1.0 1.3195667082
H  H1  1  0.25810000  0.27270000  0.85460000  1.0 0.1288738479
H  H2  1  0.21130000  0.18140000  0.73290000  1.0 0.1288738479
H  H3  1  0.09990000  0.37020000  0.73170000  1.0 0.1288738479
H  H4  1  0.08040000  0.38750000  0.86500000  1.0 0.1200452831
H  H5  1  0.05090000  0.19900000  0.94440000  1.0 0.1288738479
H  H6  1  0.07770000  0.08790000  0.86490000  1.0 0.1288738479
H  H7  1  0.33170000  0.26750000  0.85100000  1.0 0.1109548163
H  H8  1  0.28640000  0.17520000  0.72940000  1.0 0.1288738479
H  H9  1  0.10030000  0.44930000  0.73260000  1.0 0.1200452831
H  H10  1  0.08090000  0.46660000  0.86580000  1.0 0.1200452831
H  H11  1  0.04650000  0.15830000  0.00450000  1.0 0.1200452831
H  H12  1  0.07020000  0.04460000  0.92470000  1.0 0.1109548163
H  H13  1  0.35710000  0.14950000  0.75550000  1.0 0.1288738479
H  H14  1  0.39520000  0.28620000  0.81530000  1.0 0.1200452831
H  H15  1  0.05590000  0.50750000  0.73260000  1.0 0.1200452831
H  H16  1  0.12100000  0.54160000  0.86650000  1.0 0.1288738479
H  H17  1  0.00140000  0.10070000  0.03280000  1.0 0.1200452831
H  H18  1  0.49330000  0.21180000  0.78620000  1.0 0.1288738479
H  H19  1  0.08880000  0.64140000  0.79770000  1.0 0.1200452831
H  H20  1  0.39890000  0.08680000  0.77850000  1.0 0.1109548163
H  H21  1  0.48750000  0.15810000  0.71250000  1.0 0.0697564922
H  H22  1  0.45330000  0.32440000  0.87470000  1.0 0.1007947909
H  H23  1  0.53380000  0.28640000  0.78270000  1.0 0.0915114648
H  H24  1  0.03990000  0.52910000  0.67240000  1.0 0.0825135085
H  H25  1  0.04530000  0.65910000  0.74040000  1.0 0.1007947909
H  H26  1  0.15870000  0.68370000  0.85050000  1.0 0.1109548163
H  H27  1  0.11060000  0.59580000  0.92770000  1.0 0.1200452831
H  H28  1  0.42440000  0.01840000  0.75240000  1.0 0.0915114648
H  H29  1  0.51290000  0.08960000  0.68630000  1.0 0.0915114648
H  H30  1  0.50940000  0.39180000  0.90780000  1.0 0.1200452831
H  H31  1  0.59000000  0.35370000  0.81580000  1.0 0.1200452831
H  H32  1  0.00860000  0.55200000  0.59830000  1.0 0.0915114648
H  H33  1  0.99960000  0.67600000  0.67710000  1.0 0.0915114648
H  H34  1  0.18670000  0.74260000  0.91690000  1.0 0.1288738479
H  H35  1  0.14650000  0.65180000  0.99630000  1.0 0.1288738479
H  H36  1  0.72940000  0.58050000  0.82760000  1.0 0.1109548163
H  H37  1  0.58960000  0.56700000  0.79550000  1.0 0.1109548163
H  H38  1  0.73010000  0.59500000  0.75150000  1.0 0.0697564922
H  H39  1  0.59940000  0.60530000  0.73480000  1.0 0.1007947909
H  H40  1  0.63490000  0.69580000  0.73480000  1.0 0.0915114648
H  H41  1  0.54730000  0.27680000  0.81330000  1.0 0.1007947909
H  H42  1  0.42370000  0.02210000  0.73560000  1.0 0.1109548163
H  H43  1  0.49760000  0.09530000  0.66260000  1.0 0.0915114648
H  H44  1  0.45120000  0.15330000  0.68100000  1.0 0.0825135085
H  H45  1  0.06500000  0.38520000  0.85810000  1.0 0.1200452831
H  H46  1  0.99990000  0.52850000  0.68780000  1.0 0.1007947909
H  H47  1  0.73500000  0.63620000  0.78430000  1.0 0.0697564922
H  H48  1  0.59590000  0.54140000  0.77250000  1.0 0.1109548163
H  H49  1  0.62250000  0.68260000  0.72050000  1.0 0.0915114648
H  H50  1  0.04060000  0.67710000  0.66530000  1.0 0.0825135085
H  H51  1  0.97770000  0.54490000  0.61290000  1.0 0.0825135085
H  H52  1  0.85460000  0.25810000  0.27270000  1.0 0.1288738479
H  H53  1  0.73290000  0.21130000  0.18140000  1.0 0.1288738479
H  H54  1  0.73170000  0.09990000  0.37020000  1.0 0.1288738479
H  H55  1  0.86500000  0.08040000  0.38750000  1.0 0.1200452831
H  H56  1  0.94440000  0.05090000  0.19900000  1.0 0.1288738479
H  H57  1  0.86490000  0.07770000  0.08790000  1.0 0.1288738479
H  H58  1  0.85100000  0.33170000  0.26750000  1.0 0.1109548163
H  H59  1  0.72940000  0.28640000  0.17520000  1.0 0.1288738479
H  H60  1  0.73260000  0.10030000  0.44930000  1.0 0.1200452831
H  H61  1  0.86580000  0.08090000  0.46660000  1.0 0.1200452831
H  H62  1  0.00450000  0.04650000  0.15830000  1.0 0.1200452831
H  H63  1  0.92470000  0.07020000  0.04460000  1.0 0.1109548163
H  H64  1  0.75550000  0.35710000  0.14950000  1.0 0.1288738479
H  H65  1  0.81530000  0.39520000  0.28620000  1.0 0.1200452831
H  H66  1  0.73260000  0.05590000  0.50750000  1.0 0.1200452831
H  H67  1  0.86650000  0.12100000  0.54160000  1.0 0.1288738479
H  H68  1  0.03280000  0.00140000  0.10070000  1.0 0.1200452831
H  H69  1  0.78620000  0.49330000  0.21180000  1.0 0.1288738479
H  H70  1  0.79770000  0.08880000  0.64140000  1.0 0.1200452831
H  H71  1  0.77850000  0.39890000  0.08680000  1.0 0.1109548163
H  H72  1  0.71250000  0.48750000  0.15810000  1.0 0.0697564922
H  H73  1  0.87470000  0.45330000  0.32440000  1.0 0.1007947909
H  H74  1  0.78270000  0.53380000  0.28640000  1.0 0.0915114648
H  H75  1  0.67240000  0.03990000  0.52910000  1.0 0.0825135085
H  H76  1  0.74040000  0.04530000  0.65910000  1.0 0.1007947909
H  H77  1  0.85050000  0.15870000  0.68370000  1.0 0.1109548163
H  H78  1  0.92770000  0.11060000  0.59580000  1.0 0.1200452831
H  H79  1  0.75240000  0.42440000  0.01840000  1.0 0.0915114648
H  H80  1  0.68630000  0.51290000  0.08960000  1.0 0.0915114648
H  H81  1  0.90780000  0.50940000  0.39180000  1.0 0.1200452831
H  H82  1  0.81580000  0.59000000  0.35370000  1.0 0.1200452831
H  H83  1  0.59830000  0.00860000  0.55200000  1.0 0.0915114648
H  H84  1  0.67710000  0.99960000  0.67600000  1.0 0.0915114648
H  H85  1  0.91690000  0.18670000  0.74260000  1.0 0.1288738479
H  H86  1  0.99630000  0.14650000  0.65180000  1.0 0.1288738479
H  H87  1  0.82760000  0.72940000  0.58050000  1.0 0.1109548163
H  H88  1  0.79550000  0.58960000  0.56700000  1.0 0.1109548163
H  H89  1  0.75150000  0.73010000  0.59500000  1.0 0.0697564922
H  H90  1  0.73480000  0.59940000  0.60530000  1.0 0.1007947909
H  H91  1  0.73480000  0.63490000  0.69580000  1.0 0.0915114648
H  H92  1  0.81330000  0.54730000  0.27680000  1.0 0.1007947909
H  H93  1  0.73560000  0.42370000  0.02210000  1.0 0.1109548163
H  H94  1  0.66260000  0.49760000  0.09530000  1.0 0.0915114648
H  H95  1  0.68100000  0.45120000  0.15330000  1.0 0.0825135085
H  H96  1  0.85810000  0.06500000  0.38520000  1.0 0.1200452831
H  H97  1  0.68780000  0.99990000  0.52850000  1.0 0.1007947909
H  H98  1  0.78430000  0.73500000  0.63620000  1.0 0.0697564922
H  H99  1  0.77250000  0.59590000  0.54140000  1.0 0.1109548163
H  H100  1  0.72050000  0.62250000  0.68260000  1.0 0.0915114648
H  H101  1  0.66530000  0.04060000  0.67710000  1.0 0.0825135085
H  H102  1  0.61290000  0.97770000  0.54490000  1.0 0.0825135085
H  H103  1  0.27270000  0.85460000  0.25810000  1.0 0.1288738479
H  H104  1  0.18140000  0.73290000  0.21130000  1.0 0.1288738479
H  H105  1  0.37020000  0.73170000  0.09990000  1.0 0.1288738479
H  H106  1  0.38750000  0.86500000  0.08040000  1.0 0.1200452831
H  H107  1  0.19900000  0.94440000  0.05090000  1.0 0.1288738479
H  H108  1  0.08790000  0.86490000  0.07770000  1.0 0.1288738479
H  H109  1  0.26750000  0.85100000  0.33170000  1.0 0.1109548163
H  H110  1  0.17520000  0.72940000  0.28640000  1.0 0.1288738479
H  H111  1  0.44930000  0.73260000  0.10030000  1.0 0.1200452831
H  H112  1  0.46660000  0.86580000  0.08090000  1.0 0.1200452831
H  H113  1  0.15830000  0.00450000  0.04650000  1.0 0.1200452831
H  H114  1  0.04460000  0.92470000  0.07020000  1.0 0.1109548163
H  H115  1  0.14950000  0.75550000  0.35710000  1.0 0.1288738479
H  H116  1  0.28620000  0.81530000  0.39520000  1.0 0.1200452831
H  H117  1  0.50750000  0.73260000  0.05590000  1.0 0.1200452831
H  H118  1  0.54160000  0.86650000  0.12100000  1.0 0.1288738479
H  H119  1  0.10070000  0.03280000  0.00140000  1.0 0.1200452831
H  H120  1  0.21180000  0.78620000  0.49330000  1.0 0.1288738479
H  H121  1  0.64140000  0.79770000  0.08880000  1.0 0.1200452831
H  H122  1  0.08680000  0.77850000  0.39890000  1.0 0.1109548163
H  H123  1  0.15810000  0.71250000  0.48750000  1.0 0.0697564922
H  H124  1  0.32440000  0.87470000  0.45330000  1.0 0.1007947909
H  H125  1  0.28640000  0.78270000  0.53380000  1.0 0.0915114648
H  H126  1  0.52910000  0.67240000  0.03990000  1.0 0.0825135085
H  H127  1  0.65910000  0.74040000  0.04530000  1.0 0.1007947909
H  H128  1  0.68370000  0.85050000  0.15870000  1.0 0.1109548163
H  H129  1  0.59580000  0.92770000  0.11060000  1.0 0.1200452831
H  H130  1  0.01840000  0.75240000  0.42440000  1.0 0.0915114648
H  H131  1  0.08960000  0.68630000  0.51290000  1.0 0.0915114648
H  H132  1  0.39180000  0.90780000  0.50940000  1.0 0.1200452831
H  H133  1  0.35370000  0.81580000  0.59000000  1.0 0.1200452831
H  H134  1  0.55200000  0.59830000  0.00860000  1.0 0.0915114648
H  H135  1  0.67600000  0.67710000  0.99960000  1.0 0.0915114648
H  H136  1  0.74260000  0.91690000  0.18670000  1.0 0.1288738479
H  H137  1  0.65180000  0.99630000  0.14650000  1.0 0.1288738479
H  H138  1  0.58050000  0.82760000  0.72940000  1.0 0.1109548163
H  H139  1  0.56700000  0.79550000  0.58960000  1.0 0.1109548163
H  H140  1  0.59500000  0.75150000  0.73010000  1.0 0.0697564922
H  H141  1  0.60530000  0.73480000  0.59940000  1.0 0.1007947909
H  H142  1  0.69580000  0.73480000  0.63490000  1.0 0.0915114648
H  H143  1  0.27680000  0.81330000  0.54730000  1.0 0.1007947909
H  H144  1  0.02210000  0.73560000  0.42370000  1.0 0.1109548163
H  H145  1  0.09530000  0.66260000  0.49760000  1.0 0.0915114648
H  H146  1  0.15330000  0.68100000  0.45120000  1.0 0.0825135085
H  H147  1  0.38520000  0.85810000  0.06500000  1.0 0.1200452831
H  H148  1  0.52850000  0.68780000  0.99990000  1.0 0.1007947909
H  H149  1  0.63620000  0.78430000  0.73500000  1.0 0.0697564922
H  H150  1  0.54140000  0.77250000  0.59590000  1.0 0.1109548163
H  H151  1  0.68260000  0.72050000  0.62250000  1.0 0.0915114648
H  H152  1  0.67710000  0.66530000  0.04060000  1.0 0.0825135085
H  H153  1  0.54490000  0.61290000  0.97770000  1.0 0.0825135085
H  H154  1  0.74190000  0.72730000  0.14540000  1.0 0.1288738479
H  H155  1  0.78870000  0.81860000  0.26710000  1.0 0.1288738479
H  H156  1  0.90010000  0.62980000  0.26830000  1.0 0.1288738479
H  H157  1  0.91960000  0.61250000  0.13500000  1.0 0.1200452831
H  H158  1  0.94910000  0.80100000  0.05560000  1.0 0.1288738479
H  H159  1  0.92230000  0.91210000  0.13510000  1.0 0.1288738479
H  H160  1  0.66830000  0.73250000  0.14900000  1.0 0.1109548163
H  H161  1  0.71360000  0.82480000  0.27060000  1.0 0.1288738479
H  H162  1  0.89970000  0.55070000  0.26740000  1.0 0.1200452831
H  H163  1  0.91910000  0.53340000  0.13420000  1.0 0.1200452831
H  H164  1  0.95350000  0.84170000  0.99550000  1.0 0.1200452831
H  H165  1  0.92980000  0.95540000  0.07530000  1.0 0.1109548163
H  H166  1  0.64290000  0.85050000  0.24450000  1.0 0.1288738479
H  H167  1  0.60480000  0.71380000  0.18470000  1.0 0.1200452831
H  H168  1  0.94410000  0.49250000  0.26740000  1.0 0.1200452831
H  H169  1  0.87900000  0.45840000  0.13350000  1.0 0.1288738479
H  H170  1  0.99860000  0.89930000  0.96720000  1.0 0.1200452831
H  H171  1  0.50670000  0.78820000  0.21380000  1.0 0.1288738479
H  H172  1  0.91120000  0.35860000  0.20230000  1.0 0.1200452831
H  H173  1  0.60110000  0.91320000  0.22150000  1.0 0.1109548163
H  H174  1  0.51250000  0.84190000  0.28750000  1.0 0.0697564922
H  H175  1  0.54670000  0.67560000  0.12530000  1.0 0.1007947909
H  H176  1  0.46620000  0.71360000  0.21730000  1.0 0.0915114648
H  H177  1  0.96010000  0.47090000  0.32760000  1.0 0.0825135085
H  H178  1  0.95470000  0.34090000  0.25960000  1.0 0.1007947909
H  H179  1  0.84130000  0.31630000  0.14950000  1.0 0.1109548163
H  H180  1  0.88940000  0.40420000  0.07230000  1.0 0.1200452831
H  H181  1  0.57560000  0.98160000  0.24760000  1.0 0.0915114648
H  H182  1  0.48710000  0.91040000  0.31370000  1.0 0.0915114648
H  H183  1  0.49060000  0.60820000  0.09220000  1.0 0.1200452831
H  H184  1  0.41000000  0.64630000  0.18420000  1.0 0.1200452831
H  H185  1  0.99140000  0.44800000  0.40170000  1.0 0.0915114648
H  H186  1  0.00040000  0.32400000  0.32290000  1.0 0.0915114648
H  H187  1  0.81330000  0.25740000  0.08310000  1.0 0.1288738479
H  H188  1  0.85350000  0.34820000  0.00370000  1.0 0.1288738479
H  H189  1  0.27060000  0.41950000  0.17240000  1.0 0.1109548163
H  H190  1  0.41040000  0.43300000  0.20450000  1.0 0.1109548163
H  H191  1  0.26990000  0.40500000  0.24850000  1.0 0.0697564922
H  H192  1  0.40060000  0.39470000  0.26520000  1.0 0.1007947909
H  H193  1  0.36510000  0.30420000  0.26520000  1.0 0.0915114648
H  H194  1  0.45270000  0.72320000  0.18670000  1.0 0.1007947909
H  H195  1  0.57630000  0.97790000  0.26440000  1.0 0.1109548163
H  H196  1  0.50240000  0.90470000  0.33740000  1.0 0.0915114648
H  H197  1  0.54880000  0.84670000  0.31900000  1.0 0.0825135085
H  H198  1  0.93500000  0.61480000  0.14190000  1.0 0.1200452831
H  H199  1  0.00010000  0.47150000  0.31220000  1.0 0.1007947909
H  H200  1  0.26500000  0.36380000  0.21570000  1.0 0.0697564922
H  H201  1  0.40410000  0.45860000  0.22750000  1.0 0.1109548163
H  H202  1  0.37750000  0.31740000  0.27950000  1.0 0.0915114648
H  H203  1  0.95940000  0.32290000  0.33470000  1.0 0.0825135085
H  H204  1  0.02230000  0.45510000  0.38710000  1.0 0.0825135085
H  H205  1  0.14540000  0.74190000  0.72730000  1.0 0.1288738479
H  H206  1  0.26710000  0.78870000  0.81860000  1.0 0.1288738479
H  H207  1  0.26830000  0.90010000  0.62980000  1.0 0.1288738479
H  H208  1  0.13500000  0.91960000  0.61250000  1.0 0.1200452831
H  H209  1  0.05560000  0.94910000  0.80100000  1.0 0.1288738479
H  H210  1  0.13510000  0.92230000  0.91210000  1.0 0.1288738479
H  H211  1  0.14900000  0.66830000  0.73250000  1.0 0.1109548163
H  H212  1  0.27060000  0.71360000  0.82480000  1.0 0.1288738479
H  H213  1  0.26740000  0.89970000  0.55070000  1.0 0.1200452831
H  H214  1  0.13420000  0.91910000  0.53340000  1.0 0.1200452831
H  H215  1  0.99550000  0.95350000  0.84170000  1.0 0.1200452831
H  H216  1  0.07530000  0.92980000  0.95540000  1.0 0.1109548163
H  H217  1  0.24450000  0.64290000  0.85050000  1.0 0.1288738479
H  H218  1  0.18470000  0.60480000  0.71380000  1.0 0.1200452831
H  H219  1  0.26740000  0.94410000  0.49250000  1.0 0.1200452831
H  H220  1  0.13350000  0.87900000  0.45840000  1.0 0.1288738479
H  H221  1  0.96720000  0.99860000  0.89930000  1.0 0.1200452831
H  H222  1  0.21380000  0.50670000  0.78820000  1.0 0.1288738479
H  H223  1  0.20230000  0.91120000  0.35860000  1.0 0.1200452831
H  H224  1  0.22150000  0.60110000  0.91320000  1.0 0.1109548163
H  H225  1  0.28750000  0.51250000  0.84190000  1.0 0.0697564922
H  H226  1  0.12530000  0.54670000  0.67560000  1.0 0.1007947909
H  H227  1  0.21730000  0.46620000  0.71360000  1.0 0.0915114648
H  H228  1  0.32760000  0.96010000  0.47090000  1.0 0.0825135085
H  H229  1  0.25960000  0.95470000  0.34090000  1.0 0.1007947909
H  H230  1  0.14950000  0.84130000  0.31630000  1.0 0.1109548163
H  H231  1  0.07230000  0.88940000  0.40420000  1.0 0.1200452831
H  H232  1  0.24760000  0.57560000  0.98160000  1.0 0.0915114648
H  H233  1  0.31370000  0.48710000  0.91040000  1.0 0.0915114648
H  H234  1  0.09220000  0.49060000  0.60820000  1.0 0.1200452831
H  H235  1  0.18420000  0.41000000  0.64630000  1.0 0.1200452831
H  H236  1  0.40170000  0.99140000  0.44800000  1.0 0.0915114648
H  H237  1  0.32290000  0.00040000  0.32400000  1.0 0.0915114648
H  H238  1  0.08310000  0.81330000  0.25740000  1.0 0.1288738479
H  H239  1  0.00370000  0.85350000  0.34820000  1.0 0.1288738479
H  H240  1  0.17240000  0.27060000  0.41950000  1.0 0.1109548163
H  H241  1  0.20450000  0.41040000  0.43300000  1.0 0.1109548163
H  H242  1  0.24850000  0.26990000  0.40500000  1.0 0.0697564922
H  H243  1  0.26520000  0.40060000  0.39470000  1.0 0.1007947909
H  H244  1  0.26520000  0.36510000  0.30420000  1.0 0.0915114648
H  H245  1  0.18670000  0.45270000  0.72320000  1.0 0.1007947909
H  H246  1  0.26440000  0.57630000  0.97790000  1.0 0.1109548163
H  H247  1  0.33740000  0.50240000  0.90470000  1.0 0.0915114648
H  H248  1  0.31900000  0.54880000  0.84670000  1.0 0.0825135085
H  H249  1  0.14190000  0.93500000  0.61480000  1.0 0.1200452831
H  H250  1  0.31220000  0.00010000  0.47150000  1.0 0.1007947909
H  H251  1  0.21570000  0.26500000  0.36380000  1.0 0.0697564922
H  H252  1  0.22750000  0.40410000  0.45860000  1.0 0.1109548163
H  H253  1  0.27950000  0.37750000  0.31740000  1.0 0.0915114648
H  H254  1  0.33470000  0.95940000  0.32290000  1.0 0.0825135085
H  H255  1  0.38710000  0.02230000  0.45510000  1.0 0.0825135085
H  H256  1  0.72730000  0.14540000  0.74190000  1.0 0.1288738479
H  H257  1  0.81860000  0.26710000  0.78870000  1.0 0.1288738479
H  H258  1  0.62980000  0.26830000  0.90010000  1.0 0.1288738479
H  H259  1  0.61250000  0.13500000  0.91960000  1.0 0.1200452831
H  H260  1  0.80100000  0.05560000  0.94910000  1.0 0.1288738479
H  H261  1  0.91210000  0.13510000  0.92230000  1.0 0.1288738479
H  H262  1  0.73250000  0.14900000  0.66830000  1.0 0.1109548163
H  H263  1  0.82480000  0.27060000  0.71360000  1.0 0.1288738479
H  H264  1  0.55070000  0.26740000  0.89970000  1.0 0.1200452831
H  H265  1  0.53340000  0.13420000  0.91910000  1.0 0.1200452831
H  H266  1  0.84170000  0.99550000  0.95350000  1.0 0.1200452831
H  H267  1  0.95540000  0.07530000  0.92980000  1.0 0.1109548163
H  H268  1  0.85050000  0.24450000  0.64290000  1.0 0.1288738479
H  H269  1  0.71380000  0.18470000  0.60480000  1.0 0.1200452831
H  H270  1  0.49250000  0.26740000  0.94410000  1.0 0.1200452831
H  H271  1  0.45840000  0.13350000  0.87900000  1.0 0.1288738479
H  H272  1  0.89930000  0.96720000  0.99860000  1.0 0.1200452831
H  H273  1  0.78820000  0.21380000  0.50670000  1.0 0.1288738479
H  H274  1  0.35860000  0.20230000  0.91120000  1.0 0.1200452831
H  H275  1  0.91320000  0.22150000  0.60110000  1.0 0.1109548163
H  H276  1  0.84190000  0.28750000  0.51250000  1.0 0.0697564922
H  H277  1  0.67560000  0.12530000  0.54670000  1.0 0.1007947909
H  H278  1  0.71360000  0.21730000  0.46620000  1.0 0.0915114648
H  H279  1  0.47090000  0.32760000  0.96010000  1.0 0.0825135085
H  H280  1  0.34090000  0.25960000  0.95470000  1.0 0.1007947909
H  H281  1  0.31630000  0.14950000  0.84130000  1.0 0.1109548163
H  H282  1  0.40420000  0.07230000  0.88940000  1.0 0.1200452831
H  H283  1  0.98160000  0.24760000  0.57560000  1.0 0.0915114648
H  H284  1  0.91040000  0.31370000  0.48710000  1.0 0.0915114648
H  H285  1  0.60820000  0.09220000  0.49060000  1.0 0.1200452831
H  H286  1  0.64630000  0.18420000  0.41000000  1.0 0.1200452831
H  H287  1  0.44800000  0.40170000  0.99140000  1.0 0.0915114648
H  H288  1  0.32400000  0.32290000  0.00040000  1.0 0.0915114648
H  H289  1  0.25740000  0.08310000  0.81330000  1.0 0.1288738479
H  H290  1  0.34820000  0.00370000  0.85350000  1.0 0.1288738479
H  H291  1  0.41950000  0.17240000  0.27060000  1.0 0.1109548163
H  H292  1  0.43300000  0.20450000  0.41040000  1.0 0.1109548163
H  H293  1  0.40500000  0.24850000  0.26990000  1.0 0.0697564922
H  H294  1  0.39470000  0.26520000  0.40060000  1.0 0.1007947909
H  H295  1  0.30420000  0.26520000  0.36510000  1.0 0.0915114648
H  H296  1  0.72320000  0.18670000  0.45270000  1.0 0.1007947909
H  H297  1  0.97790000  0.26440000  0.57630000  1.0 0.1109548163
H  H298  1  0.90470000  0.33740000  0.50240000  1.0 0.0915114648
H  H299  1  0.84670000  0.31900000  0.54880000  1.0 0.0825135085
H  H300  1  0.61480000  0.14190000  0.93500000  1.0 0.1200452831
H  H301  1  0.47150000  0.31220000  0.00010000  1.0 0.1007947909
H  H302  1  0.36380000  0.21570000  0.26500000  1.0 0.0697564922
H  H303  1  0.45860000  0.22750000  0.40410000  1.0 0.1109548163
H  H304  1  0.31740000  0.27950000  0.37750000  1.0 0.0915114648
H  H305  1  0.32290000  0.33470000  0.95940000  1.0 0.0825135085
H  H306  1  0.45510000  0.38710000  0.02230000  1.0 0.0825135085
C  C1  1  0.17558000  0.22882000  0.79860000  1.0 0.5205275695
C  C2  1  0.08680000  0.31850000  0.79920000  1.0 0.5205275695
C  C3  1  0.07480000  0.17740000  0.86350000  1.0 0.5406753435
C  C4  1  0.22540000  0.22580000  0.79530000  1.0 0.0122199825
C  C5  1  0.09009000  0.37102000  0.79826000  1.0 0.0501824606
C  C6  1  0.06833000  0.14907000  0.90130000  1.0 -0.0038068764
C  C7  1  0.26410000  0.25250000  0.82950000  1.0 -0.0892125297
C  C8  1  0.23550000  0.19810000  0.75710000  1.0 -0.0892125297
C  C9  1  0.09605000  0.38951000  0.75857000  1.0 -0.0608783535
C  C10  1  0.08442000  0.39990000  0.83844000  1.0 -0.1892972417
C  C11  1  0.05640000  0.16860000  0.94080000  1.0 -0.0818782297
C  C12  1  0.07205000  0.10210000  0.89355000  1.0 -0.0818782297
C  C13  1  0.30739000  0.25009000  0.82729000  1.0 -0.1397425121
C  C14  1  0.28000000  0.19510000  0.75460000  1.0 -0.1397425121
C  C15  1  0.09634000  0.43687000  0.75907000  1.0 -0.160321649
C  C16  1  0.08470000  0.44727000  0.83894000  1.0 -0.0393425497
C  C17  1  0.05260000  0.14340000  0.97640000  1.0 -0.160321649
C  C18  1  0.06696000  0.07590000  0.92934000  1.0 -0.160321649
C  C19  1  0.31690000  0.22160000  0.78960000  1.0 0.0631832718
C  C20  1  0.09067000  0.46575000  0.79925000  1.0 0.0825135085
C  C21  1  0.05721000  0.09742000  0.97184000  1.0 0.0697564922
C  C22  1  0.36837000  0.21824000  0.78535000  1.0 0.1007947909
C  C23  1  0.09054000  0.51674000  0.79864000  1.0 0.0915114648
C  C24  1  0.04959000  0.06867000  0.00944000  1.0 0.0825135085
C  C25  1  0.38041000  0.17606000  0.76758000  1.0 -0.2202334502
C  C26  1  0.40316000  0.25801000  0.80343000  1.0 -0.1994315248
C  C27  1  0.06920000  0.53030000  0.75920000  1.0 -0.2501382143
C  C28  1  0.10881000  0.55109000  0.83920000  1.0 -0.2202334502
C  C29  1  0.01782000  0.07669000  0.03631000  1.0 -0.1805515822
C  C30  1  0.42724000  0.17362000  0.76789000  1.0 0.0697564922
C  C31  1  0.45000000  0.25558000  0.80375000  1.0 0.0915114648
C  C32  1  0.06675000  0.57803000  0.75784000  1.0 0.0825135085
C  C33  1  0.10970000  0.59800000  0.84030000  1.0 0.1007947909
C  C34  1  0.46203000  0.21339000  0.78597000  1.0 -0.2501382143
C  C35  1  0.44076000  0.12924000  0.74805000  1.0 0.0122199825
C  C36  1  0.48801000  0.29875000  0.82544000  1.0 0.0697564922
C  C37  1  0.08825000  0.60975000  0.79804000  1.0 -0.2050078348
C  C38  1  0.04334000  0.59104000  0.71499000  1.0 0.0175613347
C  C39  1  0.13138000  0.63402000  0.88268000  1.0 0.0697564922
C  C40  1  0.42183000  0.08737000  0.76004000  1.0 -0.1397425121
C  C41  1  0.47480000  0.13010000  0.72050000  1.0 -0.0189145174
C  C42  1  0.48070000  0.33032000  0.86289000  1.0 -0.1892972417
C  C43  1  0.52896000  0.30750000  0.80781000  1.0 -0.0818782297
C  C44  1  0.03340000  0.55900000  0.67270000  1.0 -0.0295658423
C  C45  1  0.04000000  0.63640000  0.71320000  1.0 -0.1291677342
C  C46  1  0.15487000  0.67735000  0.87976000  1.0 -0.1462393079
C  C47  1  0.12730000  0.62470000  0.92530000  1.0 -0.1462393079
C  C48  1  0.43700000  0.04630000  0.74430000  1.0 -0.1004184426
C  C49  1  0.49010000  0.08910000  0.70480000  1.0 -0.0295658423
C  C50  1  0.51432000  0.37063000  0.88268000  1.0 -0.1004184426
C  C51  1  0.56257000  0.34781000  0.82761000  1.0 -0.0393425497
C  C52  1  0.01250000  0.57160000  0.62730000  1.0 -0.0478276559
C  C53  1  0.01060000  0.64800000  0.67430000  1.0 -0.0189145174
C  C54  1  0.17330000  0.71250000  0.91990000  1.0 -0.0818782297
C  C55  1  0.14842000  0.65892000  0.96692000  1.0 -0.0892125297
C  C56  1  0.47120000  0.04720000  0.71670000  1.0 0.0306766196
C  C57  1  0.55524000  0.37938000  0.86505000  1.0 -0.0295658423
C  C58  1  0.99933000  0.61528000  0.63246000  1.0 -0.0189145174
C  C59  1  0.17165000  0.70275000  0.96325000  1.0 -0.0189145174
C  C60  1  0.48290000  0.00720000  0.68230000  1.0 0.4179803396
C  C61  1  0.58930000  0.42300000  0.88820000  1.0 0.5205275695
C  C62  1  0.97370000  0.62530000  0.58900000  1.0 0.4553654208
C  C63  1  0.19194000  0.73714000  0.00754000  1.0 0.5406753435
C  C64  1  0.65070000  0.54090000  0.85590000  1.0 0.4835290774
C  C65  1  0.65830000  0.56600000  0.81720000  1.0 -0.0189145174
C  C66  1  0.70200000  0.58130000  0.80710000  1.0 -0.0892125297
C  C67  1  0.61950000  0.57640000  0.78980000  1.0 -0.0478276559
C  C68  1  0.70440000  0.59800000  0.76580000  1.0 -0.0189145174
C  C69  1  0.62593000  0.60090000  0.75407000  1.0 -0.1701957272
C  C70  1  0.66957000  0.61930000  0.74543000  1.0 0.0175613347
C  C71  1  0.68300000  0.65790000  0.72070000  1.0 0.0391447036
C  C72  1  0.65610000  0.69210000  0.71490000  1.0 -0.0818782297
C  C73  1  0.53470000  0.30340000  0.82090000  1.0 -0.0818782297
C  C74  1  0.43660000  0.05210000  0.73200000  1.0 -0.0818782297
C  C75  1  0.46630000  0.05130000  0.69980000  1.0 0.0306766196
C  C76  1  0.47700000  0.09280000  0.68330000  1.0 -0.0189145174
C  C77  1  0.45600000  0.13010000  0.69820000  1.0 -0.0038068764
C  C78  1  0.07784000  0.39890000  0.83546000  1.0 -0.1892972417
C  C79  1  0.01050000  0.55790000  0.68140000  1.0 -0.0393425497
C  C80  1  0.70660000  0.61550000  0.77970000  1.0 -0.0189145174
C  C81  1  0.62230000  0.56540000  0.78000000  1.0 -0.0608783535
C  C82  1  0.66910000  0.64360000  0.70510000  1.0 0.0391447036
C  C83  1  0.64280000  0.67820000  0.69980000  1.0 -0.0818782297
C  C84  1  0.02857000  0.64727000  0.66987000  1.0 -0.0608783535
C  C85  1  0.99330000  0.56870000  0.63800000  1.0 -0.011331448
C  C86  1  0.79860000  0.17558000  0.22882000  1.0 0.5205275695
C  C87  1  0.79920000  0.08680000  0.31850000  1.0 0.5205275695
C  C88  1  0.86350000  0.07480000  0.17740000  1.0 0.5406753435
C  C89  1  0.79530000  0.22540000  0.22580000  1.0 0.0122199825
C  C90  1  0.79826000  0.09009000  0.37102000  1.0 0.0501824606
C  C91  1  0.90130000  0.06833000  0.14907000  1.0 -0.0038068764
C  C92  1  0.82950000  0.26410000  0.25250000  1.0 -0.0892125297
C  C93  1  0.75710000  0.23550000  0.19810000  1.0 -0.0892125297
C  C94  1  0.75857000  0.09605000  0.38951000  1.0 -0.0608783535
C  C95  1  0.83844000  0.08442000  0.39990000  1.0 -0.1892972417
C  C96  1  0.94080000  0.05640000  0.16860000  1.0 -0.0818782297
C  C97  1  0.89355000  0.07205000  0.10210000  1.0 -0.0818782297
C  C98  1  0.82729000  0.30739000  0.25009000  1.0 -0.1397425121
C  C99  1  0.75460000  0.28000000  0.19510000  1.0 -0.1397425121
C  C100  1  0.75907000  0.09634000  0.43687000  1.0 -0.160321649
C  C101  1  0.83894000  0.08470000  0.44727000  1.0 -0.0393425497
C  C102  1  0.97640000  0.05260000  0.14340000  1.0 -0.160321649
C  C103  1  0.92934000  0.06696000  0.07590000  1.0 -0.160321649
C  C104  1  0.78960000  0.31690000  0.22160000  1.0 0.0631832718
C  C105  1  0.79925000  0.09067000  0.46575000  1.0 0.0825135085
C  C106  1  0.97184000  0.05721000  0.09742000  1.0 0.0697564922
C  C107  1  0.78535000  0.36837000  0.21824000  1.0 0.1007947909
C  C108  1  0.79864000  0.09054000  0.51674000  1.0 0.0915114648
C  C109  1  0.00944000  0.04959000  0.06867000  1.0 0.0825135085
C  C110  1  0.76758000  0.38041000  0.17606000  1.0 -0.2202334502
C  C111  1  0.80343000  0.40316000  0.25801000  1.0 -0.1994315248
C  C112  1  0.75920000  0.06920000  0.53030000  1.0 -0.2501382143
C  C113  1  0.83920000  0.10881000  0.55109000  1.0 -0.2202334502
C  C114  1  0.03631000  0.01782000  0.07669000  1.0 -0.1805515822
C  C115  1  0.76789000  0.42724000  0.17362000  1.0 0.0697564922
C  C116  1  0.80375000  0.45000000  0.25558000  1.0 0.0915114648
C  C117  1  0.75784000  0.06675000  0.57803000  1.0 0.0825135085
C  C118  1  0.84030000  0.10970000  0.59800000  1.0 0.1007947909
C  C119  1  0.78597000  0.46203000  0.21339000  1.0 -0.2501382143
C  C120  1  0.74805000  0.44076000  0.12924000  1.0 0.0122199825
C  C121  1  0.82544000  0.48801000  0.29875000  1.0 0.0697564922
C  C122  1  0.79804000  0.08825000  0.60975000  1.0 -0.2050078348
C  C123  1  0.71499000  0.04334000  0.59104000  1.0 0.0175613347
C  C124  1  0.88268000  0.13138000  0.63402000  1.0 0.0697564922
C  C125  1  0.76004000  0.42183000  0.08737000  1.0 -0.1397425121
C  C126  1  0.72050000  0.47480000  0.13010000  1.0 -0.0189145174
C  C127  1  0.86289000  0.48070000  0.33032000  1.0 -0.1892972417
C  C128  1  0.80781000  0.52896000  0.30750000  1.0 -0.0818782297
C  C129  1  0.67270000  0.03340000  0.55900000  1.0 -0.0295658423
C  C130  1  0.71320000  0.04000000  0.63640000  1.0 -0.1291677342
C  C131  1  0.87976000  0.15487000  0.67735000  1.0 -0.1462393079
C  C132  1  0.92530000  0.12730000  0.62470000  1.0 -0.1462393079
C  C133  1  0.74430000  0.43700000  0.04630000  1.0 -0.0892125297
C  C134  1  0.70480000  0.49010000  0.08910000  1.0 -0.0295658423
C  C135  1  0.88268000  0.51432000  0.37063000  1.0 -0.1004184426
C  C136  1  0.82761000  0.56257000  0.34781000  1.0 -0.0393425497
C  C137  1  0.62730000  0.01250000  0.57160000  1.0 -0.0393425497
C  C138  1  0.67430000  0.01060000  0.64800000  1.0 -0.0189145174
C  C139  1  0.91990000  0.17330000  0.71250000  1.0 -0.0818782297
C  C140  1  0.96692000  0.14842000  0.65892000  1.0 -0.0892125297
C  C141  1  0.71670000  0.47120000  0.04720000  1.0 0.0306766196
C  C142  1  0.86505000  0.55524000  0.37938000  1.0 -0.0295658423
C  C143  1  0.63246000  0.99933000  0.61528000  1.0 -0.0189145174
C  C144  1  0.96325000  0.17165000  0.70275000  1.0 -0.0189145174
C  C145  1  0.68230000  0.48290000  0.00720000  1.0 0.4179803396
C  C146  1  0.88820000  0.58930000  0.42300000  1.0 0.5205275695
C  C147  1  0.58900000  0.97370000  0.62530000  1.0 0.4553654208
C  C148  1  0.00754000  0.19194000  0.73714000  1.0 0.5406753435
C  C149  1  0.85590000  0.65070000  0.54090000  1.0 0.4835290774
C  C150  1  0.81720000  0.65830000  0.56600000  1.0 -0.0189145174
C  C151  1  0.80710000  0.70200000  0.58130000  1.0 -0.0892125297
C  C152  1  0.78980000  0.61950000  0.57640000  1.0 -0.0478276559
C  C153  1  0.76580000  0.70440000  0.59800000  1.0 -0.0189145174
C  C154  1  0.75407000  0.62593000  0.60090000  1.0 -0.1701957272
C  C155  1  0.74543000  0.66957000  0.61930000  1.0 0.0175613347
C  C156  1  0.72070000  0.68300000  0.65790000  1.0 0.0391447036
C  C157  1  0.71490000  0.65610000  0.69210000  1.0 -0.0818782297
C  C158  1  0.82090000  0.53470000  0.30340000  1.0 -0.0818782297
C  C159  1  0.73200000  0.43660000  0.05210000  1.0 -0.0818782297
C  C160  1  0.69980000  0.46630000  0.05130000  1.0 0.0306766196
C  C161  1  0.68330000  0.47700000  0.09280000  1.0 -0.0189145174
C  C162  1  0.69820000  0.45600000  0.13010000  1.0 -0.0038068764
C  C163  1  0.83546000  0.07784000  0.39890000  1.0 -0.1892972417
C  C164  1  0.68140000  0.01050000  0.55790000  1.0 -0.0393425497
C  C165  1  0.77970000  0.70660000  0.61550000  1.0 -0.0189145174
C  C166  1  0.78000000  0.62230000  0.56540000  1.0 -0.0608783535
C  C167  1  0.70510000  0.66910000  0.64360000  1.0 0.0391447036
C  C168  1  0.69980000  0.64280000  0.67820000  1.0 -0.0818782297
C  C169  1  0.66987000  0.02857000  0.64727000  1.0 -0.0608783535
C  C170  1  0.63800000  0.99330000  0.56870000  1.0 -0.011331448
C  C171  1  0.22882000  0.79860000  0.17558000  1.0 0.5205275695
C  C172  1  0.31850000  0.79920000  0.08680000  1.0 0.5205275695
C  C173  1  0.17740000  0.86350000  0.07480000  1.0 0.5406753435
C  C174  1  0.22580000  0.79530000  0.22540000  1.0 0.0122199825
C  C175  1  0.37102000  0.79826000  0.09009000  1.0 0.0501824606
C  C176  1  0.14907000  0.90130000  0.06833000  1.0 -0.0038068764
C  C177  1  0.25250000  0.82950000  0.26410000  1.0 -0.0892125297
C  C178  1  0.19810000  0.75710000  0.23550000  1.0 -0.0892125297
C  C179  1  0.38951000  0.75857000  0.09605000  1.0 -0.0608783535
C  C180  1  0.39990000  0.83844000  0.08442000  1.0 -0.1892972417
C  C181  1  0.16860000  0.94080000  0.05640000  1.0 -0.0818782297
C  C182  1  0.10210000  0.89355000  0.07205000  1.0 -0.0818782297
C  C183  1  0.25009000  0.82729000  0.30739000  1.0 -0.1397425121
C  C184  1  0.19510000  0.75460000  0.28000000  1.0 -0.1397425121
C  C185  1  0.43687000  0.75907000  0.09634000  1.0 -0.160321649
C  C186  1  0.44727000  0.83894000  0.08470000  1.0 -0.0393425497
C  C187  1  0.14340000  0.97640000  0.05260000  1.0 -0.160321649
C  C188  1  0.07590000  0.92934000  0.06696000  1.0 -0.160321649
C  C189  1  0.22160000  0.78960000  0.31690000  1.0 0.0631832718
C  C190  1  0.46575000  0.79925000  0.09067000  1.0 0.0825135085
C  C191  1  0.09742000  0.97184000  0.05721000  1.0 0.0697564922
C  C192  1  0.21824000  0.78535000  0.36837000  1.0 0.1007947909
C  C193  1  0.51674000  0.79864000  0.09054000  1.0 0.0915114648
C  C194  1  0.06867000  0.00944000  0.04959000  1.0 0.0825135085
C  C195  1  0.17606000  0.76758000  0.38041000  1.0 -0.2202334502
C  C196  1  0.25801000  0.80343000  0.40316000  1.0 -0.1994315248
C  C197  1  0.53030000  0.75920000  0.06920000  1.0 -0.2501382143
C  C198  1  0.55109000  0.83920000  0.10881000  1.0 -0.2202334502
C  C199  1  0.07669000  0.03631000  0.01782000  1.0 -0.1805515822
C  C200  1  0.17362000  0.76789000  0.42724000  1.0 0.0697564922
C  C201  1  0.25558000  0.80375000  0.45000000  1.0 0.0915114648
C  C202  1  0.57803000  0.75784000  0.06675000  1.0 0.0825135085
C  C203  1  0.59800000  0.84030000  0.10970000  1.0 0.1007947909
C  C204  1  0.21339000  0.78597000  0.46203000  1.0 -0.2501382143
C  C205  1  0.12924000  0.74805000  0.44076000  1.0 0.0122199825
C  C206  1  0.29875000  0.82544000  0.48801000  1.0 0.0697564922
C  C207  1  0.60975000  0.79804000  0.08825000  1.0 -0.2050078348
C  C208  1  0.59104000  0.71499000  0.04334000  1.0 0.0175613347
C  C209  1  0.63402000  0.88268000  0.13138000  1.0 0.0697564922
C  C210  1  0.08737000  0.76004000  0.42183000  1.0 -0.1397425121
C  C211  1  0.13010000  0.72050000  0.47480000  1.0 -0.0189145174
C  C212  1  0.33032000  0.86289000  0.48070000  1.0 -0.1892972417
C  C213  1  0.30750000  0.80781000  0.52896000  1.0 -0.0818782297
C  C214  1  0.55900000  0.67270000  0.03340000  1.0 -0.0295658423
C  C215  1  0.63640000  0.71320000  0.04000000  1.0 -0.1291677342
C  C216  1  0.67735000  0.87976000  0.15487000  1.0 -0.1462393079
C  C217  1  0.62470000  0.92530000  0.12730000  1.0 -0.1462393079
C  C218  1  0.04630000  0.74430000  0.43700000  1.0 -0.1004184426
C  C219  1  0.08910000  0.70480000  0.49010000  1.0 -0.0295658423
C  C220  1  0.37063000  0.88268000  0.51432000  1.0 -0.1004184426
C  C221  1  0.34781000  0.82761000  0.56257000  1.0 -0.0393425497
C  C222  1  0.57160000  0.62730000  0.01250000  1.0 -0.0478276559
C  C223  1  0.64800000  0.67430000  0.01060000  1.0 -0.0189145174
C  C224  1  0.71250000  0.91990000  0.17330000  1.0 -0.0818782297
C  C225  1  0.65892000  0.96692000  0.14842000  1.0 -0.0892125297
C  C226  1  0.04720000  0.71670000  0.47120000  1.0 0.0306766196
C  C227  1  0.37938000  0.86505000  0.55524000  1.0 -0.0295658423
C  C228  1  0.61528000  0.63246000  0.99933000  1.0 -0.0189145174
C  C229  1  0.70275000  0.96325000  0.17165000  1.0 -0.0189145174
C  C230  1  0.00720000  0.68230000  0.48290000  1.0 0.4179803396
C  C231  1  0.42300000  0.88820000  0.58930000  1.0 0.5205275695
C  C232  1  0.62530000  0.58900000  0.97370000  1.0 0.4553654208
C  C233  1  0.73714000  0.00754000  0.19194000  1.0 0.5406753435
C  C234  1  0.54090000  0.85590000  0.65070000  1.0 0.4835290774
C  C235  1  0.56600000  0.81720000  0.65830000  1.0 -0.0189145174
C  C236  1  0.58130000  0.80710000  0.70200000  1.0 -0.0892125297
C  C237  1  0.57640000  0.78980000  0.61950000  1.0 -0.0478276559
C  C238  1  0.59800000  0.76580000  0.70440000  1.0 -0.0189145174
C  C239  1  0.60090000  0.75407000  0.62593000  1.0 -0.1701957272
C  C240  1  0.61930000  0.74543000  0.66957000  1.0 0.0175613347
C  C241  1  0.65790000  0.72070000  0.68300000  1.0 0.0391447036
C  C242  1  0.69210000  0.71490000  0.65610000  1.0 -0.0818782297
C  C243  1  0.30340000  0.82090000  0.53470000  1.0 -0.0818782297
C  C244  1  0.05210000  0.73200000  0.43660000  1.0 -0.0818782297
C  C245  1  0.05130000  0.69980000  0.46630000  1.0 0.0306766196
C  C246  1  0.09280000  0.68330000  0.47700000  1.0 -0.0189145174
C  C247  1  0.13010000  0.69820000  0.45600000  1.0 -0.011331448
C  C248  1  0.39890000  0.83546000  0.07784000  1.0 -0.1892972417
C  C249  1  0.55790000  0.68140000  0.01050000  1.0 -0.0393425497
C  C250  1  0.61550000  0.77970000  0.70660000  1.0 -0.0189145174
C  C251  1  0.56540000  0.78000000  0.62230000  1.0 -0.0608783535
C  C252  1  0.64360000  0.70510000  0.66910000  1.0 0.0391447036
C  C253  1  0.67820000  0.69980000  0.64280000  1.0 -0.0818782297
C  C254  1  0.64727000  0.66987000  0.02857000  1.0 -0.0608783535
C  C255  1  0.56870000  0.63800000  0.99330000  1.0 -0.011331448
C  C256  1  0.82442000  0.77118000  0.20140000  1.0 0.5205275695
C  C257  1  0.91320000  0.68150000  0.20080000  1.0 0.5205275695
C  C258  1  0.92520000  0.82260000  0.13650000  1.0 0.5406753435
C  C259  1  0.77460000  0.77420000  0.20470000  1.0 0.0122199825
C  C260  1  0.90991000  0.62898000  0.20174000  1.0 0.0501824606
C  C261  1  0.93167000  0.85093000  0.09870000  1.0 -0.0038068764
C  C262  1  0.73590000  0.74750000  0.17050000  1.0 -0.0892125297
C  C263  1  0.76450000  0.80190000  0.24290000  1.0 -0.0892125297
C  C264  1  0.90395000  0.61049000  0.24143000  1.0 -0.0608783535
C  C265  1  0.91558000  0.60010000  0.16156000  1.0 -0.1892972417
C  C266  1  0.94360000  0.83140000  0.05920000  1.0 -0.0818782297
C  C267  1  0.92795000  0.89790000  0.10645000  1.0 -0.0818782297
C  C268  1  0.69261000  0.74991000  0.17271000  1.0 -0.1397425121
C  C269  1  0.72000000  0.80490000  0.24540000  1.0 -0.1397425121
C  C270  1  0.90366000  0.56313000  0.24093000  1.0 -0.160321649
C  C271  1  0.91530000  0.55273000  0.16106000  1.0 -0.0393425497
C  C272  1  0.94740000  0.85660000  0.02360000  1.0 -0.160321649
C  C273  1  0.93304000  0.92410000  0.07066000  1.0 -0.160321649
C  C274  1  0.68310000  0.77840000  0.21040000  1.0 0.0631832718
C  C275  1  0.90933000  0.53425000  0.20075000  1.0 0.0825135085
C  C276  1  0.94279000  0.90258000  0.02816000  1.0 0.0697564922
C  C277  1  0.63163000  0.78176000  0.21465000  1.0 0.1007947909
C  C278  1  0.90946000  0.48326000  0.20136000  1.0 0.0915114648
C  C279  1  0.95041000  0.93133000  0.99056000  1.0 0.0825135085
C  C280  1  0.61959000  0.82394000  0.23242000  1.0 -0.2202334502
C  C281  1  0.59684000  0.74199000  0.19657000  1.0 -0.1994315248
C  C282  1  0.93080000  0.46970000  0.24080000  1.0 -0.2501382143
C  C283  1  0.89119000  0.44891000  0.16080000  1.0 -0.2202334502
C  C284  1  0.98218000  0.92331000  0.96369000  1.0 -0.1805515822
C  C285  1  0.57276000  0.82638000  0.23211000  1.0 0.0697564922
C  C286  1  0.55000000  0.74442000  0.19625000  1.0 0.0915114648
C  C287  1  0.93325000  0.42197000  0.24216000  1.0 0.0825135085
C  C288  1  0.89030000  0.40200000  0.15970000  1.0 0.1007947909
C  C289  1  0.53797000  0.78661000  0.21403000  1.0 -0.2501382143
C  C290  1  0.55924000  0.87076000  0.25195000  1.0 0.0122199825
C  C291  1  0.51199000  0.70125000  0.17456000  1.0 0.0697564922
C  C292  1  0.91175000  0.39025000  0.20196000  1.0 -0.2050078348
C  C293  1  0.95666000  0.40896000  0.28501000  1.0 0.0175613347
C  C294  1  0.86862000  0.36598000  0.11732000  1.0 0.0697564922
C  C295  1  0.57817000  0.91263000  0.23996000  1.0 -0.1397425121
C  C296  1  0.52520000  0.86990000  0.27950000  1.0 -0.0189145174
C  C297  1  0.51930000  0.66968000  0.13711000  1.0 -0.1892972417
C  C298  1  0.47104000  0.69250000  0.19219000  1.0 -0.0818782297
C  C299  1  0.96660000  0.44100000  0.32730000  1.0 -0.0295658423
C  C300  1  0.96000000  0.36360000  0.28680000  1.0 -0.1291677342
C  C301  1  0.84513000  0.32265000  0.12024000  1.0 -0.1462393079
C  C302  1  0.87270000  0.37530000  0.07470000  1.0 -0.1462393079
C  C303  1  0.56300000  0.95370000  0.25570000  1.0 -0.1004184426
C  C304  1  0.50990000  0.91090000  0.29520000  1.0 -0.0295658423
C  C305  1  0.48568000  0.62937000  0.11732000  1.0 -0.1004184426
C  C306  1  0.43743000  0.65219000  0.17239000  1.0 -0.0393425497
C  C307  1  0.98750000  0.42840000  0.37270000  1.0 -0.0393425497
C  C308  1  0.98940000  0.35200000  0.32570000  1.0 -0.0189145174
C  C309  1  0.82670000  0.28750000  0.08010000  1.0 -0.0818782297
C  C310  1  0.85158000  0.34108000  0.03308000  1.0 -0.0892125297
C  C311  1  0.52880000  0.95280000  0.28330000  1.0 0.0306766196
C  C312  1  0.44476000  0.62062000  0.13495000  1.0 -0.0295658423
C  C313  1  0.00067000  0.38472000  0.36754000  1.0 -0.0189145174
C  C314  1  0.82835000  0.29725000  0.03675000  1.0 -0.0189145174
C  C315  1  0.51710000  0.99280000  0.31770000  1.0 0.4179803396
C  C316  1  0.41070000  0.57700000  0.11180000  1.0 0.5205275695
C  C317  1  0.02630000  0.37470000  0.41100000  1.0 0.4553654208
C  C318  1  0.80806000  0.26286000  0.99246000  1.0 0.5406753435
C  C319  1  0.34930000  0.45910000  0.14410000  1.0 0.4835290774
C  C320  1  0.34170000  0.43400000  0.18280000  1.0 -0.0189145174
C  C321  1  0.29800000  0.41870000  0.19290000  1.0 -0.0892125297
C  C322  1  0.38050000  0.42360000  0.21020000  1.0 -0.0478276559
C  C323  1  0.29560000  0.40200000  0.23420000  1.0 -0.0189145174
C  C324  1  0.37407000  0.39910000  0.24593000  1.0 -0.1701957272
C  C325  1  0.33043000  0.38070000  0.25457000  1.0 0.0175613347
C  C326  1  0.31700000  0.34210000  0.27930000  1.0 0.0391447036
C  C327  1  0.34390000  0.30790000  0.28510000  1.0 -0.0818782297
C  C328  1  0.46530000  0.69660000  0.17910000  1.0 -0.0818782297
C  C329  1  0.56340000  0.94790000  0.26800000  1.0 -0.0818782297
C  C330  1  0.53370000  0.94870000  0.30020000  1.0 0.0306766196
C  C331  1  0.52300000  0.90720000  0.31670000  1.0 -0.0189145174
C  C332  1  0.54400000  0.86990000  0.30180000  1.0 -0.0038068764
C  C333  1  0.92216000  0.60110000  0.16454000  1.0 -0.1892972417
C  C334  1  0.98950000  0.44210000  0.31860000  1.0 -0.0393425497
C  C335  1  0.29340000  0.38450000  0.22030000  1.0 -0.0189145174
C  C336  1  0.37770000  0.43460000  0.22000000  1.0 -0.0608783535
C  C337  1  0.33090000  0.35640000  0.29490000  1.0 0.0391447036
C  C338  1  0.35720000  0.32180000  0.30020000  1.0 -0.0818782297
C  C339  1  0.97143000  0.35273000  0.33013000  1.0 -0.0608783535
C  C340  1  0.00670000  0.43130000  0.36200000  1.0 -0.011331448
C  C341  1  0.20140000  0.82442000  0.77118000  1.0 0.5205275695
C  C342  1  0.20080000  0.91320000  0.68150000  1.0 0.5205275695
C  C343  1  0.13650000  0.92520000  0.82260000  1.0 0.5406753435
C  C344  1  0.20470000  0.77460000  0.77420000  1.0 0.0122199825
C  C345  1  0.20174000  0.90991000  0.62898000  1.0 0.0501824606
C  C346  1  0.09870000  0.93167000  0.85093000  1.0 -0.0038068764
C  C347  1  0.17050000  0.73590000  0.74750000  1.0 -0.0892125297
C  C348  1  0.24290000  0.76450000  0.80190000  1.0 -0.0892125297
C  C349  1  0.24143000  0.90395000  0.61049000  1.0 -0.0608783535
C  C350  1  0.16156000  0.91558000  0.60010000  1.0 -0.1892972417
C  C351  1  0.05920000  0.94360000  0.83140000  1.0 -0.0818782297
C  C352  1  0.10645000  0.92795000  0.89790000  1.0 -0.0818782297
C  C353  1  0.17271000  0.69261000  0.74991000  1.0 -0.1397425121
C  C354  1  0.24540000  0.72000000  0.80490000  1.0 -0.1397425121
C  C355  1  0.24093000  0.90366000  0.56313000  1.0 -0.160321649
C  C356  1  0.16106000  0.91530000  0.55273000  1.0 -0.0393425497
C  C357  1  0.02360000  0.94740000  0.85660000  1.0 -0.160321649
C  C358  1  0.07066000  0.93304000  0.92410000  1.0 -0.160321649
C  C359  1  0.21040000  0.68310000  0.77840000  1.0 0.0631832718
C  C360  1  0.20075000  0.90933000  0.53425000  1.0 0.0825135085
C  C361  1  0.02816000  0.94279000  0.90258000  1.0 0.0697564922
C  C362  1  0.21465000  0.63163000  0.78176000  1.0 0.1007947909
C  C363  1  0.20136000  0.90946000  0.48326000  1.0 0.0915114648
C  C364  1  0.99056000  0.95041000  0.93133000  1.0 0.0825135085
C  C365  1  0.23242000  0.61959000  0.82394000  1.0 -0.2202334502
C  C366  1  0.19657000  0.59684000  0.74199000  1.0 -0.1994315248
C  C367  1  0.24080000  0.93080000  0.46970000  1.0 -0.2501382143
C  C368  1  0.16080000  0.89119000  0.44891000  1.0 -0.2202334502
C  C369  1  0.96369000  0.98218000  0.92331000  1.0 -0.1805515822
C  C370  1  0.23211000  0.57276000  0.82638000  1.0 0.0697564922
C  C371  1  0.19625000  0.55000000  0.74442000  1.0 0.0915114648
C  C372  1  0.24216000  0.93325000  0.42197000  1.0 0.0825135085
C  C373  1  0.15970000  0.89030000  0.40200000  1.0 0.1007947909
C  C374  1  0.21403000  0.53797000  0.78661000  1.0 -0.2501382143
C  C375  1  0.25195000  0.55924000  0.87076000  1.0 0.0122199825
C  C376  1  0.17456000  0.51199000  0.70125000  1.0 0.0697564922
C  C377  1  0.20196000  0.91175000  0.39025000  1.0 -0.2050078348
C  C378  1  0.28501000  0.95666000  0.40896000  1.0 0.0175613347
C  C379  1  0.11732000  0.86862000  0.36598000  1.0 0.0697564922
C  C380  1  0.23996000  0.57817000  0.91263000  1.0 -0.1397425121
C  C381  1  0.27950000  0.52520000  0.86990000  1.0 -0.0189145174
C  C382  1  0.13711000  0.51930000  0.66968000  1.0 -0.1892972417
C  C383  1  0.19219000  0.47104000  0.69250000  1.0 -0.0818782297
C  C384  1  0.32730000  0.96660000  0.44100000  1.0 -0.0295658423
C  C385  1  0.28680000  0.96000000  0.36360000  1.0 -0.1291677342
C  C386  1  0.12024000  0.84513000  0.32265000  1.0 -0.1462393079
C  C387  1  0.07470000  0.87270000  0.37530000  1.0 -0.1462393079
C  C388  1  0.25570000  0.56300000  0.95370000  1.0 -0.1004184426
C  C389  1  0.29520000  0.50990000  0.91090000  1.0 -0.0295658423
C  C390  1  0.11732000  0.48568000  0.62937000  1.0 -0.1004184426
C  C391  1  0.17239000  0.43743000  0.65219000  1.0 -0.0393425497
C  C392  1  0.37270000  0.98750000  0.42840000  1.0 -0.0478276559
C  C393  1  0.32570000  0.98940000  0.35200000  1.0 -0.0189145174
C  C394  1  0.08010000  0.82670000  0.28750000  1.0 -0.0818782297
C  C395  1  0.03308000  0.85158000  0.34108000  1.0 -0.0892125297
C  C396  1  0.28330000  0.52880000  0.95280000  1.0 0.0306766196
C  C397  1  0.13495000  0.44476000  0.62062000  1.0 -0.0295658423
C  C398  1  0.36754000  0.00067000  0.38472000  1.0 -0.0189145174
C  C399  1  0.03675000  0.82835000  0.29725000  1.0 -0.0189145174
C  C400  1  0.31770000  0.51710000  0.99280000  1.0 0.4179803396
C  C401  1  0.11180000  0.41070000  0.57700000  1.0 0.5205275695
C  C402  1  0.41100000  0.02630000  0.37470000  1.0 0.4553654208
C  C403  1  0.99246000  0.80806000  0.26286000  1.0 0.5406753435
C  C404  1  0.14410000  0.34930000  0.45910000  1.0 0.4835290774
C  C405  1  0.18280000  0.34170000  0.43400000  1.0 -0.0189145174
C  C406  1  0.19290000  0.29800000  0.41870000  1.0 -0.0892125297
C  C407  1  0.21020000  0.38050000  0.42360000  1.0 -0.0478276559
C  C408  1  0.23420000  0.29560000  0.40200000  1.0 -0.0189145174
C  C409  1  0.24593000  0.37407000  0.39910000  1.0 -0.1701957272
C  C410  1  0.25457000  0.33043000  0.38070000  1.0 0.0175613347
C  C411  1  0.27930000  0.31700000  0.34210000  1.0 0.0391447036
C  C412  1  0.28510000  0.34390000  0.30790000  1.0 -0.0818782297
C  C413  1  0.17910000  0.46530000  0.69660000  1.0 -0.0818782297
C  C414  1  0.26800000  0.56340000  0.94790000  1.0 -0.0818782297
C  C415  1  0.30020000  0.53370000  0.94870000  1.0 0.0306766196
C  C416  1  0.31670000  0.52300000  0.90720000  1.0 -0.0189145174
C  C417  1  0.30180000  0.54400000  0.86990000  1.0 -0.011331448
C  C418  1  0.16454000  0.92216000  0.60110000  1.0 -0.1892972417
C  C419  1  0.31860000  0.98950000  0.44210000  1.0 -0.0393425497
C  C420  1  0.22030000  0.29340000  0.38450000  1.0 -0.0189145174
C  C421  1  0.22000000  0.37770000  0.43460000  1.0 -0.0608783535
C  C422  1  0.29490000  0.33090000  0.35640000  1.0 0.0391447036
C  C423  1  0.30020000  0.35720000  0.32180000  1.0 -0.0818782297
C  C424  1  0.33013000  0.97143000  0.35273000  1.0 -0.0608783535
C  C425  1  0.36200000  0.00670000  0.43130000  1.0 -0.011331448
C  C426  1  0.77118000  0.20140000  0.82442000  1.0 0.5205275695
C  C427  1  0.68150000  0.20080000  0.91320000  1.0 0.5205275695
C  C428  1  0.82260000  0.13650000  0.92520000  1.0 0.5406753435
C  C429  1  0.77420000  0.20470000  0.77460000  1.0 0.0122199825
C  C430  1  0.62898000  0.20174000  0.90991000  1.0 0.0501824606
C  C431  1  0.85093000  0.09870000  0.93167000  1.0 -0.0038068764
C  C432  1  0.74750000  0.17050000  0.73590000  1.0 -0.0892125297
C  C433  1  0.80190000  0.24290000  0.76450000  1.0 -0.0892125297
C  C434  1  0.61049000  0.24143000  0.90395000  1.0 -0.0608783535
C  C435  1  0.60010000  0.16156000  0.91558000  1.0 -0.1892972417
C  C436  1  0.83140000  0.05920000  0.94360000  1.0 -0.0818782297
C  C437  1  0.89790000  0.10645000  0.92795000  1.0 -0.0818782297
C  C438  1  0.74991000  0.17271000  0.69261000  1.0 -0.1397425121
C  C439  1  0.80490000  0.24540000  0.72000000  1.0 -0.1397425121
C  C440  1  0.56313000  0.24093000  0.90366000  1.0 -0.160321649
C  C441  1  0.55273000  0.16106000  0.91530000  1.0 -0.0393425497
C  C442  1  0.85660000  0.02360000  0.94740000  1.0 -0.160321649
C  C443  1  0.92410000  0.07066000  0.93304000  1.0 -0.160321649
C  C444  1  0.77840000  0.21040000  0.68310000  1.0 0.0631832718
C  C445  1  0.53425000  0.20075000  0.90933000  1.0 0.0825135085
C  C446  1  0.90258000  0.02816000  0.94279000  1.0 0.0697564922
C  C447  1  0.78176000  0.21465000  0.63163000  1.0 0.1007947909
C  C448  1  0.48326000  0.20136000  0.90946000  1.0 0.0915114648
C  C449  1  0.93133000  0.99056000  0.95041000  1.0 0.0825135085
C  C450  1  0.82394000  0.23242000  0.61959000  1.0 -0.2202334502
C  C451  1  0.74199000  0.19657000  0.59684000  1.0 -0.1994315248
C  C452  1  0.46970000  0.24080000  0.93080000  1.0 -0.2501382143
C  C453  1  0.44891000  0.16080000  0.89119000  1.0 -0.2202334502
C  C454  1  0.92331000  0.96369000  0.98218000  1.0 -0.1805515822
C  C455  1  0.82638000  0.23211000  0.57276000  1.0 0.0697564922
C  C456  1  0.74442000  0.19625000  0.55000000  1.0 0.0915114648
C  C457  1  0.42197000  0.24216000  0.93325000  1.0 0.0825135085
C  C458  1  0.40200000  0.15970000  0.89030000  1.0 0.1007947909
C  C459  1  0.78661000  0.21403000  0.53797000  1.0 -0.2501382143
C  C460  1  0.87076000  0.25195000  0.55924000  1.0 0.0122199825
C  C461  1  0.70125000  0.17456000  0.51199000  1.0 0.0697564922
C  C462  1  0.39025000  0.20196000  0.91175000  1.0 -0.2050078348
C  C463  1  0.40896000  0.28501000  0.95666000  1.0 0.0175613347
C  C464  1  0.36598000  0.11732000  0.86862000  1.0 0.0697564922
C  C465  1  0.91263000  0.23996000  0.57817000  1.0 -0.1397425121
C  C466  1  0.86990000  0.27950000  0.52520000  1.0 -0.0189145174
C  C467  1  0.66968000  0.13711000  0.51930000  1.0 -0.1892972417
C  C468  1  0.69250000  0.19219000  0.47104000  1.0 -0.0818782297
C  C469  1  0.44100000  0.32730000  0.96660000  1.0 -0.0295658423
C  C470  1  0.36360000  0.28680000  0.96000000  1.0 -0.1291677342
C  C471  1  0.32265000  0.12024000  0.84513000  1.0 -0.1462393079
C  C472  1  0.37530000  0.07470000  0.87270000  1.0 -0.1462393079
C  C473  1  0.95370000  0.25570000  0.56300000  1.0 -0.0892125297
C  C474  1  0.91090000  0.29520000  0.50990000  1.0 -0.0295658423
C  C475  1  0.62937000  0.11732000  0.48568000  1.0 -0.1004184426
C  C476  1  0.65219000  0.17239000  0.43743000  1.0 -0.0393425497
C  C477  1  0.42840000  0.37270000  0.98750000  1.0 -0.0478276559
C  C478  1  0.35200000  0.32570000  0.98940000  1.0 -0.0189145174
C  C479  1  0.28750000  0.08010000  0.82670000  1.0 -0.0818782297
C  C480  1  0.34108000  0.03308000  0.85158000  1.0 -0.0892125297
C  C481  1  0.95280000  0.28330000  0.52880000  1.0 0.0306766196
C  C482  1  0.62062000  0.13495000  0.44476000  1.0 -0.0295658423
C  C483  1  0.38472000  0.36754000  0.00067000  1.0 -0.0189145174
C  C484  1  0.29725000  0.03675000  0.82835000  1.0 -0.0189145174
C  C485  1  0.99280000  0.31770000  0.51710000  1.0 0.4179803396
C  C486  1  0.57700000  0.11180000  0.41070000  1.0 0.5205275695
C  C487  1  0.37470000  0.41100000  0.02630000  1.0 0.4553654208
C  C488  1  0.26286000  0.99246000  0.80806000  1.0 0.5406753435
C  C489  1  0.45910000  0.14410000  0.34930000  1.0 0.4835290774
C  C490  1  0.43400000  0.18280000  0.34170000  1.0 -0.0189145174
C  C491  1  0.41870000  0.19290000  0.29800000  1.0 -0.0892125297
C  C492  1  0.42360000  0.21020000  0.38050000  1.0 -0.0478276559
C  C493  1  0.40200000  0.23420000  0.29560000  1.0 -0.0189145174
C  C494  1  0.39910000  0.24593000  0.37407000  1.0 -0.1701957272
C  C495  1  0.38070000  0.25457000  0.33043000  1.0 0.0175613347
C  C496  1  0.34210000  0.27930000  0.31700000  1.0 0.0391447036
C  C497  1  0.30790000  0.28510000  0.34390000  1.0 -0.0818782297
C  C498  1  0.69660000  0.17910000  0.46530000  1.0 -0.0818782297
C  C499  1  0.94790000  0.26800000  0.56340000  1.0 -0.0818782297
C  C500  1  0.94870000  0.30020000  0.53370000  1.0 0.0306766196
C  C501  1  0.90720000  0.31670000  0.52300000  1.0 -0.0189145174
C  C502  1  0.86990000  0.30180000  0.54400000  1.0 -0.0038068764
C  C503  1  0.60110000  0.16454000  0.92216000  1.0 -0.1892972417
C  C504  1  0.44210000  0.31860000  0.98950000  1.0 -0.0393425497
C  C505  1  0.38450000  0.22030000  0.29340000  1.0 -0.0189145174
C  C506  1  0.43460000  0.22000000  0.37770000  1.0 -0.0608783535
C  C507  1  0.35640000  0.29490000  0.33090000  1.0 0.0391447036
C  C508  1  0.32180000  0.30020000  0.35720000  1.0 -0.0818782297
C  C509  1  0.35273000  0.33013000  0.97143000  1.0 -0.0608783535
C  C510  1  0.43130000  0.36200000  0.00670000  1.0 -0.011331448
O  O1  1  0.16654000  0.25272000  0.83387000  1.0 -0.5326247466
O  O2  1  0.14290000  0.20618000  0.76524000  1.0 -0.5179707071
O  O3  1  0.09591000  0.29304000  0.76224000  1.0 -0.5408978001
O  O4  1  0.07971000  0.30286000  0.83300000  1.0 -0.4497718896
O  O5  1  0.07269000  0.22034000  0.86977000  1.0 -0.5179707071
O  O6  1  0.08133000  0.15808000  0.82424000  1.0 -0.5326247466
O  O7  1  0.00502000  0.21545000  0.77658000  1.0 -0.5326247466
O  O8  1  0.04749000  0.18685000  0.72848000  1.0 -0.5179707071
O  O9  1  0.49607000  0.00600000  0.64393000  1.0 -0.490272749
O  O10  1  0.48114000  0.97229000  0.70154000  1.0 -0.4690423792
O  O11  1  0.62854000  0.43052000  0.87669000  1.0 -0.5408978001
O  O12  1  0.57778000  0.45266000  0.91740000  1.0 -0.5179707071
O  O13  1  0.95752000  0.59350000  0.55400000  1.0 -0.4383001462
O  O14  1  0.96815000  0.66710000  0.58800000  1.0 -0.5109966284
O  O15  1  0.61141000  0.53023000  0.86392000  1.0 -0.4383001462
O  O16  1  0.68504000  0.53229000  0.88114000  1.0 -0.4497718896
O  O17  1  0.83387000  0.16654000  0.25272000  1.0 -0.5326247466
O  O18  1  0.76524000  0.14290000  0.20618000  1.0 -0.5179707071
O  O19  1  0.76224000  0.09591000  0.29304000  1.0 -0.5408978001
O  O20  1  0.83300000  0.07971000  0.30286000  1.0 -0.4497718896
O  O21  1  0.86977000  0.07269000  0.22034000  1.0 -0.5179707071
O  O22  1  0.82424000  0.08133000  0.15808000  1.0 -0.5326247466
O  O23  1  0.77658000  0.00502000  0.21545000  1.0 -0.5326247466
O  O24  1  0.72848000  0.04749000  0.18685000  1.0 -0.5179707071
O  O25  1  0.64393000  0.49607000  0.00600000  1.0 -0.490272749
O  O26  1  0.70154000  0.48114000  0.97229000  1.0 -0.4690423792
O  O27  1  0.87669000  0.62854000  0.43052000  1.0 -0.5408978001
O  O28  1  0.91740000  0.57778000  0.45266000  1.0 -0.5179707071
O  O29  1  0.55400000  0.95752000  0.59350000  1.0 -0.4383001462
O  O30  1  0.58800000  0.96815000  0.66710000  1.0 -0.5109966284
O  O31  1  0.86392000  0.61141000  0.53023000  1.0 -0.4383001462
O  O32  1  0.88114000  0.68504000  0.53229000  1.0 -0.4497718896
O  O33  1  0.25272000  0.83387000  0.16654000  1.0 -0.5326247466
O  O34  1  0.20618000  0.76524000  0.14290000  1.0 -0.5179707071
O  O35  1  0.29304000  0.76224000  0.09591000  1.0 -0.5408978001
O  O36  1  0.30286000  0.83300000  0.07971000  1.0 -0.4497718896
O  O37  1  0.22034000  0.86977000  0.07269000  1.0 -0.5179707071
O  O38  1  0.15808000  0.82424000  0.08133000  1.0 -0.5326247466
O  O39  1  0.21545000  0.77658000  0.00502000  1.0 -0.5326247466
O  O40  1  0.18685000  0.72848000  0.04749000  1.0 -0.5179707071
O  O41  1  0.00600000  0.64393000  0.49607000  1.0 -0.490272749
O  O42  1  0.97229000  0.70154000  0.48114000  1.0 -0.4690423792
O  O43  1  0.43052000  0.87669000  0.62854000  1.0 -0.5408978001
O  O44  1  0.45266000  0.91740000  0.57778000  1.0 -0.5179707071
O  O45  1  0.59350000  0.55400000  0.95752000  1.0 -0.4383001462
O  O46  1  0.66710000  0.58800000  0.96815000  1.0 -0.5109966284
O  O47  1  0.53023000  0.86392000  0.61141000  1.0 -0.4383001462
O  O48  1  0.53229000  0.88114000  0.68504000  1.0 -0.4497718896
O  O49  1  0.83346000  0.74728000  0.16613000  1.0 -0.5326247466
O  O50  1  0.85710000  0.79382000  0.23476000  1.0 -0.5179707071
O  O51  1  0.90409000  0.70696000  0.23776000  1.0 -0.5408978001
O  O52  1  0.92029000  0.69714000  0.16700000  1.0 -0.4497718896
O  O53  1  0.92731000  0.77966000  0.13023000  1.0 -0.5179707071
O  O54  1  0.91867000  0.84192000  0.17576000  1.0 -0.5326247466
O  O55  1  0.99498000  0.78455000  0.22342000  1.0 -0.5326247466
O  O56  1  0.95251000  0.81315000  0.27152000  1.0 -0.5179707071
O  O57  1  0.50393000  0.99400000  0.35607000  1.0 -0.490272749
O  O58  1  0.51886000  0.02771000  0.29846000  1.0 -0.4690423792
O  O59  1  0.37146000  0.56948000  0.12331000  1.0 -0.5408978001
O  O60  1  0.42222000  0.54734000  0.08260000  1.0 -0.5179707071
O  O61  1  0.04248000  0.40650000  0.44600000  1.0 -0.4383001462
O  O62  1  0.03185000  0.33290000  0.41200000  1.0 -0.5109966284
O  O63  1  0.38859000  0.46977000  0.13608000  1.0 -0.4383001462
O  O64  1  0.31496000  0.46771000  0.11886000  1.0 -0.4497718896
O  O65  1  0.16613000  0.83346000  0.74728000  1.0 -0.5326247466
O  O66  1  0.23476000  0.85710000  0.79382000  1.0 -0.5179707071
O  O67  1  0.23776000  0.90409000  0.70696000  1.0 -0.5408978001
O  O68  1  0.16700000  0.92029000  0.69714000  1.0 -0.4497718896
O  O69  1  0.13023000  0.92731000  0.77966000  1.0 -0.5179707071
O  O70  1  0.17576000  0.91867000  0.84192000  1.0 -0.5326247466
O  O71  1  0.22342000  0.99498000  0.78455000  1.0 -0.5326247466
O  O72  1  0.27152000  0.95251000  0.81315000  1.0 -0.5179707071
O  O73  1  0.35607000  0.50393000  0.99400000  1.0 -0.490272749
O  O74  1  0.29846000  0.51886000  0.02771000  1.0 -0.4690423792
O  O75  1  0.12331000  0.37146000  0.56948000  1.0 -0.5408978001
O  O76  1  0.08260000  0.42222000  0.54734000  1.0 -0.5179707071
O  O77  1  0.44600000  0.04248000  0.40650000  1.0 -0.4383001462
O  O78  1  0.41200000  0.03185000  0.33290000  1.0 -0.5109966284
O  O79  1  0.13608000  0.38859000  0.46977000  1.0 -0.4383001462
O  O80  1  0.11886000  0.31496000  0.46771000  1.0 -0.4497718896
O  O81  1  0.74728000  0.16613000  0.83346000  1.0 -0.5326247466
O  O82  1  0.79382000  0.23476000  0.85710000  1.0 -0.5179707071
O  O83  1  0.70696000  0.23776000  0.90409000  1.0 -0.5408978001
O  O84  1  0.69714000  0.16700000  0.92029000  1.0 -0.4497718896
O  O85  1  0.77966000  0.13023000  0.92731000  1.0 -0.5179707071
O  O86  1  0.84192000  0.17576000  0.91867000  1.0 -0.5326247466
O  O87  1  0.78455000  0.22342000  0.99498000  1.0 -0.5326247466
O  O88  1  0.81315000  0.27152000  0.95251000  1.0 -0.5179707071
O  O89  1  0.99400000  0.35607000  0.50393000  1.0 -0.490272749
O  O90  1  0.02771000  0.29846000  0.51886000  1.0 -0.4690423792
O  O91  1  0.56948000  0.12331000  0.37146000  1.0 -0.5408978001
O  O92  1  0.54734000  0.08260000  0.42222000  1.0 -0.5179707071
O  O93  1  0.40650000  0.44600000  0.04248000  1.0 -0.4383001462
O  O94  1  0.33290000  0.41200000  0.03185000  1.0 -0.5109966284
O  O95  1  0.46977000  0.13608000  0.38859000  1.0 -0.4383001462
O  O96  1  0.46771000  0.11886000  0.31496000  1.0 -0.4497718896
