# DDEC6 charges by PACMAN v1.1 (https://github.com/mtap-research/PACMAN-charge/)
data_KABPUC_ASR_pacman
_symmetry_space_group_name_H-M   'P 1'
_cell_length_a   29.55810000
_cell_length_b   29.55810000
_cell_length_c   29.55810000
_cell_angle_alpha   99.72160000
_cell_angle_beta   99.72160000
_cell_angle_gamma   99.72160000
_symmetry_Int_Tables_number   1
_chemical_formula_structural   In2H51C87O17
_chemical_formula_sum   'In12 H306 C522 O102'
_cell_volume   24564.76329576
_cell_formula_units_Z   6
loop_
 _symmetry_equiv_pos_site_id
 _symmetry_equiv_pos_as_xyz
  1  'x, y, z'
loop_
 _atom_site_type_symbol
 _atom_site_label
 _atom_site_symmetry_multiplicity
 _atom_site_fract_x
 _atom_site_fract_y
 _atom_site_fract_z
 _atom_site_occupancy
 _atom_site_charge
In  In1  1  0.13195000  0.01985000  0.43697000  1.0 1.2417921759
In  In2  1  0.59452000  0.72066000  0.29667000  1.0 1.3365811842
In  In3  1  0.01985000  0.43697000  0.13195000  1.0 1.2417921759
In  In4  1  0.72066000  0.29667000  0.59452000  1.0 1.3365811842
In  In5  1  0.43697000  0.13195000  0.01985000  1.0 1.2417921759
In  In6  1  0.29667000  0.59452000  0.72066000  1.0 1.3365811842
In  In7  1  0.86805000  0.98015000  0.56303000  1.0 1.2417921759
In  In8  1  0.40548000  0.27934000  0.70333000  1.0 1.3365811842
In  In9  1  0.98015000  0.56303000  0.86805000  1.0 1.2417921759
In  In10  1  0.27934000  0.70333000  0.40548000  1.0 1.3365811842
In  In11  1  0.56303000  0.86805000  0.98015000  1.0 1.2417921759
In  In12  1  0.70333000  0.40548000  0.27934000  1.0 1.3365811842
H  H1  1  0.08810000  0.08470000  0.30050000  1.0 0.1202397815
H  H2  1  0.22550000  0.08850000  0.34260000  1.0 0.0890149976
H  H3  1  0.00400000  0.89620000  0.40990000  1.0 0.1202397815
H  H4  1  0.09260000  0.86570000  0.32540000  1.0 0.1291978129
H  H5  1  0.10550000  0.13610000  0.25180000  1.0 0.0890149976
H  H6  1  0.24280000  0.13990000  0.29370000  1.0 0.0694278972
H  H7  1  0.95290000  0.82570000  0.37490000  1.0 0.1011700658
H  H8  1  0.04150000  0.79500000  0.29030000  1.0 0.1202397815
H  H9  1  0.13690000  0.20680000  0.23700000  1.0 0.0694278972
H  H10  1  0.90060000  0.78260000  0.32030000  1.0 0.1202397815
H  H11  1  0.00410000  0.71900000  0.28790000  1.0 0.1202397815
H  H12  1  0.87120000  0.64640000  0.25760000  1.0 0.1202397815
H  H13  1  0.83900000  0.76210000  0.35320000  1.0 0.1087677786
H  H14  1  0.80010000  0.66410000  0.23420000  1.0 0.1291978129
H  H15  1  0.00130000  0.66890000  0.21300000  1.0 0.1291978129
H  H16  1  0.91720000  0.58480000  0.27140000  1.0 0.1087677786
H  H17  1  0.76090000  0.76270000  0.35450000  1.0 0.1202397815
H  H18  1  0.72210000  0.66460000  0.23550000  1.0 0.1202397815
H  H19  1  0.02520000  0.60420000  0.17550000  1.0 0.1202397815
H  H20  1  0.94110000  0.52010000  0.23390000  1.0 0.1291978129
H  H21  1  0.42530000  0.68350000  0.23560000  1.0 0.1291978129
H  H22  1  0.50550000  0.64440000  0.14500000  1.0 0.0694278972
H  H23  1  0.58310000  0.57760000  0.36550000  1.0 0.1291978129
H  H24  1  0.55960000  0.69500000  0.44050000  1.0 0.1202397815
H  H25  1  0.35860000  0.65270000  0.17740000  1.0 0.1202397815
H  H26  1  0.43870000  0.61360000  0.08690000  1.0 0.0694278972
H  H27  1  0.57370000  0.53950000  0.42680000  1.0 0.1087677786
H  H28  1  0.55020000  0.65670000  0.50170000  1.0 0.1202397815
H  H29  1  0.37390000  0.63180000  0.03330000  1.0 0.1291978129
H  H30  1  0.30930000  0.58580000  0.13100000  1.0 0.1202397815
H  H31  1  0.59850000  0.52770000  0.50140000  1.0 0.1202397815
H  H32  1  0.24040000  0.56070000  0.99700000  1.0 0.1087677786
H  H33  1  0.24080000  0.61840000  0.94400000  1.0 0.0776430757
H  H34  1  0.37110000  0.60540000  0.95450000  1.0 0.0890149976
H  H35  1  0.19590000  0.50520000  0.01450000  1.0 0.1291978129
H  H36  1  0.24880000  0.55810000  0.14990000  1.0 0.1202397815
H  H37  1  0.23010000  0.61120000  0.86320000  1.0 0.1011700658
H  H38  1  0.36780000  0.60620000  0.87750000  1.0 0.0890149976
H  H39  1  0.11570000  0.49630000  0.03310000  1.0 0.1011700658
H  H40  1  0.18440000  0.50950000  0.16510000  1.0 0.1291978129
H  H41  1  0.09200000  0.10270000  0.23270000  1.0 0.0890149976
H  H42  1  0.23160000  0.12400000  0.27220000  1.0 0.0890149976
H  H43  1  0.21450000  0.06230000  0.31200000  1.0 0.0890149976
H  H44  1  0.12370000  0.19330000  0.22200000  1.0 0.0776430757
H  H45  1  0.49950000  0.67810000  0.14070000  1.0 0.0776430757
H  H46  1  0.43320000  0.65110000  0.08160000  1.0 0.0776430757
H  H47  1  0.24090000  0.59460000  0.94430000  1.0 0.0890149976
H  H48  1  0.37790000  0.57580000  0.95810000  1.0 0.1011700658
H  H49  1  0.17510000  0.55660000  0.03130000  1.0 0.1087677786
H  H50  1  0.36220000  0.57390000  0.87940000  1.0 0.0776430757
H  H51  1  0.23820000  0.58580000  0.86670000  1.0 0.1011700658
H  H52  1  0.08470000  0.30050000  0.08810000  1.0 0.1202397815
H  H53  1  0.08850000  0.34260000  0.22550000  1.0 0.0890149976
H  H54  1  0.89620000  0.40990000  0.00400000  1.0 0.1202397815
H  H55  1  0.86570000  0.32540000  0.09260000  1.0 0.1291978129
H  H56  1  0.13610000  0.25180000  0.10550000  1.0 0.0890149976
H  H57  1  0.13990000  0.29370000  0.24280000  1.0 0.0694278972
H  H58  1  0.82570000  0.37490000  0.95290000  1.0 0.1011700658
H  H59  1  0.79500000  0.29030000  0.04150000  1.0 0.1202397815
H  H60  1  0.20680000  0.23700000  0.13690000  1.0 0.0694278972
H  H61  1  0.78260000  0.32030000  0.90060000  1.0 0.1202397815
H  H62  1  0.71900000  0.28790000  0.00410000  1.0 0.1202397815
H  H63  1  0.64640000  0.25760000  0.87120000  1.0 0.1202397815
H  H64  1  0.76210000  0.35320000  0.83900000  1.0 0.1087677786
H  H65  1  0.66410000  0.23420000  0.80010000  1.0 0.1291978129
H  H66  1  0.66890000  0.21300000  0.00130000  1.0 0.1291978129
H  H67  1  0.58480000  0.27140000  0.91720000  1.0 0.1087677786
H  H68  1  0.76270000  0.35450000  0.76090000  1.0 0.1202397815
H  H69  1  0.66460000  0.23550000  0.72210000  1.0 0.1202397815
H  H70  1  0.60420000  0.17550000  0.02520000  1.0 0.1202397815
H  H71  1  0.52010000  0.23390000  0.94110000  1.0 0.1291978129
H  H72  1  0.68350000  0.23560000  0.42530000  1.0 0.1291978129
H  H73  1  0.64440000  0.14500000  0.50550000  1.0 0.0776430757
H  H74  1  0.57760000  0.36550000  0.58310000  1.0 0.1291978129
H  H75  1  0.69500000  0.44050000  0.55960000  1.0 0.1202397815
H  H76  1  0.65270000  0.17740000  0.35860000  1.0 0.1202397815
H  H77  1  0.61360000  0.08690000  0.43870000  1.0 0.0694278972
H  H78  1  0.53950000  0.42680000  0.57370000  1.0 0.1087677786
H  H79  1  0.65670000  0.50170000  0.55020000  1.0 0.1202397815
H  H80  1  0.63180000  0.03330000  0.37390000  1.0 0.1291978129
H  H81  1  0.58580000  0.13100000  0.30930000  1.0 0.1202397815
H  H82  1  0.52770000  0.50140000  0.59850000  1.0 0.1202397815
H  H83  1  0.56070000  0.99700000  0.24040000  1.0 0.1087677786
H  H84  1  0.61840000  0.94400000  0.24080000  1.0 0.0776430757
H  H85  1  0.60540000  0.95450000  0.37110000  1.0 0.0890149976
H  H86  1  0.50520000  0.01450000  0.19590000  1.0 0.1291978129
H  H87  1  0.55810000  0.14990000  0.24880000  1.0 0.1202397815
H  H88  1  0.61120000  0.86320000  0.23010000  1.0 0.1011700658
H  H89  1  0.60620000  0.87750000  0.36780000  1.0 0.0890149976
H  H90  1  0.49630000  0.03310000  0.11570000  1.0 0.1011700658
H  H91  1  0.50950000  0.16510000  0.18440000  1.0 0.1291978129
H  H92  1  0.10270000  0.23270000  0.09200000  1.0 0.0890149976
H  H93  1  0.12400000  0.27220000  0.23160000  1.0 0.0890149976
H  H94  1  0.06230000  0.31200000  0.21450000  1.0 0.0890149976
H  H95  1  0.19330000  0.22200000  0.12370000  1.0 0.0776430757
H  H96  1  0.67810000  0.14070000  0.49950000  1.0 0.0776430757
H  H97  1  0.65110000  0.08160000  0.43320000  1.0 0.0776430757
H  H98  1  0.59460000  0.94430000  0.24090000  1.0 0.0890149976
H  H99  1  0.57580000  0.95810000  0.37790000  1.0 0.1011700658
H  H100  1  0.55660000  0.03130000  0.17510000  1.0 0.1087677786
H  H101  1  0.57390000  0.87940000  0.36220000  1.0 0.0776430757
H  H102  1  0.58580000  0.86670000  0.23820000  1.0 0.1011700658
H  H103  1  0.30050000  0.08810000  0.08470000  1.0 0.1202397815
H  H104  1  0.34260000  0.22550000  0.08850000  1.0 0.0890149976
H  H105  1  0.40990000  0.00400000  0.89620000  1.0 0.1202397815
H  H106  1  0.32540000  0.09260000  0.86570000  1.0 0.1291978129
H  H107  1  0.25180000  0.10550000  0.13610000  1.0 0.0890149976
H  H108  1  0.29370000  0.24280000  0.13990000  1.0 0.0694278972
H  H109  1  0.37490000  0.95290000  0.82570000  1.0 0.1011700658
H  H110  1  0.29030000  0.04150000  0.79500000  1.0 0.1202397815
H  H111  1  0.23700000  0.13690000  0.20680000  1.0 0.0694278972
H  H112  1  0.32030000  0.90060000  0.78260000  1.0 0.1202397815
H  H113  1  0.28790000  0.00410000  0.71900000  1.0 0.1202397815
H  H114  1  0.25760000  0.87120000  0.64640000  1.0 0.1202397815
H  H115  1  0.35320000  0.83900000  0.76210000  1.0 0.1087677786
H  H116  1  0.23420000  0.80010000  0.66410000  1.0 0.1291978129
H  H117  1  0.21300000  0.00130000  0.66890000  1.0 0.1291978129
H  H118  1  0.27140000  0.91720000  0.58480000  1.0 0.1087677786
H  H119  1  0.35450000  0.76090000  0.76270000  1.0 0.1202397815
H  H120  1  0.23550000  0.72210000  0.66460000  1.0 0.1202397815
H  H121  1  0.17550000  0.02520000  0.60420000  1.0 0.1202397815
H  H122  1  0.23390000  0.94110000  0.52010000  1.0 0.1291978129
H  H123  1  0.23560000  0.42530000  0.68350000  1.0 0.1291978129
H  H124  1  0.14500000  0.50550000  0.64440000  1.0 0.0776430757
H  H125  1  0.36550000  0.58310000  0.57760000  1.0 0.1291978129
H  H126  1  0.44050000  0.55960000  0.69500000  1.0 0.1202397815
H  H127  1  0.17740000  0.35860000  0.65270000  1.0 0.1202397815
H  H128  1  0.08690000  0.43870000  0.61360000  1.0 0.0694278972
H  H129  1  0.42680000  0.57370000  0.53950000  1.0 0.1087677786
H  H130  1  0.50170000  0.55020000  0.65670000  1.0 0.1202397815
H  H131  1  0.03330000  0.37390000  0.63180000  1.0 0.1291978129
H  H132  1  0.13100000  0.30930000  0.58580000  1.0 0.1202397815
H  H133  1  0.50140000  0.59850000  0.52770000  1.0 0.1202397815
H  H134  1  0.99700000  0.24040000  0.56070000  1.0 0.1087677786
H  H135  1  0.94400000  0.24080000  0.61840000  1.0 0.0776430757
H  H136  1  0.95450000  0.37110000  0.60540000  1.0 0.0890149976
H  H137  1  0.01450000  0.19590000  0.50520000  1.0 0.1291978129
H  H138  1  0.14990000  0.24880000  0.55810000  1.0 0.1202397815
H  H139  1  0.86320000  0.23010000  0.61120000  1.0 0.1011700658
H  H140  1  0.87750000  0.36780000  0.60620000  1.0 0.0890149976
H  H141  1  0.03310000  0.11570000  0.49630000  1.0 0.1011700658
H  H142  1  0.16510000  0.18440000  0.50950000  1.0 0.1291978129
H  H143  1  0.23270000  0.09200000  0.10270000  1.0 0.0890149976
H  H144  1  0.27220000  0.23160000  0.12400000  1.0 0.0890149976
H  H145  1  0.31200000  0.21450000  0.06230000  1.0 0.0890149976
H  H146  1  0.22200000  0.12370000  0.19330000  1.0 0.0776430757
H  H147  1  0.14070000  0.49950000  0.67810000  1.0 0.0776430757
H  H148  1  0.08160000  0.43320000  0.65110000  1.0 0.0776430757
H  H149  1  0.94430000  0.24090000  0.59460000  1.0 0.0890149976
H  H150  1  0.95810000  0.37790000  0.57580000  1.0 0.1011700658
H  H151  1  0.03130000  0.17510000  0.55660000  1.0 0.1087677786
H  H152  1  0.87940000  0.36220000  0.57390000  1.0 0.0776430757
H  H153  1  0.86670000  0.23820000  0.58580000  1.0 0.1011700658
H  H154  1  0.91190000  0.91530000  0.69950000  1.0 0.1202397815
H  H155  1  0.77450000  0.91150000  0.65740000  1.0 0.0890149976
H  H156  1  0.99600000  0.10380000  0.59010000  1.0 0.1202397815
H  H157  1  0.90740000  0.13430000  0.67460000  1.0 0.1291978129
H  H158  1  0.89450000  0.86390000  0.74820000  1.0 0.0890149976
H  H159  1  0.75720000  0.86010000  0.70630000  1.0 0.0694278972
H  H160  1  0.04710000  0.17430000  0.62510000  1.0 0.1011700658
H  H161  1  0.95850000  0.20500000  0.70970000  1.0 0.1202397815
H  H162  1  0.86310000  0.79320000  0.76300000  1.0 0.0694278972
H  H163  1  0.09940000  0.21740000  0.67970000  1.0 0.1202397815
H  H164  1  0.99590000  0.28100000  0.71210000  1.0 0.1202397815
H  H165  1  0.12880000  0.35360000  0.74240000  1.0 0.1202397815
H  H166  1  0.16100000  0.23790000  0.64680000  1.0 0.1087677786
H  H167  1  0.19990000  0.33590000  0.76580000  1.0 0.1291978129
H  H168  1  0.99870000  0.33110000  0.78700000  1.0 0.1291978129
H  H169  1  0.08280000  0.41520000  0.72860000  1.0 0.1087677786
H  H170  1  0.23910000  0.23730000  0.64550000  1.0 0.1202397815
H  H171  1  0.27790000  0.33540000  0.76450000  1.0 0.1202397815
H  H172  1  0.97480000  0.39580000  0.82450000  1.0 0.1202397815
H  H173  1  0.05890000  0.47990000  0.76610000  1.0 0.1291978129
H  H174  1  0.57470000  0.31650000  0.76440000  1.0 0.1291978129
H  H175  1  0.49450000  0.35560000  0.85500000  1.0 0.0776430757
H  H176  1  0.41690000  0.42240000  0.63450000  1.0 0.1291978129
H  H177  1  0.44040000  0.30500000  0.55950000  1.0 0.1202397815
H  H178  1  0.64140000  0.34730000  0.82260000  1.0 0.1202397815
H  H179  1  0.56130000  0.38640000  0.91310000  1.0 0.0694278972
H  H180  1  0.42630000  0.46050000  0.57320000  1.0 0.1087677786
H  H181  1  0.44980000  0.34330000  0.49830000  1.0 0.1202397815
H  H182  1  0.62610000  0.36820000  0.96670000  1.0 0.1291978129
H  H183  1  0.69070000  0.41420000  0.86900000  1.0 0.1202397815
H  H184  1  0.40150000  0.47230000  0.49860000  1.0 0.1202397815
H  H185  1  0.75960000  0.43930000  0.00300000  1.0 0.1087677786
H  H186  1  0.75920000  0.38160000  0.05600000  1.0 0.0776430757
H  H187  1  0.62890000  0.39460000  0.04550000  1.0 0.0890149976
H  H188  1  0.80410000  0.49480000  0.98550000  1.0 0.1291978129
H  H189  1  0.75120000  0.44190000  0.85010000  1.0 0.1202397815
H  H190  1  0.76990000  0.38880000  0.13680000  1.0 0.1011700658
H  H191  1  0.63220000  0.39380000  0.12250000  1.0 0.0776430757
H  H192  1  0.88430000  0.50370000  0.96690000  1.0 0.1011700658
H  H193  1  0.81560000  0.49050000  0.83490000  1.0 0.1291978129
H  H194  1  0.90800000  0.89730000  0.76730000  1.0 0.0890149976
H  H195  1  0.76840000  0.87600000  0.72780000  1.0 0.0890149976
H  H196  1  0.78550000  0.93770000  0.68800000  1.0 0.0890149976
H  H197  1  0.87630000  0.80670000  0.77800000  1.0 0.0776430757
H  H198  1  0.50050000  0.32190000  0.85930000  1.0 0.0776430757
H  H199  1  0.56680000  0.34890000  0.91840000  1.0 0.0776430757
H  H200  1  0.75910000  0.40540000  0.05570000  1.0 0.0890149976
H  H201  1  0.62210000  0.42420000  0.04190000  1.0 0.1011700658
H  H202  1  0.82490000  0.44340000  0.96870000  1.0 0.1087677786
H  H203  1  0.63780000  0.42610000  0.12060000  1.0 0.0776430757
H  H204  1  0.76180000  0.41420000  0.13330000  1.0 0.1011700658
H  H205  1  0.91530000  0.69950000  0.91190000  1.0 0.1202397815
H  H206  1  0.91150000  0.65740000  0.77450000  1.0 0.0890149976
H  H207  1  0.10380000  0.59010000  0.99600000  1.0 0.1202397815
H  H208  1  0.13430000  0.67460000  0.90740000  1.0 0.1291978129
H  H209  1  0.86390000  0.74820000  0.89450000  1.0 0.0890149976
H  H210  1  0.86010000  0.70630000  0.75720000  1.0 0.0694278972
H  H211  1  0.17430000  0.62510000  0.04710000  1.0 0.1011700658
H  H212  1  0.20500000  0.70970000  0.95850000  1.0 0.1202397815
H  H213  1  0.79320000  0.76300000  0.86310000  1.0 0.0694278972
H  H214  1  0.21740000  0.67970000  0.09940000  1.0 0.1202397815
H  H215  1  0.28100000  0.71210000  0.99590000  1.0 0.1202397815
H  H216  1  0.35360000  0.74240000  0.12880000  1.0 0.1202397815
H  H217  1  0.23790000  0.64680000  0.16100000  1.0 0.1087677786
H  H218  1  0.33590000  0.76580000  0.19990000  1.0 0.1291978129
H  H219  1  0.33110000  0.78700000  0.99870000  1.0 0.1291978129
H  H220  1  0.41520000  0.72860000  0.08280000  1.0 0.1087677786
H  H221  1  0.23730000  0.64550000  0.23910000  1.0 0.1202397815
H  H222  1  0.33540000  0.76450000  0.27790000  1.0 0.1202397815
H  H223  1  0.39580000  0.82450000  0.97480000  1.0 0.1202397815
H  H224  1  0.47990000  0.76610000  0.05890000  1.0 0.1291978129
H  H225  1  0.31650000  0.76440000  0.57470000  1.0 0.1291978129
H  H226  1  0.35560000  0.85500000  0.49450000  1.0 0.0776430757
H  H227  1  0.42240000  0.63450000  0.41690000  1.0 0.1291978129
H  H228  1  0.30500000  0.55950000  0.44040000  1.0 0.1202397815
H  H229  1  0.34730000  0.82260000  0.64140000  1.0 0.1202397815
H  H230  1  0.38640000  0.91310000  0.56130000  1.0 0.0694278972
H  H231  1  0.46050000  0.57320000  0.42630000  1.0 0.1087677786
H  H232  1  0.34330000  0.49830000  0.44980000  1.0 0.1202397815
H  H233  1  0.36820000  0.96670000  0.62610000  1.0 0.1291978129
H  H234  1  0.41420000  0.86900000  0.69070000  1.0 0.1202397815
H  H235  1  0.47230000  0.49860000  0.40150000  1.0 0.1202397815
H  H236  1  0.43930000  0.00300000  0.75960000  1.0 0.1087677786
H  H237  1  0.38160000  0.05600000  0.75920000  1.0 0.0776430757
H  H238  1  0.39460000  0.04550000  0.62890000  1.0 0.0890149976
H  H239  1  0.49480000  0.98550000  0.80410000  1.0 0.1291978129
H  H240  1  0.44190000  0.85010000  0.75120000  1.0 0.1202397815
H  H241  1  0.38880000  0.13680000  0.76990000  1.0 0.1011700658
H  H242  1  0.39380000  0.12250000  0.63220000  1.0 0.0776430757
H  H243  1  0.50370000  0.96690000  0.88430000  1.0 0.1011700658
H  H244  1  0.49050000  0.83490000  0.81560000  1.0 0.1291978129
H  H245  1  0.89730000  0.76730000  0.90800000  1.0 0.0890149976
H  H246  1  0.87600000  0.72780000  0.76840000  1.0 0.0890149976
H  H247  1  0.93770000  0.68800000  0.78550000  1.0 0.0890149976
H  H248  1  0.80670000  0.77800000  0.87630000  1.0 0.0776430757
H  H249  1  0.32190000  0.85930000  0.50050000  1.0 0.0776430757
H  H250  1  0.34890000  0.91840000  0.56680000  1.0 0.0776430757
H  H251  1  0.40540000  0.05570000  0.75910000  1.0 0.0890149976
H  H252  1  0.42420000  0.04190000  0.62210000  1.0 0.1011700658
H  H253  1  0.44340000  0.96870000  0.82490000  1.0 0.1087677786
H  H254  1  0.42610000  0.12060000  0.63780000  1.0 0.0776430757
H  H255  1  0.41420000  0.13330000  0.76180000  1.0 0.1011700658
H  H256  1  0.69950000  0.91190000  0.91530000  1.0 0.1202397815
H  H257  1  0.65740000  0.77450000  0.91150000  1.0 0.0890149976
H  H258  1  0.59010000  0.99600000  0.10380000  1.0 0.1202397815
H  H259  1  0.67460000  0.90740000  0.13430000  1.0 0.1291978129
H  H260  1  0.74820000  0.89450000  0.86390000  1.0 0.0890149976
H  H261  1  0.70630000  0.75720000  0.86010000  1.0 0.0694278972
H  H262  1  0.62510000  0.04710000  0.17430000  1.0 0.1011700658
H  H263  1  0.70970000  0.95850000  0.20500000  1.0 0.1202397815
H  H264  1  0.76300000  0.86310000  0.79320000  1.0 0.0694278972
H  H265  1  0.67970000  0.09940000  0.21740000  1.0 0.1202397815
H  H266  1  0.71210000  0.99590000  0.28100000  1.0 0.1202397815
H  H267  1  0.74240000  0.12880000  0.35360000  1.0 0.1202397815
H  H268  1  0.64680000  0.16100000  0.23790000  1.0 0.1087677786
H  H269  1  0.76580000  0.19990000  0.33590000  1.0 0.1291978129
H  H270  1  0.78700000  0.99870000  0.33110000  1.0 0.1291978129
H  H271  1  0.72860000  0.08280000  0.41520000  1.0 0.1087677786
H  H272  1  0.64550000  0.23910000  0.23730000  1.0 0.1202397815
H  H273  1  0.76450000  0.27790000  0.33540000  1.0 0.1202397815
H  H274  1  0.82450000  0.97480000  0.39580000  1.0 0.1202397815
H  H275  1  0.76610000  0.05890000  0.47990000  1.0 0.1291978129
H  H276  1  0.76440000  0.57470000  0.31650000  1.0 0.1291978129
H  H277  1  0.85500000  0.49450000  0.35560000  1.0 0.0776430757
H  H278  1  0.63450000  0.41690000  0.42240000  1.0 0.1291978129
H  H279  1  0.55950000  0.44040000  0.30500000  1.0 0.1202397815
H  H280  1  0.82260000  0.64140000  0.34730000  1.0 0.1202397815
H  H281  1  0.91310000  0.56130000  0.38640000  1.0 0.0694278972
H  H282  1  0.57320000  0.42630000  0.46050000  1.0 0.1087677786
H  H283  1  0.49830000  0.44980000  0.34330000  1.0 0.1202397815
H  H284  1  0.96670000  0.62610000  0.36820000  1.0 0.1291978129
H  H285  1  0.86900000  0.69070000  0.41420000  1.0 0.1202397815
H  H286  1  0.49860000  0.40150000  0.47230000  1.0 0.1202397815
H  H287  1  0.00300000  0.75960000  0.43930000  1.0 0.1087677786
H  H288  1  0.05600000  0.75920000  0.38160000  1.0 0.0776430757
H  H289  1  0.04550000  0.62890000  0.39460000  1.0 0.0890149976
H  H290  1  0.98550000  0.80410000  0.49480000  1.0 0.1291978129
H  H291  1  0.85010000  0.75120000  0.44190000  1.0 0.1202397815
H  H292  1  0.13680000  0.76990000  0.38880000  1.0 0.1011700658
H  H293  1  0.12250000  0.63220000  0.39380000  1.0 0.0776430757
H  H294  1  0.96690000  0.88430000  0.50370000  1.0 0.1011700658
H  H295  1  0.83490000  0.81560000  0.49050000  1.0 0.1291978129
H  H296  1  0.76730000  0.90800000  0.89730000  1.0 0.0890149976
H  H297  1  0.72780000  0.76840000  0.87600000  1.0 0.0890149976
H  H298  1  0.68800000  0.78550000  0.93770000  1.0 0.0890149976
H  H299  1  0.77800000  0.87630000  0.80670000  1.0 0.0776430757
H  H300  1  0.85930000  0.50050000  0.32190000  1.0 0.0776430757
H  H301  1  0.91840000  0.56680000  0.34890000  1.0 0.0776430757
H  H302  1  0.05570000  0.75910000  0.40540000  1.0 0.0890149976
H  H303  1  0.04190000  0.62210000  0.42420000  1.0 0.1011700658
H  H304  1  0.96870000  0.82490000  0.44340000  1.0 0.1087677786
H  H305  1  0.12060000  0.63780000  0.42610000  1.0 0.0776430757
H  H306  1  0.13330000  0.76180000  0.41420000  1.0 0.1011700658
C  C1  1  0.14409000  0.05611000  0.36280000  1.0 0.4927934818
C  C2  1  0.08460000  0.93410000  0.39460000  1.0 0.5391756863
C  C3  1  0.15508000  0.08144000  0.32636000  1.0 -0.0809989524
C  C4  1  0.05336000  0.88794000  0.37117000  1.0 -0.0190747126
C  C5  1  0.11912000  0.09571000  0.29915000  1.0 -0.1238557461
C  C6  1  0.20148000  0.09804000  0.32438000  1.0 0.019792651
C  C7  1  0.01155000  0.87596000  0.38599000  1.0 -0.1117265225
C  C8  1  0.06456000  0.85762000  0.33533000  1.0 -0.0887485544
C  C9  1  0.12956000  0.12658000  0.26996000  1.0 -0.0269384822
C  C10  1  0.21185000  0.12890000  0.29515000  1.0 -0.0602609555
C  C11  1  0.98094000  0.83368000  0.36498000  1.0 -0.1692308026
C  C12  1  0.03396000  0.81535000  0.31433000  1.0 -0.158709341
C  C13  1  0.17592000  0.14314000  0.26794000  1.0 0.019792651
C  C14  1  0.99215000  0.80337000  0.32915000  1.0 0.0776430757
C  C15  1  0.18484000  0.16720000  0.22926000  1.0 0.0518126155
C  C16  1  0.95771000  0.75773000  0.30714000  1.0 0.0890149976
C  C17  1  0.15980000  0.20140000  0.21980000  1.0 -0.0887485544
C  C18  1  0.91049000  0.75596000  0.30759000  1.0 -0.1917962432
C  C19  1  0.97251000  0.71783000  0.28814000  1.0 -0.2263382364
C  C20  1  0.87809000  0.71428000  0.28903000  1.0 0.1011700658
C  C21  1  0.94010000  0.67614000  0.26957000  1.0 0.1011700658
C  C22  1  0.89290000  0.67437000  0.27003000  1.0 -0.1917962432
C  C23  1  0.82739000  0.71305000  0.29356000  1.0 0.0694278972
C  C24  1  0.95688000  0.63326000  0.24587000  1.0 0.0890149976
C  C25  1  0.81561000  0.74258000  0.32960000  1.0 -0.158709341
C  C26  1  0.79234000  0.68385000  0.25833000  1.0 -0.1534490331
C  C27  1  0.98920000  0.63910000  0.21710000  1.0 -0.1384876835
C  C28  1  0.93890000  0.58870000  0.25210000  1.0 -0.1692308026
C  C29  1  0.76880000  0.74293000  0.33043000  1.0 -0.0981618377
C  C30  1  0.74552000  0.68421000  0.25916000  1.0 -0.0887485544
C  C31  1  0.00360000  0.60030000  0.19470000  1.0 -0.0887485544
C  C32  1  0.95320000  0.55000000  0.22970000  1.0 -0.0887485544
C  C33  1  0.73375000  0.71375000  0.29521000  1.0 0.0103657599
C  C34  1  0.98540000  0.55580000  0.20100000  1.0 0.0015030927
C  C35  1  0.68400000  0.71950000  0.30150000  1.0 0.5081800756
C  C36  1  0.99780000  0.51280000  0.17190000  1.0 0.5391756863
C  C37  1  0.51491000  0.68831000  0.23331000  1.0 0.4927934818
C  C38  1  0.57970000  0.66810000  0.36000000  1.0 0.5391756863
C  C39  1  0.47198000  0.66695000  0.19602000  1.0 -0.0016354729
C  C40  1  0.57226000  0.64007000  0.39691000  1.0 -0.0016354729
C  C41  1  0.42795000  0.66950000  0.20576000  1.0 -0.1534490331
C  C42  1  0.47599000  0.64609000  0.15149000  1.0 0.0015030927
C  C43  1  0.57650000  0.59349000  0.39281000  1.0 -0.0887485544
C  C44  1  0.56242000  0.66376000  0.43772000  1.0 -0.0887485544
C  C45  1  0.38800000  0.65111000  0.17098000  1.0 -0.1805807489
C  C46  1  0.43604000  0.62764000  0.11674000  1.0 -0.0190747126
C  C47  1  0.57090000  0.57063000  0.42952000  1.0 -0.1534490331
C  C48  1  0.55683000  0.64089000  0.47443000  1.0 -0.1534490331
C  C49  1  0.39207000  0.63016000  0.12645000  1.0 0.0518126155
C  C50  1  0.56107000  0.59432000  0.47032000  1.0 0.0694278972
C  C51  1  0.34818000  0.61200000  0.08779000  1.0 0.0776430757
C  C52  1  0.55159000  0.56868000  0.50844000  1.0 0.0890149976
C  C53  1  0.34734000  0.61619000  0.04154000  1.0 -0.3011570934
C  C54  1  0.30861000  0.58859000  0.10004000  1.0 -0.214553114
C  C55  1  0.57590000  0.53380000  0.51850000  1.0 -0.1993875119
C  C56  1  0.30694000  0.59695000  0.00752000  1.0 0.0776430757
C  C57  1  0.26820000  0.56937000  0.06604000  1.0 0.0776430757
C  C58  1  0.26738000  0.57355000  0.01978000  1.0 -0.3011570934
C  C59  1  0.30470000  0.60550000  0.95930000  1.0 0.0276367842
C  C60  1  0.22580000  0.54470000  0.07950000  1.0 0.0694278972
C  C61  1  0.26570000  0.61240000  0.92990000  1.0 -0.0717260883
C  C62  1  0.34220000  0.60610000  0.93650000  1.0 -0.0809989524
C  C63  1  0.19040000  0.51590000  0.04410000  1.0 -0.0407421187
C  C64  1  0.22370000  0.54260000  0.12570000  1.0 -0.1692308026
C  C65  1  0.25910000  0.61140000  0.88140000  1.0 -0.0494137541
C  C66  1  0.34120000  0.60740000  0.89030000  1.0 -0.0407421187
C  C67  1  0.14300000  0.50310000  0.05600000  1.0 -0.0494137541
C  C68  1  0.18320000  0.51680000  0.13560000  1.0 -0.0887485544
C  C69  1  0.29930000  0.61090000  0.86300000  1.0 0.0276367842
C  C70  1  0.14150000  0.50190000  0.10250000  1.0 -0.1384876835
C  C71  1  0.29811000  0.59940000  0.81209000  1.0 0.4308044848
C  C72  1  0.09723000  0.47793000  0.11233000  1.0 0.4482616124
C  C73  1  0.11916000  0.10650000  0.25514000  1.0 -0.0494137541
C  C74  1  0.16350000  0.12380000  0.24780000  1.0 0.0276367842
C  C75  1  0.20130000  0.11190000  0.27470000  1.0 -0.0602609555
C  C76  1  0.19390000  0.08190000  0.30550000  1.0 0.019792651
C  C77  1  0.16730000  0.14930000  0.20920000  1.0 0.0386450927
C  C78  1  0.14380000  0.18520000  0.20220000  1.0 -0.0717260883
C  C79  1  0.47140000  0.66630000  0.14880000  1.0 -0.0190747126
C  C80  1  0.43230000  0.64950000  0.11260000  1.0 -0.0407421187
C  C81  1  0.30950000  0.58700000  0.95740000  1.0 0.0386450927
C  C82  1  0.26700000  0.59100000  0.93140000  1.0 -0.0602609555
C  C83  1  0.34990000  0.58030000  0.94140000  1.0 -0.0809989524
C  C84  1  0.18070000  0.53740000  0.05270000  1.0 -0.0602609555
C  C85  1  0.30360000  0.59080000  0.86050000  1.0 0.019792651
C  C86  1  0.33820000  0.58190000  0.89390000  1.0 -0.0494137541
C  C87  1  0.26770000  0.58890000  0.88540000  1.0 -0.0602609555
C  C88  1  0.05611000  0.36280000  0.14409000  1.0 0.4927934818
C  C89  1  0.93410000  0.39460000  0.08460000  1.0 0.5391756863
C  C90  1  0.08144000  0.32636000  0.15508000  1.0 -0.0809989524
C  C91  1  0.88794000  0.37117000  0.05336000  1.0 -0.0190747126
C  C92  1  0.09571000  0.29915000  0.11912000  1.0 -0.1283023824
C  C93  1  0.09804000  0.32438000  0.20148000  1.0 0.019792651
C  C94  1  0.87596000  0.38599000  0.01155000  1.0 -0.1117265225
C  C95  1  0.85762000  0.33533000  0.06456000  1.0 -0.0887485544
C  C96  1  0.12658000  0.26996000  0.12956000  1.0 -0.0269384822
C  C97  1  0.12890000  0.29515000  0.21185000  1.0 -0.0602609555
C  C98  1  0.83368000  0.36498000  0.98094000  1.0 -0.1692308026
C  C99  1  0.81535000  0.31433000  0.03396000  1.0 -0.158709341
C  C100  1  0.14314000  0.26794000  0.17592000  1.0 0.019792651
C  C101  1  0.80337000  0.32915000  0.99215000  1.0 0.0776430757
C  C102  1  0.16720000  0.22926000  0.18484000  1.0 0.0518126155
C  C103  1  0.75773000  0.30714000  0.95771000  1.0 0.0890149976
C  C104  1  0.20140000  0.21980000  0.15980000  1.0 -0.0887485544
C  C105  1  0.75596000  0.30759000  0.91049000  1.0 -0.1917962432
C  C106  1  0.71783000  0.28814000  0.97251000  1.0 -0.2263382364
C  C107  1  0.71428000  0.28903000  0.87809000  1.0 0.1011700658
C  C108  1  0.67614000  0.26957000  0.94010000  1.0 0.1011700658
C  C109  1  0.67437000  0.27003000  0.89290000  1.0 -0.1917962432
C  C110  1  0.71305000  0.29356000  0.82739000  1.0 0.0694278972
C  C111  1  0.63326000  0.24587000  0.95688000  1.0 0.0890149976
C  C112  1  0.74258000  0.32960000  0.81561000  1.0 -0.158709341
C  C113  1  0.68385000  0.25833000  0.79234000  1.0 -0.1534490331
C  C114  1  0.63910000  0.21710000  0.98920000  1.0 -0.1384876835
C  C115  1  0.58870000  0.25210000  0.93890000  1.0 -0.1692308026
C  C116  1  0.74293000  0.33043000  0.76880000  1.0 -0.0981618377
C  C117  1  0.68421000  0.25916000  0.74552000  1.0 -0.0887485544
C  C118  1  0.60030000  0.19470000  0.00360000  1.0 -0.0887485544
C  C119  1  0.55000000  0.22970000  0.95320000  1.0 -0.0887485544
C  C120  1  0.71375000  0.29521000  0.73375000  1.0 0.0103657599
C  C121  1  0.55580000  0.20100000  0.98540000  1.0 0.0015030927
C  C122  1  0.71950000  0.30150000  0.68400000  1.0 0.5081800756
C  C123  1  0.51280000  0.17190000  0.99780000  1.0 0.5391756863
C  C124  1  0.68831000  0.23331000  0.51491000  1.0 0.4927934818
C  C125  1  0.66810000  0.36000000  0.57970000  1.0 0.5391756863
C  C126  1  0.66695000  0.19602000  0.47198000  1.0 0.0015030927
C  C127  1  0.64007000  0.39691000  0.57226000  1.0 -0.0016354729
C  C128  1  0.66950000  0.20576000  0.42795000  1.0 -0.1534490331
C  C129  1  0.64609000  0.15149000  0.47599000  1.0 -0.0016354729
C  C130  1  0.59349000  0.39281000  0.57650000  1.0 -0.0887485544
C  C131  1  0.66376000  0.43772000  0.56242000  1.0 -0.0887485544
C  C132  1  0.65111000  0.17098000  0.38800000  1.0 -0.1805807489
C  C133  1  0.62764000  0.11674000  0.43604000  1.0 -0.0190747126
C  C134  1  0.57063000  0.42952000  0.57090000  1.0 -0.1534490331
C  C135  1  0.64089000  0.47443000  0.55683000  1.0 -0.1534490331
C  C136  1  0.63016000  0.12645000  0.39207000  1.0 0.0518126155
C  C137  1  0.59432000  0.47032000  0.56107000  1.0 0.0694278972
C  C138  1  0.61200000  0.08779000  0.34818000  1.0 0.0776430757
C  C139  1  0.56868000  0.50844000  0.55159000  1.0 0.0890149976
C  C140  1  0.61619000  0.04154000  0.34734000  1.0 -0.3011570934
C  C141  1  0.58859000  0.10004000  0.30861000  1.0 -0.214553114
C  C142  1  0.53380000  0.51850000  0.57590000  1.0 -0.1993875119
C  C143  1  0.59695000  0.00752000  0.30694000  1.0 0.0776430757
C  C144  1  0.56937000  0.06604000  0.26820000  1.0 0.0776430757
C  C145  1  0.57355000  0.01978000  0.26738000  1.0 -0.3011570934
C  C146  1  0.60550000  0.95930000  0.30470000  1.0 0.0276367842
C  C147  1  0.54470000  0.07950000  0.22580000  1.0 0.0694278972
C  C148  1  0.61240000  0.92990000  0.26570000  1.0 -0.0717260883
C  C149  1  0.60610000  0.93650000  0.34220000  1.0 -0.0809989524
C  C150  1  0.51590000  0.04410000  0.19040000  1.0 -0.0407421187
C  C151  1  0.54260000  0.12570000  0.22370000  1.0 -0.1692308026
C  C152  1  0.61140000  0.88140000  0.25910000  1.0 -0.0494137541
C  C153  1  0.60740000  0.89030000  0.34120000  1.0 -0.0407421187
C  C154  1  0.50310000  0.05600000  0.14300000  1.0 -0.0494137541
C  C155  1  0.51680000  0.13560000  0.18320000  1.0 -0.0887485544
C  C156  1  0.61090000  0.86300000  0.29930000  1.0 0.0276367842
C  C157  1  0.50190000  0.10250000  0.14150000  1.0 -0.1283023824
C  C158  1  0.59940000  0.81209000  0.29811000  1.0 0.4308044848
C  C159  1  0.47793000  0.11233000  0.09723000  1.0 0.4482616124
C  C160  1  0.10650000  0.25514000  0.11916000  1.0 -0.0494137541
C  C161  1  0.12380000  0.24780000  0.16350000  1.0 0.0276367842
C  C162  1  0.11190000  0.27470000  0.20130000  1.0 -0.0602609555
C  C163  1  0.08190000  0.30550000  0.19390000  1.0 0.019792651
C  C164  1  0.14930000  0.20920000  0.16730000  1.0 0.0386450927
C  C165  1  0.18520000  0.20220000  0.14380000  1.0 -0.0717260883
C  C166  1  0.66630000  0.14880000  0.47140000  1.0 -0.0269384822
C  C167  1  0.64950000  0.11260000  0.43230000  1.0 -0.0407421187
C  C168  1  0.58700000  0.95740000  0.30950000  1.0 0.0386450927
C  C169  1  0.59100000  0.93140000  0.26700000  1.0 -0.0602609555
C  C170  1  0.58030000  0.94140000  0.34990000  1.0 -0.0809989524
C  C171  1  0.53740000  0.05270000  0.18070000  1.0 -0.0602609555
C  C172  1  0.59080000  0.86050000  0.30360000  1.0 0.019792651
C  C173  1  0.58190000  0.89390000  0.33820000  1.0 -0.0494137541
C  C174  1  0.58890000  0.88540000  0.26770000  1.0 -0.0602609555
C  C175  1  0.36280000  0.14409000  0.05611000  1.0 0.4927934818
C  C176  1  0.39460000  0.08460000  0.93410000  1.0 0.5391756863
C  C177  1  0.32636000  0.15508000  0.08144000  1.0 -0.0809989524
C  C178  1  0.37117000  0.05336000  0.88794000  1.0 -0.0190747126
C  C179  1  0.29915000  0.11912000  0.09571000  1.0 -0.1283023824
C  C180  1  0.32438000  0.20148000  0.09804000  1.0 0.019792651
C  C181  1  0.38599000  0.01155000  0.87596000  1.0 -0.1117265225
C  C182  1  0.33533000  0.06456000  0.85762000  1.0 -0.0887485544
C  C183  1  0.26996000  0.12956000  0.12658000  1.0 -0.0269384822
C  C184  1  0.29515000  0.21185000  0.12890000  1.0 -0.0602609555
C  C185  1  0.36498000  0.98094000  0.83368000  1.0 -0.1692308026
C  C186  1  0.31433000  0.03396000  0.81535000  1.0 -0.158709341
C  C187  1  0.26794000  0.17592000  0.14314000  1.0 0.019792651
C  C188  1  0.32915000  0.99215000  0.80337000  1.0 0.0776430757
C  C189  1  0.22926000  0.18484000  0.16720000  1.0 0.0518126155
C  C190  1  0.30714000  0.95771000  0.75773000  1.0 0.0890149976
C  C191  1  0.21980000  0.15980000  0.20140000  1.0 -0.0887485544
C  C192  1  0.30759000  0.91049000  0.75596000  1.0 -0.1917962432
C  C193  1  0.28814000  0.97251000  0.71783000  1.0 -0.2263382364
C  C194  1  0.28903000  0.87809000  0.71428000  1.0 0.1011700658
C  C195  1  0.26957000  0.94010000  0.67614000  1.0 0.1011700658
C  C196  1  0.27003000  0.89290000  0.67437000  1.0 -0.1917962432
C  C197  1  0.29356000  0.82739000  0.71305000  1.0 0.0694278972
C  C198  1  0.24587000  0.95688000  0.63326000  1.0 0.0890149976
C  C199  1  0.32960000  0.81561000  0.74258000  1.0 -0.158709341
C  C200  1  0.25833000  0.79234000  0.68385000  1.0 -0.1534490331
C  C201  1  0.21710000  0.98920000  0.63910000  1.0 -0.1384876835
C  C202  1  0.25210000  0.93890000  0.58870000  1.0 -0.1692308026
C  C203  1  0.33043000  0.76880000  0.74293000  1.0 -0.0981618377
C  C204  1  0.25916000  0.74552000  0.68421000  1.0 -0.0887485544
C  C205  1  0.19470000  0.00360000  0.60030000  1.0 -0.0887485544
C  C206  1  0.22970000  0.95320000  0.55000000  1.0 -0.0887485544
C  C207  1  0.29521000  0.73375000  0.71375000  1.0 0.0103657599
C  C208  1  0.20100000  0.98540000  0.55580000  1.0 0.0015030927
C  C209  1  0.30150000  0.68400000  0.71950000  1.0 0.5081800756
C  C210  1  0.17190000  0.99780000  0.51280000  1.0 0.5391756863
C  C211  1  0.23331000  0.51491000  0.68831000  1.0 0.4927934818
C  C212  1  0.36000000  0.57970000  0.66810000  1.0 0.5391756863
C  C213  1  0.19602000  0.47198000  0.66695000  1.0 0.0015030927
C  C214  1  0.39691000  0.57226000  0.64007000  1.0 -0.0016354729
C  C215  1  0.20576000  0.42795000  0.66950000  1.0 -0.1534490331
C  C216  1  0.15149000  0.47599000  0.64609000  1.0 -0.0016354729
C  C217  1  0.39281000  0.57650000  0.59349000  1.0 -0.0887485544
C  C218  1  0.43772000  0.56242000  0.66376000  1.0 -0.0887485544
C  C219  1  0.17098000  0.38800000  0.65111000  1.0 -0.1805807489
C  C220  1  0.11674000  0.43604000  0.62764000  1.0 -0.0190747126
C  C221  1  0.42952000  0.57090000  0.57063000  1.0 -0.1534490331
C  C222  1  0.47443000  0.55683000  0.64089000  1.0 -0.1534490331
C  C223  1  0.12645000  0.39207000  0.63016000  1.0 0.0518126155
C  C224  1  0.47032000  0.56107000  0.59432000  1.0 0.0694278972
C  C225  1  0.08779000  0.34818000  0.61200000  1.0 0.0776430757
C  C226  1  0.50844000  0.55159000  0.56868000  1.0 0.0890149976
C  C227  1  0.04154000  0.34734000  0.61619000  1.0 -0.3011570934
C  C228  1  0.10004000  0.30861000  0.58859000  1.0 -0.214553114
C  C229  1  0.51850000  0.57590000  0.53380000  1.0 -0.1993875119
C  C230  1  0.00752000  0.30694000  0.59695000  1.0 0.0776430757
C  C231  1  0.06604000  0.26820000  0.56937000  1.0 0.0776430757
C  C232  1  0.01978000  0.26738000  0.57355000  1.0 -0.3011570934
C  C233  1  0.95930000  0.30470000  0.60550000  1.0 0.0276367842
C  C234  1  0.07950000  0.22580000  0.54470000  1.0 0.0694278972
C  C235  1  0.92990000  0.26570000  0.61240000  1.0 -0.0717260883
C  C236  1  0.93650000  0.34220000  0.60610000  1.0 -0.0809989524
C  C237  1  0.04410000  0.19040000  0.51590000  1.0 -0.0407421187
C  C238  1  0.12570000  0.22370000  0.54260000  1.0 -0.1692308026
C  C239  1  0.88140000  0.25910000  0.61140000  1.0 -0.0494137541
C  C240  1  0.89030000  0.34120000  0.60740000  1.0 -0.0407421187
C  C241  1  0.05600000  0.14300000  0.50310000  1.0 -0.0494137541
C  C242  1  0.13560000  0.18320000  0.51680000  1.0 -0.0887485544
C  C243  1  0.86300000  0.29930000  0.61090000  1.0 0.0276367842
C  C244  1  0.10250000  0.14150000  0.50190000  1.0 -0.1283023824
C  C245  1  0.81209000  0.29811000  0.59940000  1.0 0.4308044848
C  C246  1  0.11233000  0.09723000  0.47793000  1.0 0.4482616124
C  C247  1  0.25514000  0.11916000  0.10650000  1.0 -0.0494137541
C  C248  1  0.24780000  0.16350000  0.12380000  1.0 0.0276367842
C  C249  1  0.27470000  0.20130000  0.11190000  1.0 -0.0602609555
C  C250  1  0.30550000  0.19390000  0.08190000  1.0 0.019792651
C  C251  1  0.20920000  0.16730000  0.14930000  1.0 0.0386450927
C  C252  1  0.20220000  0.14380000  0.18520000  1.0 -0.0717260883
C  C253  1  0.14880000  0.47140000  0.66630000  1.0 -0.0269384822
C  C254  1  0.11260000  0.43230000  0.64950000  1.0 -0.0407421187
C  C255  1  0.95740000  0.30950000  0.58700000  1.0 0.0386450927
C  C256  1  0.93140000  0.26700000  0.59100000  1.0 -0.0602609555
C  C257  1  0.94140000  0.34990000  0.58030000  1.0 -0.0809989524
C  C258  1  0.05270000  0.18070000  0.53740000  1.0 -0.0602609555
C  C259  1  0.86050000  0.30360000  0.59080000  1.0 0.019792651
C  C260  1  0.89390000  0.33820000  0.58190000  1.0 -0.0494137541
C  C261  1  0.88540000  0.26770000  0.58890000  1.0 -0.0602609555
C  C262  1  0.85591000  0.94389000  0.63720000  1.0 0.4927934818
C  C263  1  0.91540000  0.06590000  0.60540000  1.0 0.5391756863
C  C264  1  0.84492000  0.91856000  0.67364000  1.0 -0.0717260883
C  C265  1  0.94664000  0.11206000  0.62883000  1.0 -0.0190747126
C  C266  1  0.88088000  0.90429000  0.70085000  1.0 -0.1283023824
C  C267  1  0.79852000  0.90196000  0.67562000  1.0 0.019792651
C  C268  1  0.98845000  0.12404000  0.61401000  1.0 -0.1117265225
C  C269  1  0.93544000  0.14238000  0.66467000  1.0 -0.0887485544
C  C270  1  0.87044000  0.87342000  0.73004000  1.0 -0.0269384822
C  C271  1  0.78815000  0.87110000  0.70485000  1.0 -0.0602609555
C  C272  1  0.01906000  0.16632000  0.63502000  1.0 -0.1692308026
C  C273  1  0.96604000  0.18465000  0.68567000  1.0 -0.158709341
C  C274  1  0.82408000  0.85686000  0.73206000  1.0 0.019792651
C  C275  1  0.00785000  0.19663000  0.67085000  1.0 0.0776430757
C  C276  1  0.81516000  0.83280000  0.77074000  1.0 0.0518126155
C  C277  1  0.04229000  0.24227000  0.69286000  1.0 0.0890149976
C  C278  1  0.84020000  0.79860000  0.78020000  1.0 -0.0887485544
C  C279  1  0.08951000  0.24404000  0.69241000  1.0 -0.1917962432
C  C280  1  0.02749000  0.28217000  0.71186000  1.0 -0.2263382364
C  C281  1  0.12191000  0.28572000  0.71097000  1.0 0.1011700658
C  C282  1  0.05990000  0.32386000  0.73043000  1.0 0.1011700658
C  C283  1  0.10710000  0.32563000  0.72997000  1.0 -0.1917962432
C  C284  1  0.17261000  0.28695000  0.70644000  1.0 0.0694278972
C  C285  1  0.04312000  0.36674000  0.75413000  1.0 0.0890149976
C  C286  1  0.18439000  0.25742000  0.67040000  1.0 -0.158709341
C  C287  1  0.20766000  0.31615000  0.74167000  1.0 -0.1534490331
C  C288  1  0.01080000  0.36090000  0.78290000  1.0 -0.1384876835
C  C289  1  0.06110000  0.41130000  0.74790000  1.0 -0.1692308026
C  C290  1  0.23120000  0.25707000  0.66957000  1.0 -0.0981618377
C  C291  1  0.25448000  0.31579000  0.74084000  1.0 -0.0887485544
C  C292  1  0.99640000  0.39970000  0.80530000  1.0 -0.0887485544
C  C293  1  0.04680000  0.45000000  0.77030000  1.0 -0.0887485544
C  C294  1  0.26625000  0.28625000  0.70479000  1.0 0.0103657599
C  C295  1  0.01460000  0.44420000  0.79900000  1.0 0.0015030927
C  C296  1  0.31600000  0.28050000  0.69850000  1.0 0.5081800756
C  C297  1  0.00220000  0.48720000  0.82810000  1.0 0.5391756863
C  C298  1  0.48509000  0.31169000  0.76669000  1.0 0.4927934818
C  C299  1  0.42030000  0.33190000  0.64000000  1.0 0.5391756863
C  C300  1  0.52802000  0.33305000  0.80398000  1.0 0.0015030927
C  C301  1  0.42774000  0.35993000  0.60309000  1.0 -0.0016354729
C  C302  1  0.57205000  0.33050000  0.79424000  1.0 -0.1534490331
C  C303  1  0.52401000  0.35391000  0.84851000  1.0 -0.0016354729
C  C304  1  0.42350000  0.40651000  0.60719000  1.0 -0.0887485544
C  C305  1  0.43758000  0.33624000  0.56228000  1.0 -0.0887485544
C  C306  1  0.61200000  0.34889000  0.82902000  1.0 -0.1805807489
C  C307  1  0.56396000  0.37236000  0.88326000  1.0 -0.0190747126
C  C308  1  0.42910000  0.42937000  0.57048000  1.0 -0.1534490331
C  C309  1  0.44317000  0.35911000  0.52557000  1.0 -0.1534490331
C  C310  1  0.60793000  0.36984000  0.87355000  1.0 0.0518126155
C  C311  1  0.43893000  0.40568000  0.52968000  1.0 0.0694278972
C  C312  1  0.65182000  0.38800000  0.91221000  1.0 0.0776430757
C  C313  1  0.44841000  0.43132000  0.49156000  1.0 0.0890149976
C  C314  1  0.65266000  0.38381000  0.95846000  1.0 -0.3011570934
C  C315  1  0.69139000  0.41141000  0.89996000  1.0 -0.214553114
C  C316  1  0.42410000  0.46620000  0.48150000  1.0 -0.1993875119
C  C317  1  0.69306000  0.40305000  0.99248000  1.0 0.0776430757
C  C318  1  0.73180000  0.43063000  0.93396000  1.0 0.0776430757
C  C319  1  0.73262000  0.42645000  0.98022000  1.0 -0.3011570934
C  C320  1  0.69530000  0.39450000  0.04070000  1.0 0.0276367842
C  C321  1  0.77420000  0.45530000  0.92050000  1.0 0.0694278972
C  C322  1  0.73430000  0.38760000  0.07010000  1.0 -0.0717260883
C  C323  1  0.65780000  0.39390000  0.06350000  1.0 -0.0809989524
C  C324  1  0.80960000  0.48410000  0.95590000  1.0 -0.0407421187
C  C325  1  0.77630000  0.45740000  0.87430000  1.0 -0.1692308026
C  C326  1  0.74090000  0.38860000  0.11860000  1.0 -0.0494137541
C  C327  1  0.65880000  0.39260000  0.10970000  1.0 -0.0407421187
C  C328  1  0.85700000  0.49690000  0.94400000  1.0 -0.0494137541
C  C329  1  0.81680000  0.48320000  0.86440000  1.0 -0.0887485544
C  C330  1  0.70070000  0.38910000  0.13700000  1.0 0.0276367842
C  C331  1  0.85850000  0.49810000  0.89750000  1.0 -0.1384876835
C  C332  1  0.70189000  0.40060000  0.18791000  1.0 0.4308044848
C  C333  1  0.90277000  0.52207000  0.88767000  1.0 0.4482616124
C  C334  1  0.88084000  0.89350000  0.74486000  1.0 -0.0494137541
C  C335  1  0.83650000  0.87620000  0.75220000  1.0 0.0276367842
C  C336  1  0.79870000  0.88810000  0.72530000  1.0 -0.0602609555
C  C337  1  0.80610000  0.91810000  0.69450000  1.0 0.019792651
C  C338  1  0.83270000  0.85070000  0.79080000  1.0 0.0386450927
C  C339  1  0.85620000  0.81480000  0.79780000  1.0 -0.0717260883
C  C340  1  0.52860000  0.33370000  0.85120000  1.0 -0.0269384822
C  C341  1  0.56770000  0.35050000  0.88740000  1.0 -0.0407421187
C  C342  1  0.69050000  0.41300000  0.04260000  1.0 0.0386450927
C  C343  1  0.73300000  0.40900000  0.06860000  1.0 -0.0602609555
C  C344  1  0.65010000  0.41970000  0.05860000  1.0 -0.0809989524
C  C345  1  0.81930000  0.46260000  0.94730000  1.0 -0.0602609555
C  C346  1  0.69640000  0.40920000  0.13950000  1.0 0.019792651
C  C347  1  0.66180000  0.41810000  0.10610000  1.0 -0.0494137541
C  C348  1  0.73230000  0.41110000  0.11460000  1.0 -0.0602609555
C  C349  1  0.94389000  0.63720000  0.85591000  1.0 0.4927934818
C  C350  1  0.06590000  0.60540000  0.91540000  1.0 0.5391756863
C  C351  1  0.91856000  0.67364000  0.84492000  1.0 -0.0809989524
C  C352  1  0.11206000  0.62883000  0.94664000  1.0 -0.0190747126
C  C353  1  0.90429000  0.70085000  0.88088000  1.0 -0.1283023824
C  C354  1  0.90196000  0.67562000  0.79852000  1.0 0.019792651
C  C355  1  0.12404000  0.61401000  0.98845000  1.0 -0.1117265225
C  C356  1  0.14238000  0.66467000  0.93544000  1.0 -0.0887485544
C  C357  1  0.87342000  0.73004000  0.87044000  1.0 -0.0269384822
C  C358  1  0.87110000  0.70485000  0.78815000  1.0 -0.0602609555
C  C359  1  0.16632000  0.63502000  0.01906000  1.0 -0.1692308026
C  C360  1  0.18465000  0.68567000  0.96604000  1.0 -0.158709341
C  C361  1  0.85686000  0.73206000  0.82408000  1.0 0.019792651
C  C362  1  0.19663000  0.67085000  0.00785000  1.0 0.0776430757
C  C363  1  0.83280000  0.77074000  0.81516000  1.0 0.0518126155
C  C364  1  0.24227000  0.69286000  0.04229000  1.0 0.0890149976
C  C365  1  0.79860000  0.78020000  0.84020000  1.0 -0.0887485544
C  C366  1  0.24404000  0.69241000  0.08951000  1.0 -0.1917962432
C  C367  1  0.28217000  0.71186000  0.02749000  1.0 -0.2263382364
C  C368  1  0.28572000  0.71097000  0.12191000  1.0 0.1011700658
C  C369  1  0.32386000  0.73043000  0.05990000  1.0 0.1011700658
C  C370  1  0.32563000  0.72997000  0.10710000  1.0 -0.1917962432
C  C371  1  0.28695000  0.70644000  0.17261000  1.0 0.0694278972
C  C372  1  0.36674000  0.75413000  0.04312000  1.0 0.0890149976
C  C373  1  0.25742000  0.67040000  0.18439000  1.0 -0.158709341
C  C374  1  0.31615000  0.74167000  0.20766000  1.0 -0.1534490331
C  C375  1  0.36090000  0.78290000  0.01080000  1.0 -0.1384876835
C  C376  1  0.41130000  0.74790000  0.06110000  1.0 -0.1692308026
C  C377  1  0.25707000  0.66957000  0.23120000  1.0 -0.0981618377
C  C378  1  0.31579000  0.74084000  0.25448000  1.0 -0.0887485544
C  C379  1  0.39970000  0.80530000  0.99640000  1.0 -0.0887485544
C  C380  1  0.45000000  0.77030000  0.04680000  1.0 -0.0887485544
C  C381  1  0.28625000  0.70479000  0.26625000  1.0 0.0103657599
C  C382  1  0.44420000  0.79900000  0.01460000  1.0 0.0015030927
C  C383  1  0.28050000  0.69850000  0.31600000  1.0 0.5081800756
C  C384  1  0.48720000  0.82810000  0.00220000  1.0 0.5391756863
C  C385  1  0.31169000  0.76669000  0.48509000  1.0 0.4927934818
C  C386  1  0.33190000  0.64000000  0.42030000  1.0 0.5391756863
C  C387  1  0.33305000  0.80398000  0.52802000  1.0 0.0015030927
C  C388  1  0.35993000  0.60309000  0.42774000  1.0 -0.0016354729
C  C389  1  0.33050000  0.79424000  0.57205000  1.0 -0.1534490331
C  C390  1  0.35391000  0.84851000  0.52401000  1.0 -0.0016354729
C  C391  1  0.40651000  0.60719000  0.42350000  1.0 -0.0887485544
C  C392  1  0.33624000  0.56228000  0.43758000  1.0 -0.0887485544
C  C393  1  0.34889000  0.82902000  0.61200000  1.0 -0.1805807489
C  C394  1  0.37236000  0.88326000  0.56396000  1.0 -0.0190747126
C  C395  1  0.42937000  0.57048000  0.42910000  1.0 -0.1534490331
C  C396  1  0.35911000  0.52557000  0.44317000  1.0 -0.1534490331
C  C397  1  0.36984000  0.87355000  0.60793000  1.0 0.0518126155
C  C398  1  0.40568000  0.52968000  0.43893000  1.0 0.0694278972
C  C399  1  0.38800000  0.91221000  0.65182000  1.0 0.0776430757
C  C400  1  0.43132000  0.49156000  0.44841000  1.0 0.0890149976
C  C401  1  0.38381000  0.95846000  0.65266000  1.0 -0.3011570934
C  C402  1  0.41141000  0.89996000  0.69139000  1.0 -0.214553114
C  C403  1  0.46620000  0.48150000  0.42410000  1.0 -0.1993875119
C  C404  1  0.40305000  0.99248000  0.69306000  1.0 0.0776430757
C  C405  1  0.43063000  0.93396000  0.73180000  1.0 0.0776430757
C  C406  1  0.42645000  0.98022000  0.73262000  1.0 -0.3011570934
C  C407  1  0.39450000  0.04070000  0.69530000  1.0 0.0276367842
C  C408  1  0.45530000  0.92050000  0.77420000  1.0 0.0694278972
C  C409  1  0.38760000  0.07010000  0.73430000  1.0 -0.0717260883
C  C410  1  0.39390000  0.06350000  0.65780000  1.0 -0.0809989524
C  C411  1  0.48410000  0.95590000  0.80960000  1.0 -0.0407421187
C  C412  1  0.45740000  0.87430000  0.77630000  1.0 -0.1692308026
C  C413  1  0.38860000  0.11860000  0.74090000  1.0 -0.0494137541
C  C414  1  0.39260000  0.10970000  0.65880000  1.0 -0.0407421187
C  C415  1  0.49690000  0.94400000  0.85700000  1.0 -0.0494137541
C  C416  1  0.48320000  0.86440000  0.81680000  1.0 -0.0887485544
C  C417  1  0.38910000  0.13700000  0.70070000  1.0 0.0276367842
C  C418  1  0.49810000  0.89750000  0.85850000  1.0 -0.1384876835
C  C419  1  0.40060000  0.18791000  0.70189000  1.0 0.4308044848
C  C420  1  0.52207000  0.88767000  0.90277000  1.0 0.4482616124
C  C421  1  0.89350000  0.74486000  0.88084000  1.0 -0.0494137541
C  C422  1  0.87620000  0.75220000  0.83650000  1.0 0.0276367842
C  C423  1  0.88810000  0.72530000  0.79870000  1.0 -0.0602609555
C  C424  1  0.91810000  0.69450000  0.80610000  1.0 0.019792651
C  C425  1  0.85070000  0.79080000  0.83270000  1.0 0.0386450927
C  C426  1  0.81480000  0.79780000  0.85620000  1.0 -0.0717260883
C  C427  1  0.33370000  0.85120000  0.52860000  1.0 -0.0269384822
C  C428  1  0.35050000  0.88740000  0.56770000  1.0 -0.0407421187
C  C429  1  0.41300000  0.04260000  0.69050000  1.0 0.0386450927
C  C430  1  0.40900000  0.06860000  0.73300000  1.0 -0.0602609555
C  C431  1  0.41970000  0.05860000  0.65010000  1.0 -0.0809989524
C  C432  1  0.46260000  0.94730000  0.81930000  1.0 -0.0602609555
C  C433  1  0.40920000  0.13950000  0.69640000  1.0 0.019792651
C  C434  1  0.41810000  0.10610000  0.66180000  1.0 -0.0494137541
C  C435  1  0.41110000  0.11460000  0.73230000  1.0 -0.0602609555
C  C436  1  0.63720000  0.85591000  0.94389000  1.0 0.4927934818
C  C437  1  0.60540000  0.91540000  0.06590000  1.0 0.5391756863
C  C438  1  0.67364000  0.84492000  0.91856000  1.0 -0.0809989524
C  C439  1  0.62883000  0.94664000  0.11206000  1.0 -0.0190747126
C  C440  1  0.70085000  0.88088000  0.90429000  1.0 -0.1283023824
C  C441  1  0.67562000  0.79852000  0.90196000  1.0 0.019792651
C  C442  1  0.61401000  0.98845000  0.12404000  1.0 -0.1117265225
C  C443  1  0.66467000  0.93544000  0.14238000  1.0 -0.0887485544
C  C444  1  0.73004000  0.87044000  0.87342000  1.0 -0.0269384822
C  C445  1  0.70485000  0.78815000  0.87110000  1.0 -0.0602609555
C  C446  1  0.63502000  0.01906000  0.16632000  1.0 -0.1692308026
C  C447  1  0.68567000  0.96604000  0.18465000  1.0 -0.158709341
C  C448  1  0.73206000  0.82408000  0.85686000  1.0 0.019792651
C  C449  1  0.67085000  0.00785000  0.19663000  1.0 0.0776430757
C  C450  1  0.77074000  0.81516000  0.83280000  1.0 0.0518126155
C  C451  1  0.69286000  0.04229000  0.24227000  1.0 0.0890149976
C  C452  1  0.78020000  0.84020000  0.79860000  1.0 -0.0887485544
C  C453  1  0.69241000  0.08951000  0.24404000  1.0 -0.1917962432
C  C454  1  0.71186000  0.02749000  0.28217000  1.0 -0.2263382364
C  C455  1  0.71097000  0.12191000  0.28572000  1.0 0.1011700658
C  C456  1  0.73043000  0.05990000  0.32386000  1.0 0.1011700658
C  C457  1  0.72997000  0.10710000  0.32563000  1.0 -0.1917962432
C  C458  1  0.70644000  0.17261000  0.28695000  1.0 0.0694278972
C  C459  1  0.75413000  0.04312000  0.36674000  1.0 0.0890149976
C  C460  1  0.67040000  0.18439000  0.25742000  1.0 -0.158709341
C  C461  1  0.74167000  0.20766000  0.31615000  1.0 -0.1534490331
C  C462  1  0.78290000  0.01080000  0.36090000  1.0 -0.1384876835
C  C463  1  0.74790000  0.06110000  0.41130000  1.0 -0.1692308026
C  C464  1  0.66957000  0.23120000  0.25707000  1.0 -0.0981618377
C  C465  1  0.74084000  0.25448000  0.31579000  1.0 -0.0887485544
C  C466  1  0.80530000  0.99640000  0.39970000  1.0 -0.0887485544
C  C467  1  0.77030000  0.04680000  0.45000000  1.0 -0.0887485544
C  C468  1  0.70479000  0.26625000  0.28625000  1.0 0.0103657599
C  C469  1  0.79900000  0.01460000  0.44420000  1.0 0.0015030927
C  C470  1  0.69850000  0.31600000  0.28050000  1.0 0.5081800756
C  C471  1  0.82810000  0.00220000  0.48720000  1.0 0.5391756863
C  C472  1  0.76669000  0.48509000  0.31169000  1.0 0.4927934818
C  C473  1  0.64000000  0.42030000  0.33190000  1.0 0.5391756863
C  C474  1  0.80398000  0.52802000  0.33305000  1.0 0.0015030927
C  C475  1  0.60309000  0.42774000  0.35993000  1.0 -0.0016354729
C  C476  1  0.79424000  0.57205000  0.33050000  1.0 -0.1534490331
C  C477  1  0.84851000  0.52401000  0.35391000  1.0 -0.0016354729
C  C478  1  0.60719000  0.42350000  0.40651000  1.0 -0.0887485544
C  C479  1  0.56228000  0.43758000  0.33624000  1.0 -0.0887485544
C  C480  1  0.82902000  0.61200000  0.34889000  1.0 -0.1805807489
C  C481  1  0.88326000  0.56396000  0.37236000  1.0 -0.0190747126
C  C482  1  0.57048000  0.42910000  0.42937000  1.0 -0.1534490331
C  C483  1  0.52557000  0.44317000  0.35911000  1.0 -0.1534490331
C  C484  1  0.87355000  0.60793000  0.36984000  1.0 0.0518126155
C  C485  1  0.52968000  0.43893000  0.40568000  1.0 0.0694278972
C  C486  1  0.91221000  0.65182000  0.38800000  1.0 0.0776430757
C  C487  1  0.49156000  0.44841000  0.43132000  1.0 0.0890149976
C  C488  1  0.95846000  0.65266000  0.38381000  1.0 -0.3011570934
C  C489  1  0.89996000  0.69139000  0.41141000  1.0 -0.214553114
C  C490  1  0.48150000  0.42410000  0.46620000  1.0 -0.1993875119
C  C491  1  0.99248000  0.69306000  0.40305000  1.0 0.0776430757
C  C492  1  0.93396000  0.73180000  0.43063000  1.0 0.0776430757
C  C493  1  0.98022000  0.73262000  0.42645000  1.0 -0.3011570934
C  C494  1  0.04070000  0.69530000  0.39450000  1.0 0.0276367842
C  C495  1  0.92050000  0.77420000  0.45530000  1.0 0.0694278972
C  C496  1  0.07010000  0.73430000  0.38760000  1.0 -0.0717260883
C  C497  1  0.06350000  0.65780000  0.39390000  1.0 -0.0809989524
C  C498  1  0.95590000  0.80960000  0.48410000  1.0 -0.0407421187
C  C499  1  0.87430000  0.77630000  0.45740000  1.0 -0.1692308026
C  C500  1  0.11860000  0.74090000  0.38860000  1.0 -0.0494137541
C  C501  1  0.10970000  0.65880000  0.39260000  1.0 -0.0407421187
C  C502  1  0.94400000  0.85700000  0.49690000  1.0 -0.0494137541
C  C503  1  0.86440000  0.81680000  0.48320000  1.0 -0.0887485544
C  C504  1  0.13700000  0.70070000  0.38910000  1.0 0.0276367842
C  C505  1  0.89750000  0.85850000  0.49810000  1.0 -0.1384876835
C  C506  1  0.18791000  0.70189000  0.40060000  1.0 0.4308044848
C  C507  1  0.88767000  0.90277000  0.52207000  1.0 0.4482616124
C  C508  1  0.74486000  0.88084000  0.89350000  1.0 -0.0494137541
C  C509  1  0.75220000  0.83650000  0.87620000  1.0 0.0276367842
C  C510  1  0.72530000  0.79870000  0.88810000  1.0 -0.0602609555
C  C511  1  0.69450000  0.80610000  0.91810000  1.0 0.019792651
C  C512  1  0.79080000  0.83270000  0.85070000  1.0 0.0386450927
C  C513  1  0.79780000  0.85620000  0.81480000  1.0 -0.0717260883
C  C514  1  0.85120000  0.52860000  0.33370000  1.0 -0.0269384822
C  C515  1  0.88740000  0.56770000  0.35050000  1.0 -0.0407421187
C  C516  1  0.04260000  0.69050000  0.41300000  1.0 0.0386450927
C  C517  1  0.06860000  0.73300000  0.40900000  1.0 -0.0602609555
C  C518  1  0.05860000  0.65010000  0.41970000  1.0 -0.0809989524
C  C519  1  0.94730000  0.81930000  0.46260000  1.0 -0.0602609555
C  C520  1  0.13950000  0.69640000  0.40920000  1.0 0.019792651
C  C521  1  0.10610000  0.66180000  0.41810000  1.0 -0.0494137541
C  C522  1  0.11460000  0.73230000  0.41110000  1.0 -0.0602609555
O  O1  1  0.17892000  0.04489000  0.38899000  1.0 -0.4995088838
O  O2  1  0.12380000  0.94536000  0.38380000  1.0 -0.5294727746
O  O3  1  0.07141000  0.96209000  0.42276000  1.0 -0.5185389631
O  O4  1  0.10561000  0.04696000  0.37218000  1.0 -0.4577782962
O  O5  1  0.15381000  0.09813000  0.47312000  1.0 -0.470014196
O  O6  1  0.07672000  0.06592000  0.45972000  1.0 -0.0407421187
O  O7  1  0.19332000  0.99688000  0.47990000  1.0 -0.5294727746
O  O8  1  0.13192000  0.00660000  0.51148000  1.0 -0.5476547691
O  O9  1  0.65256000  0.69581000  0.26375000  1.0 -0.5476547691
O  O10  1  0.67250000  0.74060000  0.33300000  1.0 -0.4876339895
O  O11  1  0.55426000  0.68295000  0.22569000  1.0 -0.470014196
O  O12  1  0.51299000  0.70926000  0.27311000  1.0 -0.4995088838
O  O13  1  0.57951000  0.71076000  0.36523000  1.0 -0.5185389631
O  O14  1  0.58595000  0.64672000  0.32131000  1.0 -0.5422020915
O  O15  1  0.60592000  0.78706000  0.26210000  1.0 -0.4799973332
O  O16  1  0.59197000  0.79410000  0.33219000  1.0 -0.4577782962
O  O17  1  0.05640000  0.47620000  0.09120000  1.0 -0.0407421187
O  O18  1  0.04489000  0.38899000  0.17892000  1.0 -0.4995088838
O  O19  1  0.94536000  0.38380000  0.12380000  1.0 -0.5294727746
O  O20  1  0.96209000  0.42276000  0.07141000  1.0 -0.5185389631
O  O21  1  0.04696000  0.37218000  0.10561000  1.0 -0.4577782962
O  O22  1  0.09813000  0.47312000  0.15381000  1.0 -0.470014196
O  O23  1  0.06592000  0.45972000  0.07672000  1.0 -0.0407421187
O  O24  1  0.99688000  0.47990000  0.19332000  1.0 -0.5294727746
O  O25  1  0.00660000  0.51148000  0.13192000  1.0 -0.5476547691
O  O26  1  0.69581000  0.26375000  0.65256000  1.0 -0.5476547691
O  O27  1  0.74060000  0.33300000  0.67250000  1.0 -0.4876339895
O  O28  1  0.68295000  0.22569000  0.55426000  1.0 -0.470014196
O  O29  1  0.70926000  0.27311000  0.51299000  1.0 -0.4995088838
O  O30  1  0.71076000  0.36523000  0.57951000  1.0 -0.5185389631
O  O31  1  0.64672000  0.32131000  0.58595000  1.0 -0.5422020915
O  O32  1  0.78706000  0.26210000  0.60592000  1.0 -0.4799973332
O  O33  1  0.79410000  0.33219000  0.59197000  1.0 -0.4542186621
O  O34  1  0.47620000  0.09120000  0.05640000  1.0 -0.0494137541
O  O35  1  0.38899000  0.17892000  0.04489000  1.0 -0.4995088838
O  O36  1  0.38380000  0.12380000  0.94536000  1.0 -0.5294727746
O  O37  1  0.42276000  0.07141000  0.96209000  1.0 -0.5185389631
O  O38  1  0.37218000  0.10561000  0.04696000  1.0 -0.4577782962
O  O39  1  0.47312000  0.15381000  0.09813000  1.0 -0.470014196
O  O40  1  0.45972000  0.07672000  0.06592000  1.0 -0.0407421187
O  O41  1  0.47990000  0.19332000  0.99688000  1.0 -0.5294727746
O  O42  1  0.51148000  0.13192000  0.00660000  1.0 -0.5476547691
O  O43  1  0.26375000  0.65256000  0.69581000  1.0 -0.5476547691
O  O44  1  0.33300000  0.67250000  0.74060000  1.0 -0.4876339895
O  O45  1  0.22569000  0.55426000  0.68295000  1.0 -0.470014196
O  O46  1  0.27311000  0.51299000  0.70926000  1.0 -0.4995088838
O  O47  1  0.36523000  0.57951000  0.71076000  1.0 -0.5185389631
O  O48  1  0.32131000  0.58595000  0.64672000  1.0 -0.5422020915
O  O49  1  0.26210000  0.60592000  0.78706000  1.0 -0.4799973332
O  O50  1  0.33219000  0.59197000  0.79410000  1.0 -0.4577782962
O  O51  1  0.09120000  0.05640000  0.47620000  1.0 -0.0407421187
O  O52  1  0.82108000  0.95511000  0.61101000  1.0 -0.4995088838
O  O53  1  0.87620000  0.05464000  0.61620000  1.0 -0.5294727746
O  O54  1  0.92859000  0.03791000  0.57724000  1.0 -0.5185389631
O  O55  1  0.89439000  0.95304000  0.62782000  1.0 -0.4577782962
O  O56  1  0.84619000  0.90187000  0.52688000  1.0 -0.470014196
O  O57  1  0.92328000  0.93408000  0.54028000  1.0 -0.0407421187
O  O58  1  0.80668000  0.00312000  0.52010000  1.0 -0.5294727746
O  O59  1  0.86808000  0.99340000  0.48852000  1.0 -0.5476547691
O  O60  1  0.34744000  0.30419000  0.73625000  1.0 -0.5476547691
O  O61  1  0.32750000  0.25940000  0.66700000  1.0 -0.4876339895
O  O62  1  0.44574000  0.31705000  0.77431000  1.0 -0.470014196
O  O63  1  0.48701000  0.29074000  0.72689000  1.0 -0.4995088838
O  O64  1  0.42049000  0.28924000  0.63477000  1.0 -0.5185389631
O  O65  1  0.41405000  0.35328000  0.67869000  1.0 -0.5422020915
O  O66  1  0.39408000  0.21294000  0.73790000  1.0 -0.4799973332
O  O67  1  0.40803000  0.20590000  0.66781000  1.0 -0.4542186621
O  O68  1  0.94360000  0.52380000  0.90880000  1.0 -0.0494137541
O  O69  1  0.95511000  0.61101000  0.82108000  1.0 -0.4995088838
O  O70  1  0.05464000  0.61620000  0.87620000  1.0 -0.5294727746
O  O71  1  0.03791000  0.57724000  0.92859000  1.0 -0.5185389631
O  O72  1  0.95304000  0.62782000  0.89439000  1.0 -0.4577782962
O  O73  1  0.90187000  0.52688000  0.84619000  1.0 -0.470014196
O  O74  1  0.93408000  0.54028000  0.92328000  1.0 -0.0407421187
O  O75  1  0.00312000  0.52010000  0.80668000  1.0 -0.5294727746
O  O76  1  0.99340000  0.48852000  0.86808000  1.0 -0.5476547691
O  O77  1  0.30419000  0.73625000  0.34744000  1.0 -0.5476547691
O  O78  1  0.25940000  0.66700000  0.32750000  1.0 -0.4876339895
O  O79  1  0.31705000  0.77431000  0.44574000  1.0 -0.470014196
O  O80  1  0.29074000  0.72689000  0.48701000  1.0 -0.4995088838
O  O81  1  0.28924000  0.63477000  0.42049000  1.0 -0.5185389631
O  O82  1  0.35328000  0.67869000  0.41405000  1.0 -0.5422020915
O  O83  1  0.21294000  0.73790000  0.39408000  1.0 -0.4799973332
O  O84  1  0.20590000  0.66781000  0.40803000  1.0 -0.4577782962
O  O85  1  0.52380000  0.90880000  0.94360000  1.0 -0.0494137541
O  O86  1  0.61101000  0.82108000  0.95511000  1.0 -0.4995088838
O  O87  1  0.61620000  0.87620000  0.05464000  1.0 -0.5294727746
O  O88  1  0.57724000  0.92859000  0.03791000  1.0 -0.5185389631
O  O89  1  0.62782000  0.89439000  0.95304000  1.0 -0.4577782962
O  O90  1  0.52688000  0.84619000  0.90187000  1.0 -0.470014196
O  O91  1  0.54028000  0.92328000  0.93408000  1.0 -0.0407421187
O  O92  1  0.52010000  0.80668000  0.00312000  1.0 -0.5294727746
O  O93  1  0.48852000  0.86808000  0.99340000  1.0 -0.5476547691
O  O94  1  0.73625000  0.34744000  0.30419000  1.0 -0.5476547691
O  O95  1  0.66700000  0.32750000  0.25940000  1.0 -0.4876339895
O  O96  1  0.77431000  0.44574000  0.31705000  1.0 -0.470014196
O  O97  1  0.72689000  0.48701000  0.29074000  1.0 -0.4995088838
O  O98  1  0.63477000  0.42049000  0.28924000  1.0 -0.5185389631
O  O99  1  0.67869000  0.41405000  0.35328000  1.0 -0.5422020915
O  O100  1  0.73790000  0.39408000  0.21294000  1.0 -0.4799973332
O  O101  1  0.66781000  0.40803000  0.20590000  1.0 -0.4577782962
O  O102  1  0.90880000  0.94360000  0.52380000  1.0 -0.0494137541
