# DDEC6 charges by PACMAN v1.1 (https://github.com/mtap-research/PACMAN-charge/)
data_KABSIT_FSR_pacman
_symmetry_space_group_name_H-M   'P 1'
_cell_length_a   15.71700000
_cell_length_b   15.71700000
_cell_length_c   15.71700000
_cell_angle_alpha   113.09700000
_cell_angle_beta   113.09700000
_cell_angle_gamma   102.44100000
_symmetry_Int_Tables_number   1
_chemical_formula_structural   Ag7H72C44S4N4(O2F5)2
_chemical_formula_sum   'Ag14 H144 C88 S8 N8 O8 F20'
_cell_volume   2955.53280205
_cell_formula_units_Z   2
loop_
 _symmetry_equiv_pos_site_id
 _symmetry_equiv_pos_as_xyz
  1  'x, y, z'
loop_
 _atom_site_type_symbol
 _atom_site_label
 _atom_site_symmetry_multiplicity
 _atom_site_fract_x
 _atom_site_fract_y
 _atom_site_fract_z
 _atom_site_occupancy
 _atom_site_charge
Ag  Ag1  1  0.85540000  0.98943000  0.18871000  1.0 0.3471451235
Ag  Ag2  1  0.80072000  0.66666667  0.81129000  1.0 0.3471451235
Ag  Ag3  1  0.01057000  0.19928000  0.86597000  1.0 0.3471451235
Ag  Ag4  1  0.33333333  0.14460000  0.13403000  1.0 0.3471451235
Ag  Ag5  1  0.19928000  0.01057000  0.86597000  1.0 0.3471451235
Ag  Ag6  1  0.14460000  0.33333333  0.13403000  1.0 0.3471451235
Ag  Ag7  1  0.66666667  0.80072000  0.81129000  1.0 0.3471451235
Ag  Ag8  1  0.98943000  0.85540000  0.18871000  1.0 0.3471451235
Ag  Ag9  1  0.78970000  0.78970000  0.00000000  1.0 0.1603964152
Ag  Ag10  1  0.21030000  0.21030000  0.00000000  1.0 0.1603964152
Ag  Ag11  1  0.00000000  0.08401000  0.08401000  1.0 0.1005043865
Ag  Ag12  1  0.00000000  0.91599000  0.91599000  1.0 0.1005043865
Ag  Ag13  1  0.91599000  0.00000000  0.91599000  1.0 0.1005043865
Ag  Ag14  1  0.08401000  0.00000000  0.08401000  1.0 0.1005043865
H  H1  1  0.61990000  0.89670000  0.15980000  1.0 0.1386299972
H  H2  1  0.52070000  0.90020000  0.08550000  1.0 0.1289024566
H  H3  1  0.62920000  0.97630000  0.12350000  1.0 0.1289024566
H  H4  1  0.28880000  0.18300000  0.42180000  1.0 0.1289024566
H  H5  1  0.23890000  0.13800000  0.29630000  1.0 0.1289024566
H  H6  1  0.22900000  0.06380000  0.33920000  1.0 0.1289024566
H  H7  1  0.90890000  0.11200000  0.43590000  1.0 0.1005043865
H  H8  1  0.91140000  0.25250000  0.56230000  1.0 0.1386299972
H  H9  1  0.78820000  0.34250000  0.26310000  1.0 0.1106405837
H  H10  1  0.77760000  0.39750000  0.36330000  1.0 0.1106405837
H  H11  1  0.68630000  0.29470000  0.25760000  1.0 0.1106405837
H  H12  1  0.77520000  0.30830000  0.32450000  1.0 0.0480819524
H  H13  1  0.17450000  0.17040000  0.49490000  1.0 0.1106405837
H  H14  1  0.11350000  0.05160000  0.41030000  1.0 0.1005043865
H  H15  1  0.05510000  0.12100000  0.41550000  1.0 0.1005043865
H  H16  1  0.55310000  0.67850000  0.92800000  1.0 0.0480819524
H  H17  1  0.53050000  0.71360000  0.02170000  1.0 0.0600353
H  H18  1  0.64420000  0.74470000  0.05030000  1.0 0.0480819524
H  H19  1  0.73690000  0.46010000  0.84020000  1.0 0.1386299972
H  H20  1  0.81470000  0.43520000  0.91450000  1.0 0.1289024566
H  H21  1  0.85280000  0.50570000  0.87650000  1.0 0.1289024566
H  H22  1  0.76120000  0.86700000  0.57820000  1.0 0.1289024566
H  H23  1  0.84170000  0.94260000  0.70370000  1.0 0.1289024566
H  H24  1  0.72460000  0.88980000  0.66080000  1.0 0.1289024566
H  H25  1  0.67610000  0.47300000  0.56410000  1.0 0.1005043865
H  H26  1  0.69020000  0.34910000  0.43770000  1.0 0.1386299972
H  H27  1  0.07940000  0.52510000  0.73690000  1.0 0.1106405837
H  H28  1  0.03420000  0.41430000  0.63670000  1.0 0.1106405837
H  H29  1  0.03710000  0.42870000  0.74240000  1.0 0.1106405837
H  H30  1  0.98380000  0.45070000  0.67550000  1.0 0.0480819524
H  H31  1  0.67550000  0.67960000  0.50510000  1.0 0.1106405837
H  H32  1  0.64130000  0.70320000  0.58970000  1.0 0.1005043865
H  H33  1  0.70550000  0.63960000  0.58450000  1.0 0.1005043865
H  H34  1  0.75050000  0.62510000  0.07200000  1.0 0.0480819524
H  H35  1  0.69190000  0.50880000  0.97830000  1.0 0.0600353
H  H36  1  0.69440000  0.59390000  0.94970000  1.0 0.0480819524
H  H37  1  0.10330000  0.26310000  0.72320000  1.0 0.1386299972
H  H38  1  0.09980000  0.18530000  0.62050000  1.0 0.1289024566
H  H39  1  0.02370000  0.14720000  0.65290000  1.0 0.1289024566
H  H40  1  0.81700000  0.23880000  0.10580000  1.0 0.1289024566
H  H41  1  0.86200000  0.15830000  0.10090000  1.0 0.1289024566
H  H42  1  0.93620000  0.27540000  0.16520000  1.0 0.1289024566
H  H43  1  0.88800000  0.32390000  0.79690000  1.0 0.1005043865
H  H44  1  0.74750000  0.30980000  0.65890000  1.0 0.1386299972
H  H45  1  0.65750000  0.92060000  0.44570000  1.0 0.1106405837
H  H46  1  0.60250000  0.96580000  0.38010000  1.0 0.1106405837
H  H47  1  0.70530000  0.96290000  0.39160000  1.0 0.1106405837
H  H48  1  0.69170000  0.01620000  0.46690000  1.0 0.0480819524
H  H49  1  0.82960000  0.32450000  0.00410000  1.0 0.1106405837
H  H50  1  0.94840000  0.35870000  0.06190000  1.0 0.1005043865
H  H51  1  0.87900000  0.29450000  0.93410000  1.0 0.1005043865
H  H52  1  0.32150000  0.24950000  0.87460000  1.0 0.0480819524
H  H53  1  0.28640000  0.30810000  0.81690000  1.0 0.0600353
H  H54  1  0.25530000  0.30560000  0.89950000  1.0 0.0480819524
H  H55  1  0.53990000  0.38010000  0.27680000  1.0 0.1386299972
H  H56  1  0.56480000  0.47930000  0.37950000  1.0 0.1289024566
H  H57  1  0.49430000  0.37080000  0.34710000  1.0 0.1289024566
H  H58  1  0.13300000  0.71120000  0.89420000  1.0 0.1289024566
H  H59  1  0.05740000  0.76110000  0.89910000  1.0 0.1289024566
H  H60  1  0.11020000  0.77100000  0.83480000  1.0 0.1289024566
H  H61  1  0.52700000  0.09110000  0.20310000  1.0 0.1005043865
H  H62  1  0.65090000  0.08860000  0.34110000  1.0 0.1386299972
H  H63  1  0.47490000  0.21180000  0.55430000  1.0 0.1106405837
H  H64  1  0.58570000  0.22240000  0.61990000  1.0 0.1106405837
H  H65  1  0.57130000  0.31370000  0.60840000  1.0 0.1106405837
H  H66  1  0.54930000  0.22480000  0.53310000  1.0 0.0480819524
H  H67  1  0.32040000  0.82550000  0.99590000  1.0 0.1106405837
H  H68  1  0.29680000  0.88650000  0.93810000  1.0 0.1005043865
H  H69  1  0.36040000  0.94490000  0.06590000  1.0 0.1005043865
H  H70  1  0.37490000  0.44690000  0.12540000  1.0 0.0480819524
H  H71  1  0.49120000  0.46950000  0.18310000  1.0 0.0600353
H  H72  1  0.40610000  0.35580000  0.10050000  1.0 0.0480819524
H  H73  1  0.26310000  0.10330000  0.72320000  1.0 0.1386299972
H  H74  1  0.18530000  0.09980000  0.62050000  1.0 0.1289024566
H  H75  1  0.14720000  0.02370000  0.65290000  1.0 0.1289024566
H  H76  1  0.23880000  0.81700000  0.10580000  1.0 0.1289024566
H  H77  1  0.15830000  0.86200000  0.10090000  1.0 0.1289024566
H  H78  1  0.27540000  0.93620000  0.16520000  1.0 0.1289024566
H  H79  1  0.32390000  0.88800000  0.79690000  1.0 0.1005043865
H  H80  1  0.30980000  0.74750000  0.65890000  1.0 0.1386299972
H  H81  1  0.92060000  0.65750000  0.44570000  1.0 0.1106405837
H  H82  1  0.96580000  0.60250000  0.38010000  1.0 0.1106405837
H  H83  1  0.96290000  0.70530000  0.39160000  1.0 0.1106405837
H  H84  1  0.01620000  0.69170000  0.46690000  1.0 0.0480819524
H  H85  1  0.32450000  0.82960000  0.00410000  1.0 0.1106405837
H  H86  1  0.35870000  0.94840000  0.06190000  1.0 0.1005043865
H  H87  1  0.29450000  0.87900000  0.93410000  1.0 0.1005043865
H  H88  1  0.24950000  0.32150000  0.87460000  1.0 0.0480819524
H  H89  1  0.30810000  0.28640000  0.81690000  1.0 0.0600353
H  H90  1  0.30560000  0.25530000  0.89950000  1.0 0.0480819524
H  H91  1  0.38010000  0.53990000  0.27680000  1.0 0.1386299972
H  H92  1  0.47930000  0.56480000  0.37950000  1.0 0.1289024566
H  H93  1  0.37080000  0.49430000  0.34710000  1.0 0.1289024566
H  H94  1  0.71120000  0.13300000  0.89420000  1.0 0.1289024566
H  H95  1  0.76110000  0.05740000  0.89910000  1.0 0.1289024566
H  H96  1  0.77100000  0.11020000  0.83480000  1.0 0.1289024566
H  H97  1  0.09110000  0.52700000  0.20310000  1.0 0.1005043865
H  H98  1  0.08860000  0.65090000  0.34110000  1.0 0.1386299972
H  H99  1  0.21180000  0.47490000  0.55430000  1.0 0.1106405837
H  H100  1  0.22240000  0.58570000  0.61990000  1.0 0.1106405837
H  H101  1  0.31370000  0.57130000  0.60840000  1.0 0.1106405837
H  H102  1  0.22480000  0.54930000  0.53310000  1.0 0.0480819524
H  H103  1  0.82550000  0.32040000  0.99590000  1.0 0.1106405837
H  H104  1  0.88650000  0.29680000  0.93810000  1.0 0.1005043865
H  H105  1  0.94490000  0.36040000  0.06590000  1.0 0.1005043865
H  H106  1  0.44690000  0.37490000  0.12540000  1.0 0.0480819524
H  H107  1  0.46950000  0.49120000  0.18310000  1.0 0.0600353
H  H108  1  0.35580000  0.40610000  0.10050000  1.0 0.0480819524
H  H109  1  0.46010000  0.73690000  0.84020000  1.0 0.1386299972
H  H110  1  0.43520000  0.81470000  0.91450000  1.0 0.1289024566
H  H111  1  0.50570000  0.85280000  0.87650000  1.0 0.1289024566
H  H112  1  0.86700000  0.76120000  0.57820000  1.0 0.1289024566
H  H113  1  0.94260000  0.84170000  0.70370000  1.0 0.1289024566
H  H114  1  0.88980000  0.72460000  0.66080000  1.0 0.1289024566
H  H115  1  0.47300000  0.67610000  0.56410000  1.0 0.1005043865
H  H116  1  0.34910000  0.69020000  0.43770000  1.0 0.1386299972
H  H117  1  0.52510000  0.07940000  0.73690000  1.0 0.1106405837
H  H118  1  0.41430000  0.03420000  0.63670000  1.0 0.1106405837
H  H119  1  0.42870000  0.03710000  0.74240000  1.0 0.1106405837
H  H120  1  0.45070000  0.98380000  0.67550000  1.0 0.0480819524
H  H121  1  0.67960000  0.67550000  0.50510000  1.0 0.1106405837
H  H122  1  0.70320000  0.64130000  0.58970000  1.0 0.1005043865
H  H123  1  0.63960000  0.70550000  0.58450000  1.0 0.1005043865
H  H124  1  0.62510000  0.75050000  0.07200000  1.0 0.0480819524
H  H125  1  0.50880000  0.69190000  0.97830000  1.0 0.0600353
H  H126  1  0.59390000  0.69440000  0.94970000  1.0 0.0480819524
H  H127  1  0.89670000  0.61990000  0.15980000  1.0 0.1386299972
H  H128  1  0.90020000  0.52070000  0.08550000  1.0 0.1289024566
H  H129  1  0.97630000  0.62920000  0.12350000  1.0 0.1289024566
H  H130  1  0.18300000  0.28880000  0.42180000  1.0 0.1289024566
H  H131  1  0.13800000  0.23890000  0.29630000  1.0 0.1289024566
H  H132  1  0.06380000  0.22900000  0.33920000  1.0 0.1289024566
H  H133  1  0.11200000  0.90890000  0.43590000  1.0 0.1005043865
H  H134  1  0.25250000  0.91140000  0.56230000  1.0 0.1386299972
H  H135  1  0.34250000  0.78820000  0.26310000  1.0 0.1106405837
H  H136  1  0.39750000  0.77760000  0.36330000  1.0 0.1106405837
H  H137  1  0.29470000  0.68630000  0.25760000  1.0 0.1106405837
H  H138  1  0.30830000  0.77520000  0.32450000  1.0 0.0480819524
H  H139  1  0.17040000  0.17450000  0.49490000  1.0 0.1106405837
H  H140  1  0.05160000  0.11350000  0.41030000  1.0 0.1005043865
H  H141  1  0.12100000  0.05510000  0.41550000  1.0 0.1005043865
H  H142  1  0.67850000  0.55310000  0.92800000  1.0 0.0480819524
H  H143  1  0.71360000  0.53050000  0.02170000  1.0 0.0600353
H  H144  1  0.74470000  0.64420000  0.05030000  1.0 0.0480819524
C  C1  1  0.58840000  0.90800000  0.10160000  1.0 -0.5092081818
C  C2  1  0.23140000  0.12910000  0.35050000  1.0 -0.490340324
C  C3  1  0.88270000  0.15280000  0.41470000  1.0 0.0600353
C  C4  1  0.88420000  0.23700000  0.49100000  1.0 -0.2176088038
C  C5  1  0.84410000  0.29950000  0.46000000  1.0 0.0600353
C  C6  1  0.80330000  0.27080000  0.35010000  1.0 -0.0155710661
C  C7  1  0.80650000  0.18530000  0.28220000  1.0 0.0112687825
C  C8  1  0.75980000  0.33210000  0.30430000  1.0 -0.3115835058
C  C9  1  0.80640000  0.48680000  0.89840000  1.0 -0.5092081818
C  C10  1  0.77860000  0.88090000  0.64950000  1.0 -0.490340324
C  C11  1  0.73810000  0.46800000  0.58530000  1.0 0.0600353
C  C12  1  0.74600000  0.39320000  0.50900000  1.0 -0.2176088038
C  C13  1  0.83950000  0.38410000  0.54000000  1.0 0.0600353
C  C14  1  0.92070000  0.45320000  0.64990000  1.0 -0.0155710661
C  C15  1  0.90310000  0.52430000  0.71780000  1.0 0.0112687825
C  C16  1  0.02780000  0.45550000  0.69570000  1.0 -0.3115835058
C  C17  1  0.09200000  0.19360000  0.68040000  1.0 -0.5092081818
C  C18  1  0.87090000  0.22140000  0.10230000  1.0 -0.490340324
C  C19  1  0.84720000  0.26190000  0.72990000  1.0 0.0600353
C  C20  1  0.76300000  0.25400000  0.64720000  1.0 -0.2176088038
C  C21  1  0.70050000  0.16050000  0.54460000  1.0 0.0600353
C  C22  1  0.72920000  0.07930000  0.53250000  1.0 -0.0155710661
C  C23  1  0.81470000  0.09690000  0.62120000  1.0 0.0112687825
C  C24  1  0.66790000  0.97220000  0.42770000  1.0 -0.3115835058
C  C25  1  0.51320000  0.41160000  0.31960000  1.0 -0.5092081818
C  C26  1  0.11910000  0.76860000  0.89770000  1.0 -0.490340324
C  C27  1  0.53200000  0.11730000  0.27010000  1.0 0.0600353
C  C28  1  0.60680000  0.11580000  0.35280000  1.0 -0.2176088038
C  C29  1  0.61590000  0.15590000  0.45540000  1.0 0.0600353
C  C30  1  0.54680000  0.19670000  0.46750000  1.0 -0.0155710661
C  C31  1  0.47570000  0.19350000  0.37880000  1.0 0.0112687825
C  C32  1  0.54450000  0.24020000  0.57230000  1.0 -0.3115835058
C  C33  1  0.19360000  0.09200000  0.68040000  1.0 -0.5092081818
C  C34  1  0.22140000  0.87090000  0.10230000  1.0 -0.490340324
C  C35  1  0.26190000  0.84720000  0.72990000  1.0 0.0600353
C  C36  1  0.25400000  0.76300000  0.64720000  1.0 -0.2176088038
C  C37  1  0.16050000  0.70050000  0.54460000  1.0 0.0600353
C  C38  1  0.07930000  0.72920000  0.53250000  1.0 -0.0155710661
C  C39  1  0.09690000  0.81470000  0.62120000  1.0 0.0112687825
C  C40  1  0.97220000  0.66790000  0.42770000  1.0 -0.3115835058
C  C41  1  0.41160000  0.51320000  0.31960000  1.0 -0.5092081818
C  C42  1  0.76860000  0.11910000  0.89770000  1.0 -0.490340324
C  C43  1  0.11730000  0.53200000  0.27010000  1.0 0.0600353
C  C44  1  0.11580000  0.60680000  0.35280000  1.0 -0.2176088038
C  C45  1  0.15590000  0.61590000  0.45540000  1.0 0.0600353
C  C46  1  0.19670000  0.54680000  0.46750000  1.0 -0.0155710661
C  C47  1  0.19350000  0.47570000  0.37880000  1.0 0.0112687825
C  C48  1  0.24020000  0.54450000  0.57230000  1.0 -0.3115835058
C  C49  1  0.48680000  0.80640000  0.89840000  1.0 -0.5092081818
C  C50  1  0.88090000  0.77860000  0.64950000  1.0 -0.490340324
C  C51  1  0.46800000  0.73810000  0.58530000  1.0 0.0600353
C  C52  1  0.39320000  0.74600000  0.50900000  1.0 -0.2176088038
C  C53  1  0.38410000  0.83950000  0.54000000  1.0 0.0600353
C  C54  1  0.45320000  0.92070000  0.64990000  1.0 -0.0155710661
C  C55  1  0.52430000  0.90310000  0.71780000  1.0 0.0112687825
C  C56  1  0.45550000  0.02780000  0.69570000  1.0 -0.3115835058
C  C57  1  0.90800000  0.58840000  0.10160000  1.0 -0.5092081818
C  C58  1  0.12910000  0.23140000  0.35050000  1.0 -0.490340324
C  C59  1  0.15280000  0.88270000  0.41470000  1.0 0.0600353
C  C60  1  0.23700000  0.88420000  0.49100000  1.0 -0.2176088038
C  C61  1  0.29950000  0.84410000  0.46000000  1.0 0.0600353
C  C62  1  0.27080000  0.80330000  0.35010000  1.0 -0.0155710661
C  C63  1  0.18530000  0.80650000  0.28220000  1.0 0.0112687825
C  C64  1  0.33210000  0.75980000  0.30430000  1.0 -0.3115835058
C  C65  1  0.58150000  0.82970000  0.00000000  1.0 0.3160588128
C  C66  1  0.57680000  0.73280000  0.00000000  1.0 -0.3629694524
C  C67  1  0.82970000  0.58150000  0.00000000  1.0 0.3160588128
C  C68  1  0.73280000  0.57680000  0.00000000  1.0 -0.3629694524
C  C69  1  0.17030000  0.17030000  0.75180000  1.0 0.3160588128
C  C70  1  0.26720000  0.26720000  0.84400000  1.0 -0.3629694524
C  C71  1  0.41850000  0.41850000  0.24820000  1.0 0.3160588128
C  C72  1  0.42320000  0.42320000  0.15600000  1.0 -0.3629694524
C  C73  1  0.13310000  0.13310000  0.34120000  1.0 0.3160588128
C  C74  1  0.11770000  0.11770000  0.42280000  1.0 -0.4566864836
C  C75  1  0.86470000  0.86470000  0.31880000  1.0 0.1661578151
C  C76  1  0.83370000  0.83370000  0.38620000  1.0 0.4069109244
C  C77  1  0.79190000  0.79190000  0.65880000  1.0 0.3160588128
C  C78  1  0.69490000  0.69490000  0.57720000  1.0 -0.4566864836
C  C79  1  0.54590000  0.54590000  0.68120000  1.0 0.1603964152
C  C80  1  0.44750000  0.44750000  0.61380000  1.0 0.4069109244
C  C81  1  0.86690000  0.20810000  0.00000000  1.0 0.3160588128
C  C82  1  0.88230000  0.30510000  0.00000000  1.0 -0.4566864836
C  C83  1  0.13530000  0.45410000  0.00000000  1.0 0.1661578151
C  C84  1  0.16630000  0.55250000  0.00000000  1.0 0.4069109244
C  C85  1  0.20810000  0.86690000  0.00000000  1.0 0.3160588128
C  C86  1  0.30510000  0.88230000  0.00000000  1.0 -0.4566864836
C  C87  1  0.45410000  0.13530000  0.00000000  1.0 0.1661578151
C  C88  1  0.55250000  0.16630000  0.00000000  1.0 0.4069109244
S  S1  1  0.69619000  0.89441000  0.00000000  1.0 -0.3165874499
S  S2  1  0.89441000  0.69619000  0.00000000  1.0 -0.3165874499
S  S3  1  0.10559000  0.10559000  0.80178000  1.0 -0.3165874499
S  S4  1  0.30381000  0.30381000  0.19822000  1.0 -0.3165874499
S  S5  1  0.02379000  0.02379000  0.20130000  1.0 -0.2669920045
S  S6  1  0.82249000  0.82249000  0.79870000  1.0 -0.2669920045
S  S7  1  0.97621000  0.17751000  0.00000000  1.0 -0.2669920045
S  S8  1  0.17751000  0.97621000  0.00000000  1.0 -0.2669920045
N  N1  1  0.84480000  0.12820000  0.31140000  1.0 -0.2669920045
N  N2  1  0.81680000  0.53340000  0.68860000  1.0 -0.2669920045
N  N3  1  0.87180000  0.18320000  0.71660000  1.0 -0.2669920045
N  N4  1  0.46660000  0.15520000  0.28340000  1.0 -0.2669920045
N  N5  1  0.18320000  0.87180000  0.71660000  1.0 -0.2669920045
N  N6  1  0.15520000  0.46660000  0.28340000  1.0 -0.2669920045
N  N7  1  0.53340000  0.81680000  0.68860000  1.0 -0.2669920045
N  N8  1  0.12820000  0.84480000  0.31140000  1.0 -0.2669920045
O  O1  1  0.82800000  0.91940000  0.29400000  1.0 -0.4236901085
O  O2  1  0.62540000  0.53400000  0.70600000  1.0 -0.4236901085
O  O3  1  0.08060000  0.37460000  0.90860000  1.0 -0.4236901085
O  O4  1  0.46600000  0.17200000  0.09140000  1.0 -0.4236901085
O  O5  1  0.37460000  0.08060000  0.90860000  1.0 -0.4236901085
O  O6  1  0.17200000  0.46600000  0.09140000  1.0 -0.4236901085
O  O7  1  0.53400000  0.62540000  0.70600000  1.0 -0.4236901085
O  O8  1  0.91940000  0.82800000  0.29400000  1.0 -0.4236901085
F  F1  1  0.87040000  0.75640000  0.39740000  1.0 -0.0001057883
F  F2  1  0.73720000  0.78010000  0.34130000  1.0 -0.0099581105
F  F3  1  0.35900000  0.47300000  0.60260000  1.0 -0.0001057883
F  F4  1  0.43880000  0.39590000  0.65870000  1.0 -0.0099581105
F  F5  1  0.24360000  0.64100000  0.11400000  1.0 -0.0001057883
F  F6  1  0.21990000  0.56120000  0.95710000  1.0 -0.0099581105
F  F7  1  0.52700000  0.12960000  0.88600000  1.0 0.001013708
F  F8  1  0.60410000  0.26280000  0.04290000  1.0 -0.0099581105
F  F9  1  0.64100000  0.24360000  0.11400000  1.0 0.001013708
F  F10  1  0.56120000  0.21990000  0.95710000  1.0 -0.0099581105
F  F11  1  0.12960000  0.52700000  0.88600000  1.0 -0.0001057883
F  F12  1  0.26280000  0.60410000  0.04290000  1.0 -0.0099581105
F  F13  1  0.47300000  0.35900000  0.60260000  1.0 0.001013708
F  F14  1  0.39590000  0.43880000  0.65870000  1.0 -0.0099581105
F  F15  1  0.75640000  0.87040000  0.39740000  1.0 -0.0001057883
F  F16  1  0.78010000  0.73720000  0.34130000  1.0 -0.0099581105
F  F17  1  0.89440000  0.89440000  0.48680000  1.0 -0.189163925
F  F18  1  0.40760000  0.40760000  0.51320000  1.0 -0.189163925
F  F19  1  0.10560000  0.59240000  0.00000000  1.0 -0.189163925
F  F20  1  0.59240000  0.10560000  0.00000000  1.0 -0.189163925
