# DDEC6 charges by PACMAN v1.1 (https://github.com/mtap-research/PACMAN-charge/)
data_KACGED_FSR_pacman
_symmetry_space_group_name_H-M   'P 1'
_cell_length_a   18.75540000
_cell_length_b   18.75540000
_cell_length_c   29.48200000
_cell_angle_alpha   80.03210000
_cell_angle_beta   99.96790000
_cell_angle_gamma   132.26400000
_symmetry_Int_Tables_number   1
_chemical_formula_structural   Zn6H103C116I24Br2N32O5
_chemical_formula_sum   'Zn12 H206 C232 I48 Br4 N64 O10'
_cell_volume   7536.15928423
_cell_formula_units_Z   2
loop_
 _symmetry_equiv_pos_site_id
 _symmetry_equiv_pos_as_xyz
  1  'x, y, z'
loop_
 _atom_site_type_symbol
 _atom_site_label
 _atom_site_symmetry_multiplicity
 _atom_site_fract_x
 _atom_site_fract_y
 _atom_site_fract_z
 _atom_site_occupancy
 _atom_site_charge
Zn  Zn1  1  0.95751000  0.31543000  0.97234000  1.0 0.281730855
Zn  Zn2  1  0.04472000  0.77722000  0.78763000  1.0 0.4281542992
Zn  Zn3  1  0.54071000  0.70593000  0.65786000  1.0 0.3928712552
Zn  Zn4  1  0.68483000  0.03577000  0.47529000  1.0 0.2679094767
Zn  Zn5  1  0.21725000  0.94721000  0.28595000  1.0 0.24131829
Zn  Zn6  1  0.28876000  0.45626000  0.15844000  1.0 0.3318801021
Zn  Zn7  1  0.31543000  0.95751000  0.02766000  1.0 0.281730855
Zn  Zn8  1  0.77722000  0.04472000  0.21237000  1.0 0.4281542992
Zn  Zn9  1  0.70593000  0.54071000  0.34214000  1.0 0.3928712552
Zn  Zn10  1  0.03577000  0.68483000  0.52471000  1.0 0.2640470957
Zn  Zn11  1  0.94721000  0.21725000  0.71405000  1.0 0.24131829
Zn  Zn12  1  0.45626000  0.28876000  0.84156000  1.0 0.3318801021
H  H1  1  0.42610000  0.98370000  0.26530000  1.0 0.0795445026
H  H2  1  0.98370000  0.42610000  0.73470000  1.0 0.0795445026
H  H3  1  0.58970000  0.05850000  0.31560000  1.0 0.1203459307
H  H4  1  0.05850000  0.58970000  0.68440000  1.0 0.1203459307
H  H5  1  0.52610000  0.08650000  0.31850000  1.0 0.0902752226
H  H6  1  0.08650000  0.52610000  0.68150000  1.0 0.0902752226
H  H7  1  0.57700000  0.00780000  0.23650000  1.0 0.109453536
H  H8  1  0.00780000  0.57700000  0.76350000  1.0 0.109453536
H  H9  1  0.46480000  0.79600000  0.25410000  1.0 0.0795445026
H  H10  1  0.79600000  0.46480000  0.74590000  1.0 0.0795445026
H  H11  1  0.31550000  0.79970000  0.23450000  1.0 0.0902752226
H  H12  1  0.79970000  0.31550000  0.76550000  1.0 0.0902752226
H  H13  1  0.46680000  0.90740000  0.17710000  1.0 0.1295267623
H  H14  1  0.90740000  0.46680000  0.82290000  1.0 0.1295267623
H  H15  1  0.39770000  0.92530000  0.18600000  1.0 0.109453536
H  H16  1  0.92530000  0.39770000  0.81400000  1.0 0.109453536
H  H17  1  0.31010000  0.66490000  0.28600000  1.0 0.0987082585
H  H18  1  0.66490000  0.31010000  0.71400000  1.0 0.0987082585
H  H19  1  0.40720000  0.71400000  0.31870000  1.0 0.0987082585
H  H20  1  0.71400000  0.40720000  0.68130000  1.0 0.0987082585
H  H21  1  0.36190000  0.80930000  0.33530000  1.0 0.1203459307
H  H22  1  0.80930000  0.36190000  0.66470000  1.0 0.1203459307
H  H23  1  0.25710000  0.70650000  0.32560000  1.0 0.1295267623
H  H24  1  0.70650000  0.25710000  0.67440000  1.0 0.1295267623
H  H25  1  0.33070000  0.71410000  0.36580000  1.0 0.1295267623
H  H26  1  0.71410000  0.33070000  0.63420000  1.0 0.1295267623
H  H27  1  0.53740000  0.19640000  0.26160000  1.0 0.059848047
H  H28  1  0.19640000  0.53740000  0.73840000  1.0 0.059848047
H  H29  1  0.68370000  0.19110000  0.26020000  1.0 0.0902752226
H  H30  1  0.19110000  0.68370000  0.73980000  1.0 0.0902752226
H  H31  1  0.68060000  0.32980000  0.21620000  1.0 0.109453536
H  H32  1  0.32980000  0.68060000  0.78380000  1.0 0.109453536
H  H33  1  0.57520000  0.28120000  0.19240000  1.0 0.0795445026
H  H34  1  0.28120000  0.57520000  0.80760000  1.0 0.0795445026
H  H35  1  0.66410000  0.22050000  0.17870000  1.0 0.0902752226
H  H36  1  0.22050000  0.66410000  0.82130000  1.0 0.0902752226
H  H37  1  0.64590000  0.24330000  0.10730000  1.0 0.0795445026
H  H38  1  0.24330000  0.64590000  0.89270000  1.0 0.0795445026
H  H39  1  0.53680000  0.28600000  0.02540000  1.0 0.1203459307
H  H40  1  0.28600000  0.53680000  0.97460000  1.0 0.1203459307
H  H41  1  0.42430000  0.32530000  0.99730000  1.0 0.109453536
H  H42  1  0.32530000  0.42430000  0.00270000  1.0 0.109453536
H  H43  1  0.44370000  0.39850000  0.02920000  1.0 0.1295267623
H  H44  1  0.39850000  0.44370000  0.97080000  1.0 0.1295267623
H  H45  1  0.46310000  0.48510000  0.96030000  1.0 0.1452912336
H  H46  1  0.48510000  0.46310000  0.03970000  1.0 0.1388918788
H  H47  1  0.70030000  0.62150000  0.93050000  1.0 0.0795445026
H  H48  1  0.62150000  0.70030000  0.06950000  1.0 0.0706701988
H  H49  1  0.77390000  0.74730000  0.87200000  1.0 0.059848047
H  H50  1  0.74730000  0.77390000  0.12800000  1.0 0.059848047
H  H51  1  0.68380000  0.77900000  0.82350000  1.0 0.109453536
H  H52  1  0.77900000  0.68380000  0.17650000  1.0 0.109453536
H  H53  1  0.52010000  0.68490000  0.83350000  1.0 0.1203459307
H  H54  1  0.68490000  0.52010000  0.16650000  1.0 0.1203459307
H  H55  1  0.44650000  0.55910000  0.89200000  1.0 0.2458134091
H  H56  1  0.55910000  0.44650000  0.10800000  1.0 0.24131829
H  H57  1  0.58500000  0.22020000  0.23570000  1.0 0.0706701988
H  H58  1  0.22020000  0.58500000  0.76430000  1.0 0.0706701988
H  H59  1  0.69720000  0.17700000  0.27480000  1.0 0.0795445026
H  H60  1  0.17700000  0.69720000  0.72520000  1.0 0.0795445026
H  H61  1  0.61330000  0.23430000  0.16360000  1.0 0.0795445026
H  H62  1  0.23430000  0.61330000  0.83640000  1.0 0.0795445026
H  H63  1  0.69560000  0.23040000  0.17850000  1.0 0.0902752226
H  H64  1  0.23040000  0.69560000  0.82150000  1.0 0.0902752226
H  H65  1  0.79900000  0.37700000  0.17810000  1.0 0.1203459307
H  H66  1  0.37700000  0.79900000  0.82190000  1.0 0.1203459307
H  H67  1  0.75230000  0.46490000  0.15920000  1.0 0.1203459307
H  H68  1  0.46490000  0.75230000  0.84080000  1.0 0.1203459307
H  H69  1  0.54520000  0.23120000  0.08160000  1.0 0.0987082585
H  H70  1  0.23120000  0.54520000  0.91840000  1.0 0.0987082585
H  H71  1  0.50070000  0.32510000  0.97800000  1.0 0.0987082585
H  H72  1  0.32510000  0.50070000  0.02200000  1.0 0.0987082585
H  H73  1  0.46290000  0.22270000  0.00130000  1.0 0.0795445026
H  H74  1  0.22270000  0.46290000  0.99870000  1.0 0.0795445026
H  H75  1  0.31170000  0.14590000  0.99000000  1.0 0.1872999316
H  H76  1  0.14590000  0.31170000  0.01000000  1.0 0.1872999316
H  H77  1  0.15100000  0.04000000  0.96040000  1.0 0.0706701988
H  H78  1  0.04000000  0.15100000  0.03960000  1.0 0.0706701988
H  H79  1  0.99050000  0.96550000  0.96580000  1.0 0.0706701988
H  H80  1  0.96550000  0.99050000  0.03420000  1.0 0.0706701988
H  H81  1  0.95550000  0.02810000  0.01120000  1.0 0.0902752226
H  H82  1  0.02810000  0.95550000  0.98880000  1.0 0.0902752226
H  H83  1  0.08110000  0.16490000  0.05110000  1.0 0.0902752226
H  H84  1  0.16490000  0.08110000  0.94890000  1.0 0.0902752226
H  H85  1  0.24160000  0.23940000  0.04560000  1.0 0.109453536
H  H86  1  0.23940000  0.24160000  0.95440000  1.0 0.109453536
H  H87  1  0.57120000  0.66320000  0.08190000  1.0 0.0706701988
H  H88  1  0.66320000  0.57120000  0.91810000  1.0 0.0706701988
H  H89  1  0.65130000  0.66810000  0.06460000  1.0 0.0706701988
H  H90  1  0.66810000  0.65130000  0.93540000  1.0 0.0706701988
H  H91  1  0.59900000  0.77900000  0.02880000  1.0 0.109453536
H  H92  1  0.77900000  0.59900000  0.97120000  1.0 0.109453536
H  H93  1  0.63250000  0.74110000  0.00090000  1.0 0.109453536
H  H94  1  0.74110000  0.63250000  0.99910000  1.0 0.109453536
H  H95  1  0.79360000  0.86720000  0.02280000  1.0 0.0987082585
H  H96  1  0.86720000  0.79360000  0.97720000  1.0 0.0987082585
H  H97  1  0.74480000  0.90940000  0.99780000  1.0 0.109453536
H  H98  1  0.90940000  0.74480000  0.00220000  1.0 0.109453536
H  H99  1  0.84920000  0.96240000  0.07760000  1.0 0.0902752226
H  H100  1  0.96240000  0.84920000  0.92240000  1.0 0.0902752226
H  H101  1  0.77870000  0.98330000  0.05860000  1.0 0.0902752226
H  H102  1  0.98330000  0.77870000  0.94140000  1.0 0.0902752226
H  H103  1  0.73940000  0.89180000  0.13560000  1.0 0.0902752226
H  H104  1  0.89180000  0.73940000  0.86440000  1.0 0.0902752226
H  H105  1  0.64820000  0.83740000  0.09780000  1.0 0.0795445026
H  H106  1  0.83740000  0.64820000  0.90220000  1.0 0.0795445026
H  H107  1  0.69280000  0.73960000  0.14120000  1.0 0.0795445026
H  H108  1  0.73960000  0.69280000  0.85880000  1.0 0.0795445026
H  H109  1  0.77700000  0.80000000  0.10640000  1.0 0.0706701988
H  H110  1  0.80000000  0.77700000  0.89360000  1.0 0.0706701988
H  H111  1  0.82440000  0.12600000  0.02610000  1.0 0.0795445026
H  H112  1  0.66430000  0.98250000  0.02480000  1.0 0.1295267623
H  H113  1  0.61050000  0.08850000  0.90540000  1.0 0.1295267623
H  H114  1  0.77290000  0.22890000  0.91010000  1.0 0.0902752226
H  H115  1  0.05710000  0.67590000  0.87880000  1.0 0.0902752226
H  H116  1  0.17590000  0.69490000  0.93030000  1.0 0.1203459307
H  H117  1  0.37570000  0.95230000  0.86370000  1.0 0.1295267623
H  H118  1  0.25380000  0.92300000  0.81160000  1.0 0.0795445026
H  H119  1  0.19230000  0.50970000  0.08870000  1.0 0.0706701988
H  H120  1  0.22900000  0.62220000  0.02710000  1.0 0.1295267623
H  H121  1  0.50930000  0.78050000  0.07240000  1.0 0.1295267623
H  H122  1  0.46340000  0.65620000  0.12840000  1.0 0.109453536
H  H123  1  0.03150000  0.87250000  0.85280000  1.0 0.0902752226
H  H124  1  0.06400000  0.01220000  0.85960000  1.0 0.1388918788
H  H125  1  0.15540000  0.10460000  0.73190000  1.0 0.1388918788
H  H126  1  0.11750000  0.96130000  0.72790000  1.0 0.0987082585
H  H127  1  0.45270000  0.65130000  0.74520000  1.0 0.0987082585
H  H128  1  0.33960000  0.51440000  0.79140000  1.0 0.1388918788
H  H129  1  0.34320000  0.35500000  0.71640000  1.0 0.1295267623
H  H130  1  0.46090000  0.49830000  0.67380000  1.0 0.0902752226
H  H131  1  0.06620000  0.41800000  0.88670000  1.0 0.0795445026
H  H132  1  0.14120000  0.40160000  0.83670000  1.0 0.1295267623
H  H133  1  0.02420000  0.14020000  0.90370000  1.0 0.1295267623
H  H134  1  0.96090000  0.16370000  0.95350000  1.0 0.0987082585
H  H135  1  0.49620000  0.80500000  0.58440000  1.0 0.0795445026
H  H136  1  0.37980000  0.76820000  0.52410000  1.0 0.1203459307
H  H137  1  0.20730000  0.49130000  0.57680000  1.0 0.109453536
H  H138  1  0.32390000  0.53530000  0.63640000  1.0 0.0902752226
H  H139  1  0.87190000  0.17030000  0.52690000  1.0 0.0706701988
H  H140  1  0.01630000  0.33070000  0.52500000  1.0 0.1295267623
H  H141  1  0.90720000  0.38440000  0.40790000  1.0 0.1388918788
H  H142  1  0.76460000  0.22200000  0.41280000  1.0 0.0902752226
H  H143  1  0.32140000  0.93840000  0.37510000  1.0 0.0706701988
H  H144  1  0.30090000  0.82470000  0.43180000  1.0 0.109453536
H  H145  1  0.04080000  0.61800000  0.36490000  1.0 0.1295267623
H  H146  1  0.07050000  0.73930000  0.31000000  1.0 0.0902752226
H  H147  1  0.83380000  0.03840000  0.45280000  1.0 0.0902752226
H  H148  1  0.85400000  0.96480000  0.40760000  1.0 0.1388918788
H  H149  1  0.59620000  0.85720000  0.34020000  1.0 0.1388918788
H  H150  1  0.58430000  0.92850000  0.38910000  1.0 0.0902752226
H  H151  1  0.34630000  0.54650000  0.24620000  1.0 0.0795445026
H  H152  1  0.48280000  0.66080000  0.28990000  1.0 0.1388918788
H  H153  1  0.63640000  0.64720000  0.21650000  1.0 0.1388918788
H  H154  1  0.49310000  0.53210000  0.17480000  1.0 0.0987082585
H  H155  1  0.12530000  0.96110000  0.35010000  1.0 0.0706701988
H  H156  1  0.97610000  0.91470000  0.36100000  1.0 0.1388918788
H  H157  1  0.88850000  0.83530000  0.22980000  1.0 0.1388918788
H  H158  1  0.03960000  0.88320000  0.22420000  1.0 0.0795445026
H  H159  1  0.12600000  0.82440000  0.97390000  1.0 0.0795445026
H  H160  1  0.98250000  0.66430000  0.97520000  1.0 0.1295267623
H  H161  1  0.08850000  0.61050000  0.09460000  1.0 0.1295267623
H  H162  1  0.22890000  0.77290000  0.08990000  1.0 0.0902752226
H  H163  1  0.67590000  0.05710000  0.12120000  1.0 0.0902752226
H  H164  1  0.69490000  0.17590000  0.06970000  1.0 0.1203459307
H  H165  1  0.95230000  0.37570000  0.13630000  1.0 0.1295267623
H  H166  1  0.92300000  0.25380000  0.18840000  1.0 0.0795445026
H  H167  1  0.50970000  0.19230000  0.91130000  1.0 0.0706701988
H  H168  1  0.62220000  0.22900000  0.97290000  1.0 0.1295267623
H  H169  1  0.78050000  0.50930000  0.92760000  1.0 0.1295267623
H  H170  1  0.65620000  0.46340000  0.87160000  1.0 0.109453536
H  H171  1  0.87250000  0.03150000  0.14720000  1.0 0.0987082585
H  H172  1  0.01220000  0.06400000  0.14040000  1.0 0.1388918788
H  H173  1  0.10460000  0.15540000  0.26810000  1.0 0.1388918788
H  H174  1  0.96130000  0.11750000  0.27210000  1.0 0.0987082585
H  H175  1  0.65130000  0.45270000  0.25480000  1.0 0.0987082585
H  H176  1  0.51440000  0.33960000  0.20860000  1.0 0.1388918788
H  H177  1  0.35500000  0.34320000  0.28360000  1.0 0.1295267623
H  H178  1  0.49830000  0.46090000  0.32620000  1.0 0.0902752226
H  H179  1  0.41800000  0.06620000  0.11330000  1.0 0.0795445026
H  H180  1  0.40160000  0.14120000  0.16330000  1.0 0.1295267623
H  H181  1  0.14020000  0.02420000  0.09630000  1.0 0.1295267623
H  H182  1  0.16370000  0.96090000  0.04650000  1.0 0.0987082585
H  H183  1  0.80500000  0.49620000  0.41560000  1.0 0.0795445026
H  H184  1  0.76820000  0.37980000  0.47590000  1.0 0.1203459307
H  H185  1  0.49130000  0.20730000  0.42320000  1.0 0.109453536
H  H186  1  0.53530000  0.32390000  0.36360000  1.0 0.0902752226
H  H187  1  0.17030000  0.87190000  0.47310000  1.0 0.0706701988
H  H188  1  0.33070000  0.01630000  0.47500000  1.0 0.1295267623
H  H189  1  0.38440000  0.90720000  0.59210000  1.0 0.1388918788
H  H190  1  0.22200000  0.76460000  0.58720000  1.0 0.0902752226
H  H191  1  0.93840000  0.32140000  0.62490000  1.0 0.0706701988
H  H192  1  0.82470000  0.30090000  0.56820000  1.0 0.109453536
H  H193  1  0.61800000  0.04080000  0.63510000  1.0 0.1295267623
H  H194  1  0.73930000  0.07050000  0.69000000  1.0 0.0902752226
H  H195  1  0.03840000  0.83380000  0.54720000  1.0 0.0902752226
H  H196  1  0.96480000  0.85400000  0.59240000  1.0 0.1388918788
H  H197  1  0.85720000  0.59620000  0.65980000  1.0 0.1388918788
H  H198  1  0.92850000  0.58430000  0.61090000  1.0 0.0902752226
H  H199  1  0.54650000  0.34630000  0.75380000  1.0 0.0795445026
H  H200  1  0.66080000  0.48280000  0.71010000  1.0 0.1388918788
H  H201  1  0.64720000  0.63640000  0.78350000  1.0 0.1388918788
H  H202  1  0.53210000  0.49310000  0.82520000  1.0 0.0987082585
H  H203  1  0.96110000  0.12530000  0.64990000  1.0 0.0706701988
H  H204  1  0.91470000  0.97610000  0.63900000  1.0 0.1388918788
H  H205  1  0.83530000  0.88850000  0.77020000  1.0 0.1388918788
H  H206  1  0.88320000  0.03960000  0.77580000  1.0 0.0795445026
C  C1  1  0.49450000  0.02670000  0.25720000  1.0 0.1295267623
C  C2  1  0.02670000  0.49450000  0.74280000  1.0 0.1295267623
C  C3  1  0.56110000  0.08490000  0.29770000  1.0 -0.2012776207
C  C4  1  0.08490000  0.56110000  0.70230000  1.0 -0.2012776207
C  C5  1  0.50840000  0.96960000  0.24280000  1.0 0.0369209216
C  C6  1  0.96960000  0.50840000  0.75720000  1.0 0.0369209216
C  C7  1  0.42030000  0.80130000  0.26410000  1.0 0.1295267623
C  C8  1  0.80130000  0.42030000  0.73590000  1.0 0.1295267623
C  C9  1  0.36740000  0.80660000  0.22320000  1.0 -0.0394701459
C  C10  1  0.80660000  0.36740000  0.77680000  1.0 -0.0394701459
C  C11  1  0.43290000  0.90410000  0.20070000  1.0 -0.2898179843
C  C12  1  0.90410000  0.43290000  0.79930000  1.0 -0.2898179843
C  C13  1  0.36500000  0.72500000  0.30090000  1.0 -0.1808636325
C  C14  1  0.72500000  0.36500000  0.69910000  1.0 -0.1808636325
C  C15  1  0.32550000  0.74050000  0.33490000  1.0 -0.3579378182
C  C16  1  0.74050000  0.32550000  0.66510000  1.0 -0.3579378182
C  C17  1  0.57390000  0.19010000  0.24420000  1.0 0.0504477993
C  C18  1  0.19010000  0.57390000  0.75580000  1.0 0.0504477993
C  C19  1  0.63540000  0.18400000  0.27540000  1.0 -0.1215408188
C  C20  1  0.18400000  0.63540000  0.72460000  1.0 -0.1215408188
C  C21  1  0.61940000  0.26920000  0.20410000  1.0 -0.1583769433
C  C22  1  0.26920000  0.61940000  0.79590000  1.0 -0.1583769433
C  C23  1  0.63770000  0.25030000  0.16980000  1.0 -0.0310987754
C  C24  1  0.25030000  0.63770000  0.83020000  1.0 -0.0310987754
C  C25  1  0.62500000  0.26300000  0.12520000  1.0 -0.1700261215
C  C26  1  0.26300000  0.62500000  0.87480000  1.0 -0.1700261215
C  C27  1  0.58090000  0.30910000  0.09530000  1.0 0.0504477993
C  C28  1  0.30910000  0.58090000  0.90470000  1.0 0.0504477993
C  C29  1  0.54200000  0.31200000  0.05180000  1.0 0.0902752226
C  C30  1  0.31200000  0.54200000  0.94820000  1.0 0.0902752226
C  C31  1  0.47480000  0.38120000  0.01590000  1.0 -0.0394701459
C  C32  1  0.38120000  0.47480000  0.98410000  1.0 -0.0394701459
C  C33  1  0.55130000  0.46670000  0.98430000  1.0 0.1568081176
C  C34  1  0.46670000  0.55130000  0.01570000  1.0 0.1568081176
C  C35  1  0.56650000  0.57850000  0.91670000  1.0 0.0987082585
C  C36  1  0.57850000  0.56650000  0.08330000  1.0 0.0987082585
C  C37  1  0.66380000  0.63440000  0.91080000  1.0 -0.102276849
C  C38  1  0.63440000  0.66380000  0.08920000  1.0 -0.102276849
C  C39  1  0.70750000  0.70910000  0.87610000  1.0 -0.0883547529
C  C40  1  0.70910000  0.70750000  0.12390000  1.0 -0.0883547529
C  C41  1  0.65400000  0.72800000  0.84730000  1.0 -0.0694676915
C  C42  1  0.72800000  0.65400000  0.15270000  1.0 -0.0694676915
C  C43  1  0.55630000  0.67170000  0.85320000  1.0 -0.1700261215
C  C44  1  0.67170000  0.55630000  0.14680000  1.0 -0.1700261215
C  C45  1  0.51290000  0.59730000  0.88790000  1.0 -0.1700261215
C  C46  1  0.59730000  0.51290000  0.11210000  1.0 -0.1700261215
C  C47  1  0.62700000  0.20700000  0.23180000  1.0 0.0504477993
C  C48  1  0.20700000  0.62700000  0.76820000  1.0 0.0504477993
C  C49  1  0.64500000  0.17900000  0.27500000  1.0 -0.130770197
C  C50  1  0.17900000  0.64500000  0.72500000  1.0 -0.130770197
C  C51  1  0.67050000  0.25950000  0.18600000  1.0 -0.0883547529
C  C52  1  0.25950000  0.67050000  0.81400000  1.0 -0.0883547529
C  C53  1  0.73360000  0.34840000  0.17100000  1.0 -0.0603589525
C  C54  1  0.34840000  0.73360000  0.82900000  1.0 -0.0603589525
C  C55  1  0.72100000  0.40500000  0.14800000  1.0 -0.2898179843
C  C56  1  0.40500000  0.72100000  0.85200000  1.0 -0.2898179843
C  C57  1  0.65160000  0.37440000  0.09950000  1.0 0.1295267623
C  C58  1  0.37440000  0.65160000  0.90050000  1.0 0.1295267623
C  C59  1  0.57820000  0.29780000  0.07400000  1.0 0.0117391191
C  C60  1  0.29780000  0.57820000  0.92600000  1.0 0.0117391191
C  C61  1  0.48070000  0.28330000  0.00730000  1.0 -0.1808636325
C  C62  1  0.28330000  0.48070000  0.99270000  1.0 -0.1808636325
C  C63  1  0.39070000  0.25930000  0.02070000  1.0 0.1672066247
C  C64  1  0.25930000  0.39070000  0.97930000  1.0 0.1672066247
C  C65  1  0.21140000  0.14660000  0.00250000  1.0 0.109453536
C  C66  1  0.14660000  0.21140000  0.99750000  1.0 0.109453536
C  C67  1  0.13690000  0.06530000  0.97880000  1.0 -0.0603589525
C  C68  1  0.06530000  0.13690000  0.02120000  1.0 -0.0603589525
C  C69  1  0.04150000  0.02110000  0.98200000  1.0 -0.0883547529
C  C70  1  0.02110000  0.04150000  0.01800000  1.0 -0.0883547529
C  C71  1  0.02070000  0.05830000  0.00900000  1.0 -0.0883547529
C  C72  1  0.05830000  0.02070000  0.99100000  1.0 -0.0883547529
C  C73  1  0.09540000  0.13960000  0.03270000  1.0 0.0117391191
C  C74  1  0.13960000  0.09540000  0.96730000  1.0 0.0117391191
C  C75  1  0.19060000  0.18380000  0.02940000  1.0 -0.0883547529
C  C76  1  0.18380000  0.19060000  0.97060000  1.0 -0.0883547529
C  C77  1  0.63700000  0.70700000  0.07200000  1.0 0.0117391191
C  C78  1  0.70700000  0.63700000  0.92800000  1.0 0.0117391191
C  C79  1  0.64700000  0.77300000  0.02900000  1.0 -0.2012776207
C  C80  1  0.77300000  0.64700000  0.97100000  1.0 -0.208505618
C  C81  1  0.74660000  0.87340000  0.02600000  1.0 -0.1418661827
C  C82  1  0.87340000  0.74660000  0.97400000  1.0 -0.1418661827
C  C83  1  0.78200000  0.93200000  0.06700000  1.0 -0.1583769433
C  C84  1  0.93200000  0.78200000  0.93300000  1.0 -0.1583769433
C  C85  1  0.71400000  0.86000000  0.10600000  1.0 -0.208505618
C  C86  1  0.86000000  0.71400000  0.89400000  1.0 -0.208505618
C  C87  1  0.71200000  0.77600000  0.11000000  1.0 -0.0883547529
C  C88  1  0.77600000  0.71200000  0.89000000  1.0 -0.0883547529
C  C89  1  0.78030000  0.11810000  0.00140000  1.0 0.059848047
C  C90  1  0.68510000  0.03230000  0.00080000  1.0 -0.1583769433
C  C91  1  0.62110000  0.02010000  0.96500000  1.0 0.059848047
C  C92  1  0.65340000  0.09460000  0.93040000  1.0 -0.1583769433
C  C93  1  0.75030000  0.17830000  0.93380000  1.0 0.0795445026
C  C94  1  0.12310000  0.73150000  0.87500000  1.0 0.0207140857
C  C95  1  0.19350000  0.74390000  0.90630000  1.0 -0.2012776207
C  C96  1  0.28870000  0.82570000  0.90350000  1.0 0.059848047
C  C97  1  0.31090000  0.89390000  0.86720000  1.0 -0.1808636325
C  C98  1  0.23730000  0.87550000  0.83630000  1.0 0.0902752226
C  C99  1  0.25820000  0.56440000  0.08410000  1.0 0.059848047
C  C100  1  0.27940000  0.63140000  0.04740000  1.0 -0.1891439238
C  C101  1  0.37550000  0.71210000  0.04060000  1.0 0.059848047
C  C102  1  0.44330000  0.72310000  0.07330000  1.0 -0.1808636325
C  C103  1  0.41480000  0.64980000  0.10770000  1.0 0.0706701988
C  C104  1  0.51760000  0.92880000  0.96500000  1.0 0.351561228
C  C105  1  0.36340000  0.84100000  0.93800000  1.0 0.351561228
C  C106  1  0.40370000  0.78550000  0.00150000  1.0 0.3438184207
C  C107  1  0.05640000  0.92020000  0.82750000  1.0 0.0504477993
C  C108  1  0.07740000  0.00380000  0.83230000  1.0 -0.1891439238
C  C109  1  0.11890000  0.07650000  0.79660000  1.0 0.059848047
C  C110  1  0.13060000  0.05800000  0.75760000  1.0 -0.1504970562
C  C111  1  0.10650000  0.97170000  0.75540000  1.0 0.0795445026
C  C112  1  0.42940000  0.59020000  0.73920000  1.0 0.059848047
C  C113  1  0.36140000  0.50920000  0.76650000  1.0 -0.1808636325
C  C114  1  0.32570000  0.41950000  0.75660000  1.0 0.059848047
C  C115  1  0.36380000  0.41480000  0.72250000  1.0 -0.1504970562
C  C116  1  0.43360000  0.50060000  0.69720000  1.0 0.0706701988
C  C117  1  0.06010000  0.36270000  0.89090000  1.0 -0.0514003633
C  C118  1  0.10470000  0.35310000  0.86070000  1.0 -0.2898179843
C  C119  1  0.09320000  0.27140000  0.86720000  1.0 0.059848047
C  C120  1  0.03620000  0.19860000  0.90090000  1.0 -0.1504970562
C  C121  1  0.99750000  0.21230000  0.92960000  1.0 0.0369209216
C  C122  1  0.14920000  0.17180000  0.80120000  1.0 0.3828232681
C  C123  1  0.24690000  0.33110000  0.78270000  1.0 0.3605238507
C  C124  1  0.13790000  0.26210000  0.83590000  1.0 0.3438184207
C  C125  1  0.43730000  0.73990000  0.58220000  1.0 0.0902752226
C  C126  1  0.36860000  0.71860000  0.54600000  1.0 -0.1504970562
C  C127  1  0.28420000  0.62420000  0.54280000  1.0 0.0706701988
C  C128  1  0.26710000  0.55610000  0.57720000  1.0 -0.1583769433
C  C129  1  0.33700000  0.58240000  0.61220000  1.0 0.059848047
C  C130  1  0.87930000  0.21450000  0.50240000  1.0 0.0706701988
C  C131  1  0.96550000  0.31010000  0.50160000  1.0 -0.1583769433
C  C132  1  0.97590000  0.37490000  0.46610000  1.0 0.059848047
C  C133  1  0.90140000  0.34160000  0.43280000  1.0 -0.1504970562
C  C134  1  0.81650000  0.24450000  0.43570000  1.0 0.0795445026
C  C135  1  0.26390000  0.87250000  0.37330000  1.0 0.0706701988
C  C136  1  0.25270000  0.80570000  0.40710000  1.0 -0.1700261215
C  C137  1  0.16820000  0.70920000  0.40390000  1.0 0.059848047
C  C138  1  0.09880000  0.68340000  0.36750000  1.0 -0.1504970562
C  C139  1  0.11680000  0.75560000  0.33530000  1.0 0.0706701988
C  C140  1  0.20930000  0.59450000  0.50360000  1.0 0.3605238507
C  C141  1  0.06660000  0.47780000  0.46660000  1.0 0.3438184207
C  C142  1  0.15450000  0.63370000  0.43900000  1.0 0.3655897474
C  C143  1  0.78310000  0.99750000  0.43050000  1.0 0.0987082585
C  C144  1  0.79700000  0.95560000  0.40300000  1.0 -0.1418661827
C  C145  1  0.72630000  0.90030000  0.36870000  1.0 0.0902752226
C  C146  1  0.64590000  0.89230000  0.36400000  1.0 -0.1215408188
C  C147  1  0.63920000  0.93420000  0.39300000  1.0 0.0369209216
C  C148  1  0.40660000  0.56880000  0.23960000  1.0 0.0706701988
C  C149  1  0.48740000  0.63660000  0.26590000  1.0 -0.1504970562
C  C150  1  0.57580000  0.66980000  0.25730000  1.0 0.0706701988
C  C151  1  0.57770000  0.62870000  0.22280000  1.0 -0.1504970562
C  C152  1  0.49220000  0.56060000  0.19820000  1.0 0.059848047
C  C153  1  0.07540000  0.93400000  0.32570000  1.0 0.0902752226
C  C154  1  0.98770000  0.90910000  0.33220000  1.0 -0.130770197
C  C155  1  0.91980000  0.87660000  0.29510000  1.0 0.059848047
C  C156  1  0.93650000  0.86230000  0.25490000  1.0 -0.1418661827
C  C157  1  0.02560000  0.88880000  0.25220000  1.0 0.0795445026
C  C158  1  0.73700000  0.85620000  0.33600000  1.0 0.3655897474
C  C159  1  0.66580000  0.75100000  0.28310000  1.0 0.351561228
C  C160  1  0.82670000  0.84710000  0.30110000  1.0 0.3605238507
C  C161  1  0.11810000  0.78030000  0.99860000  1.0 0.059848047
C  C162  1  0.03230000  0.68510000  0.99920000  1.0 -0.1504970562
C  C163  1  0.02010000  0.62110000  0.03500000  1.0 0.059848047
C  C164  1  0.09460000  0.65340000  0.06960000  1.0 -0.1583769433
C  C165  1  0.17830000  0.75030000  0.06620000  1.0 0.0795445026
C  C166  1  0.73150000  0.12310000  0.12500000  1.0 0.0207140857
C  C167  1  0.74390000  0.19350000  0.09370000  1.0 -0.2012776207
C  C168  1  0.82570000  0.28870000  0.09650000  1.0 0.059848047
C  C169  1  0.89390000  0.31090000  0.13280000  1.0 -0.1808636325
C  C170  1  0.87550000  0.23730000  0.16370000  1.0 0.0902752226
C  C171  1  0.56440000  0.25820000  0.91590000  1.0 0.059848047
C  C172  1  0.63140000  0.27940000  0.95260000  1.0 -0.1891439238
C  C173  1  0.71210000  0.37550000  0.95940000  1.0 0.059848047
C  C174  1  0.72310000  0.44330000  0.92670000  1.0 -0.1808636325
C  C175  1  0.64980000  0.41480000  0.89230000  1.0 0.0706701988
C  C176  1  0.92880000  0.51760000  0.03500000  1.0 0.3605238507
C  C177  1  0.84100000  0.36340000  0.06200000  1.0 0.351561228
C  C178  1  0.78550000  0.40370000  0.99850000  1.0 0.3438184207
C  C179  1  0.92020000  0.05640000  0.17250000  1.0 0.0504477993
C  C180  1  0.00380000  0.07740000  0.16770000  1.0 -0.1891439238
C  C181  1  0.07650000  0.11890000  0.20340000  1.0 0.059848047
C  C182  1  0.05800000  0.13060000  0.24240000  1.0 -0.1504970562
C  C183  1  0.97170000  0.10650000  0.24460000  1.0 0.0795445026
C  C184  1  0.59020000  0.42940000  0.26080000  1.0 0.059848047
C  C185  1  0.50920000  0.36140000  0.23350000  1.0 -0.1808636325
C  C186  1  0.41950000  0.32570000  0.24340000  1.0 0.059848047
C  C187  1  0.41480000  0.36380000  0.27750000  1.0 -0.1504970562
C  C188  1  0.50060000  0.43360000  0.30280000  1.0 0.0706701988
C  C189  1  0.36270000  0.06010000  0.10910000  1.0 -0.0514003633
C  C190  1  0.35310000  0.10470000  0.13930000  1.0 -0.2898179843
C  C191  1  0.27140000  0.09320000  0.13280000  1.0 0.059848047
C  C192  1  0.19860000  0.03620000  0.09910000  1.0 -0.1504970562
C  C193  1  0.21230000  0.99750000  0.07040000  1.0 0.0369209216
C  C194  1  0.17180000  0.14920000  0.19880000  1.0 0.3828232681
C  C195  1  0.33110000  0.24690000  0.21730000  1.0 0.3605238507
C  C196  1  0.26210000  0.13790000  0.16410000  1.0 0.3438184207
C  C197  1  0.73990000  0.43730000  0.41780000  1.0 0.0902752226
C  C198  1  0.71860000  0.36860000  0.45400000  1.0 -0.1504970562
C  C199  1  0.62420000  0.28420000  0.45720000  1.0 0.0706701988
C  C200  1  0.55610000  0.26710000  0.42280000  1.0 -0.1583769433
C  C201  1  0.58240000  0.33700000  0.38780000  1.0 0.059848047
C  C202  1  0.21450000  0.87930000  0.49760000  1.0 0.0706701988
C  C203  1  0.31010000  0.96550000  0.49840000  1.0 -0.1583769433
C  C204  1  0.37490000  0.97590000  0.53390000  1.0 0.059848047
C  C205  1  0.34160000  0.90140000  0.56720000  1.0 -0.1504970562
C  C206  1  0.24450000  0.81650000  0.56430000  1.0 0.0795445026
C  C207  1  0.87250000  0.26390000  0.62670000  1.0 0.0706701988
C  C208  1  0.80570000  0.25270000  0.59290000  1.0 -0.1700261215
C  C209  1  0.70920000  0.16820000  0.59610000  1.0 0.059848047
C  C210  1  0.68340000  0.09880000  0.63250000  1.0 -0.1504970562
C  C211  1  0.75560000  0.11680000  0.66470000  1.0 0.0706701988
C  C212  1  0.59450000  0.20930000  0.49640000  1.0 0.3605238507
C  C213  1  0.47780000  0.06660000  0.53340000  1.0 0.3438184207
C  C214  1  0.63370000  0.15450000  0.56100000  1.0 0.3655897474
C  C215  1  0.99750000  0.78310000  0.56950000  1.0 0.0987082585
C  C216  1  0.95560000  0.79700000  0.59700000  1.0 -0.1418661827
C  C217  1  0.90030000  0.72630000  0.63130000  1.0 0.0902752226
C  C218  1  0.89230000  0.64590000  0.63600000  1.0 -0.1215408188
C  C219  1  0.93420000  0.63920000  0.60700000  1.0 0.0369209216
C  C220  1  0.56880000  0.40660000  0.76040000  1.0 0.0795445026
C  C221  1  0.63660000  0.48740000  0.73410000  1.0 -0.1504970562
C  C222  1  0.66980000  0.57580000  0.74270000  1.0 0.0706701988
C  C223  1  0.62870000  0.57770000  0.77720000  1.0 -0.1504970562
C  C224  1  0.56060000  0.49220000  0.80180000  1.0 0.059848047
C  C225  1  0.93400000  0.07540000  0.67430000  1.0 0.0902752226
C  C226  1  0.90910000  0.98770000  0.66780000  1.0 -0.130770197
C  C227  1  0.87660000  0.91980000  0.70490000  1.0 0.059848047
C  C228  1  0.86230000  0.93650000  0.74510000  1.0 -0.1418661827
C  C229  1  0.88880000  0.02560000  0.74780000  1.0 0.0795445026
C  C230  1  0.85620000  0.73700000  0.66400000  1.0 0.3655897474
C  C231  1  0.75100000  0.66580000  0.71690000  1.0 0.351561228
C  C232  1  0.84710000  0.82670000  0.69890000  1.0 0.3605238507
I  I1  1  0.71450000  0.97170000  0.55800000  1.0 0.0317421054
I  I2  1  0.53170000  0.99510000  0.44900000  1.0 0.0369209216
I  I3  1  0.31530000  0.37210000  0.10910000  1.0 -0.4010815749
I  I4  1  0.14340000  0.37420000  0.19500000  1.0 -0.0224343257
I  I5  1  0.62890000  0.68850000  0.61710000  1.0 -0.2012776207
I  I6  1  0.60510000  0.85070000  0.69980000  1.0 -0.4520609284
I  I7  1  0.24480000  0.94340000  0.22120000  1.0 0.059848047
I  I8  1  0.34810000  0.12630000  0.33600000  1.0 0.0706701988
I  I9  1  0.11590000  0.79990000  0.71541000  1.0 -0.4694562907
I  I10  1  0.87997000  0.63543000  0.81736000  1.0 -0.3717344457
I  I11  1  0.01940000  0.30720000  0.05090000  1.0 -0.0394701459
I  I12  1  0.98780000  0.46100000  0.94540000  1.0 -0.0017546709
I  I13  1  0.03510000  0.30130000  0.05420000  1.0 -0.0603589525
I  I14  1  0.62548000  0.68492000  0.60840000  1.0 -0.2743634487
I  I15  1  0.61680000  0.85180000  0.69927000  1.0 -0.4218027869
I  I16  1  0.19820000  0.87880000  0.21255000  1.0 0.0902752226
I  I17  1  0.35755000  0.11169000  0.31508000  1.0 0.0117391191
I  I18  1  0.98020000  0.47120000  0.93700000  1.0 0.0019325765
I  I19  1  0.69280000  0.96860000  0.55240000  1.0 0.0019325765
I  I20  1  0.53200000  0.01480000  0.44070000  1.0 0.0706701988
I  I21  1  0.30290000  0.36450000  0.11510000  1.0 -0.3806244263
I  I22  1  0.14110000  0.38890000  0.19950000  1.0 -0.0017546709
I  I23  1  0.10433000  0.79127000  0.71100000  1.0 -0.4817706922
I  I24  1  0.88159000  0.63921000  0.81796000  1.0 -0.3579378182
I  I25  1  0.97170000  0.71450000  0.44200000  1.0 0.0317421054
I  I26  1  0.99510000  0.53170000  0.55100000  1.0 0.0369209216
I  I27  1  0.37210000  0.31530000  0.89090000  1.0 -0.4010815749
I  I28  1  0.37420000  0.14340000  0.80500000  1.0 -0.0224343257
I  I29  1  0.68850000  0.62890000  0.38290000  1.0 -0.2012776207
I  I30  1  0.85070000  0.60510000  0.30020000  1.0 -0.4520609284
I  I31  1  0.94340000  0.24480000  0.77880000  1.0 0.0504477993
I  I32  1  0.12630000  0.34810000  0.66400000  1.0 0.0706701988
I  I33  1  0.79990000  0.11590000  0.28459000  1.0 -0.4694562907
I  I34  1  0.63543000  0.87997000  0.18264000  1.0 -0.3717344457
I  I35  1  0.30720000  0.01940000  0.94910000  1.0 -0.0394701459
I  I36  1  0.46100000  0.98780000  0.05460000  1.0 0.0019325765
I  I37  1  0.30130000  0.03510000  0.94580000  1.0 -0.0603589525
I  I38  1  0.68492000  0.62548000  0.39160000  1.0 -0.2743634487
I  I39  1  0.85180000  0.61680000  0.30073000  1.0 -0.4218027869
I  I40  1  0.87880000  0.19820000  0.78745000  1.0 0.0902752226
I  I41  1  0.11169000  0.35755000  0.68492000  1.0 0.0117391191
I  I42  1  0.47120000  0.98020000  0.06300000  1.0 -0.0017546709
I  I43  1  0.96860000  0.69280000  0.44760000  1.0 0.0019325765
I  I44  1  0.01480000  0.53200000  0.55930000  1.0 0.0706701988
I  I45  1  0.36450000  0.30290000  0.88490000  1.0 -0.3806244263
I  I46  1  0.38890000  0.14110000  0.80050000  1.0 -0.0017546709
I  I47  1  0.79127000  0.10433000  0.28900000  1.0 -0.4817706922
I  I48  1  0.63921000  0.88159000  0.18204000  1.0 -0.3579378182
Br  Br1  1  0.69429000  0.28571000  0.31714000  1.0 -0.0883547529
Br  Br2  1  0.28571000  0.69429000  0.68286000  1.0 -0.0883547529
Br  Br3  1  0.30227000  0.70483000  0.18077000  1.0 -0.0795872564
Br  Br4  1  0.70483000  0.30227000  0.81923000  1.0 -0.0795872564
N  N1  1  0.51540000  0.35260000  0.05360000  1.0 0.1872999316
N  N2  1  0.35260000  0.51540000  0.94640000  1.0 0.1872999316
N  N3  1  0.53790000  0.39210000  0.09250000  1.0 -0.102276849
N  N4  1  0.39210000  0.53790000  0.90750000  1.0 -0.1056601981
N  N5  1  0.57750000  0.36250000  0.12010000  1.0 -0.102276849
N  N6  1  0.36250000  0.57750000  0.87990000  1.0 -0.102276849
N  N7  1  0.51970000  0.50630000  0.95520000  1.0 -0.4694562907
N  N8  1  0.50630000  0.51970000  0.04480000  1.0 -0.4694562907
N  N9  1  0.56560000  0.33240000  0.04060000  1.0 0.0706701988
N  N10  1  0.33240000  0.56560000  0.95940000  1.0 0.0795445026
N  N11  1  0.63370000  0.42630000  0.03060000  1.0 0.0987082585
N  N12  1  0.42630000  0.63370000  0.96940000  1.0 0.0987082585
N  N13  1  0.69550000  0.45250000  0.06650000  1.0 -0.102276849
N  N14  1  0.45250000  0.69550000  0.93350000  1.0 -0.102276849
N  N15  1  0.30780000  0.18180000  0.00320000  1.0 -0.4817706922
N  N16  1  0.18180000  0.30780000  0.99680000  1.0 -0.4817706922
N  N17  1  0.81330000  0.19150000  0.96820000  1.0 -0.1808636325
N  N18  1  0.14630000  0.79770000  0.83830000  1.0 -0.1808636325
N  N19  1  0.32470000  0.57250000  0.11310000  1.0 -0.1891439238
N  N20  1  0.45620000  0.92220000  0.93300000  1.0 -0.4010815749
N  N21  1  0.33150000  0.77110000  0.97220000  1.0 -0.4218027869
N  N22  1  0.49820000  0.86220000  0.99930000  1.0 -0.4010815749
N  N23  1  0.06860000  0.90140000  0.78930000  1.0 -0.1700261215
N  N24  1  0.46340000  0.58560000  0.70440000  1.0 -0.1700261215
N  N25  1  0.00980000  0.29500000  0.92510000  1.0 -0.208505618
N  N26  1  0.21650000  0.24570000  0.77440000  1.0 -0.4082969854
N  N27  1  0.20860000  0.34180000  0.81270000  1.0 -0.4010815749
N  N28  1  0.10610000  0.17250000  0.83190000  1.0 -0.4082969854
N  N29  1  0.42400000  0.67320000  0.61360000  1.0 -0.1583769433
N  N30  1  0.80700000  0.18280000  0.47030000  1.0 -0.1808636325
N  N31  1  0.19870000  0.84950000  0.33870000  1.0 -0.2012776207
N  N32  1  0.13480000  0.50100000  0.50040000  1.0 -0.4218027869
N  N33  1  0.07320000  0.54200000  0.43410000  1.0 -0.4218027869
N  N34  1  0.22220000  0.66340000  0.47440000  1.0 -0.4082969854
N  N35  1  0.70730000  0.98490000  0.42800000  1.0 -0.1891439238
N  N36  1  0.40780000  0.53260000  0.20550000  1.0 -0.1808636325
N  N37  1  0.09000000  0.92100000  0.28770000  1.0 -0.1891439238
N  N38  1  0.65430000  0.78670000  0.31250000  1.0 -0.3806244263
N  N39  1  0.74860000  0.77700000  0.27460000  1.0 -0.4082969854
N  N40  1  0.82310000  0.88770000  0.33240000  1.0 -0.3717344457
N  N41  1  0.19150000  0.81330000  0.03180000  1.0 -0.1808636325
N  N42  1  0.79770000  0.14630000  0.16170000  1.0 -0.1808636325
N  N43  1  0.57250000  0.32470000  0.88690000  1.0 -0.1891439238
N  N44  1  0.92220000  0.45620000  0.06700000  1.0 -0.4010815749
N  N45  1  0.77110000  0.33150000  0.02780000  1.0 -0.4218027869
N  N46  1  0.86220000  0.49820000  0.00070000  1.0 -0.4010815749
N  N47  1  0.90140000  0.06860000  0.21070000  1.0 -0.1583769433
N  N48  1  0.58560000  0.46340000  0.29560000  1.0 -0.1700261215
N  N49  1  0.29500000  0.00980000  0.07490000  1.0 -0.208505618
N  N50  1  0.24570000  0.21650000  0.22560000  1.0 -0.4082969854
N  N51  1  0.34180000  0.20860000  0.18730000  1.0 -0.4010815749
N  N52  1  0.17250000  0.10610000  0.16810000  1.0 -0.4082969854
N  N53  1  0.67320000  0.42400000  0.38640000  1.0 -0.1700261215
N  N54  1  0.18280000  0.80700000  0.52970000  1.0 -0.1808636325
N  N55  1  0.84950000  0.19870000  0.66130000  1.0 -0.2012776207
N  N56  1  0.50100000  0.13480000  0.49960000  1.0 -0.4218027869
N  N57  1  0.54200000  0.07320000  0.56590000  1.0 -0.4218027869
N  N58  1  0.66340000  0.22220000  0.52560000  1.0 -0.4082969854
N  N59  1  0.98490000  0.70730000  0.57200000  1.0 -0.1891439238
N  N60  1  0.53260000  0.40780000  0.79450000  1.0 -0.1808636325
N  N61  1  0.92100000  0.09000000  0.71230000  1.0 -0.1891439238
N  N62  1  0.78670000  0.65430000  0.68750000  1.0 -0.3806244263
N  N63  1  0.77700000  0.74860000  0.72540000  1.0 -0.4082969854
N  N64  1  0.88770000  0.82310000  0.66760000  1.0 -0.3717344457
O  O1  1  0.47380000  0.88680000  0.28210000  1.0 -0.2256025205
O  O2  1  0.88680000  0.47380000  0.71790000  1.0 -0.2256025205
O  O3  1  0.50420000  0.09300000  0.22240000  1.0 -0.0795872564
O  O4  1  0.09300000  0.50420000  0.77760000  1.0 -0.0883547529
O  O5  1  0.63060000  0.49340000  0.99110000  1.0 -0.3277141357
O  O6  1  0.49340000  0.63060000  0.00890000  1.0 -0.3277141357
O  O7  1  0.55790000  0.10010000  0.22110000  1.0 -0.0310987754
O  O8  1  0.10010000  0.55790000  0.77890000  1.0 -0.0310987754
O  O9  1  0.40540000  0.31380000  0.04430000  1.0 -0.1215408188
O  O10  1  0.31380000  0.40540000  0.95570000  1.0 -0.1215408188
