# DDEC6 charges by PACMAN v1.1 (https://github.com/mtap-research/PACMAN-charge/)
data_KACZIZ_ASR_pacman
_symmetry_space_group_name_H-M   'P 1'
_cell_length_a   33.52560000
_cell_length_b   33.52560000
_cell_length_c   33.52560000
_cell_angle_alpha   109.47100000
_cell_angle_beta   109.47100000
_cell_angle_gamma   109.47100000
_symmetry_Int_Tables_number   1
_chemical_formula_structural   In3H26C40N8O13
_chemical_formula_sum   'In36 H312 C480 N96 O156'
_cell_volume   29007.56900469
_cell_formula_units_Z   12
loop_
 _symmetry_equiv_pos_site_id
 _symmetry_equiv_pos_as_xyz
  1  'x, y, z'
loop_
 _atom_site_type_symbol
 _atom_site_label
 _atom_site_symmetry_multiplicity
 _atom_site_fract_x
 _atom_site_fract_y
 _atom_site_fract_z
 _atom_site_occupancy
 _atom_site_charge
In  In1  1  0.54490000  0.25000000  0.79490000  1.0 1.4800223819
In  In2  1  0.95510000  0.75000000  0.70510000  1.0 1.4695547732
In  In3  1  0.79490000  0.54490000  0.25000000  1.0 1.4800223819
In  In4  1  0.70510000  0.95510000  0.75000000  1.0 1.4695547732
In  In5  1  0.25000000  0.79490000  0.54490000  1.0 1.4695547732
In  In6  1  0.75000000  0.70510000  0.95510000  1.0 1.4695547732
In  In7  1  0.75000000  0.04490000  0.29490000  1.0 1.4695547732
In  In8  1  0.25000000  0.45510000  0.20510000  1.0 1.4695547732
In  In9  1  0.04490000  0.29490000  0.75000000  1.0 1.4695547732
In  In10  1  0.45510000  0.20510000  0.25000000  1.0 1.4800223819
In  In11  1  0.29490000  0.75000000  0.04490000  1.0 1.4695547732
In  In12  1  0.20510000  0.25000000  0.45510000  1.0 1.4695547732
In  In13  1  0.63909000  0.30676000  0.91793000  1.0 1.4054602297
In  In14  1  0.88883000  0.72116000  0.58207000  1.0 1.4028135071
In  In15  1  0.61117000  0.19324000  0.83233000  1.0 1.4054602297
In  In16  1  0.86091000  0.77884000  0.66767000  1.0 1.4028135071
In  In17  1  0.91793000  0.63909000  0.30676000  1.0 1.4028135071
In  In18  1  0.58207000  0.88883000  0.72116000  1.0 1.4028135071
In  In19  1  0.83233000  0.61117000  0.19324000  1.0 1.4028135071
In  In20  1  0.66767000  0.86091000  0.77884000  1.0 1.4028135071
In  In21  1  0.30676000  0.91793000  0.63909000  1.0 1.4028135071
In  In22  1  0.72116000  0.58207000  0.88883000  1.0 1.4028135071
In  In23  1  0.19324000  0.83233000  0.61117000  1.0 1.4028135071
In  In24  1  0.77884000  0.66767000  0.86091000  1.0 1.4028135071
In  In25  1  0.80676000  0.13909000  0.41793000  1.0 1.4028135071
In  In26  1  0.22116000  0.38883000  0.08207000  1.0 1.4028135071
In  In27  1  0.69324000  0.11117000  0.33233000  1.0 1.4028135071
In  In28  1  0.27884000  0.36091000  0.16767000  1.0 1.4028135071
In  In29  1  0.13909000  0.41793000  0.80676000  1.0 1.4028135071
In  In30  1  0.38883000  0.08207000  0.22116000  1.0 1.4028135071
In  In31  1  0.11117000  0.33233000  0.69324000  1.0 1.4028135071
In  In32  1  0.36091000  0.16767000  0.27884000  1.0 1.4028135071
In  In33  1  0.41793000  0.80676000  0.13909000  1.0 1.4028135071
In  In34  1  0.08207000  0.22116000  0.38883000  1.0 1.4028135071
In  In35  1  0.33233000  0.69324000  0.11117000  1.0 1.4028135071
In  In36  1  0.16767000  0.27884000  0.36091000  1.0 1.4028135071
H  H1  1  0.62490000  0.48210000  0.82420000  1.0 0.1116365025
H  H2  1  0.15790000  0.80070000  0.67580000  1.0 0.1116365025
H  H3  1  0.34210000  0.01790000  0.64280000  1.0 0.1116365025
H  H4  1  0.87510000  0.69930000  0.85720000  1.0 0.1116365025
H  H5  1  0.82420000  0.62490000  0.48210000  1.0 0.1116365025
H  H6  1  0.67580000  0.15790000  0.80070000  1.0 0.1116365025
H  H7  1  0.64280000  0.34210000  0.01790000  1.0 0.1116365025
H  H8  1  0.85720000  0.87510000  0.69930000  1.0 0.1116365025
H  H9  1  0.48210000  0.82420000  0.62490000  1.0 0.1116365025
H  H10  1  0.80070000  0.67580000  0.15790000  1.0 0.1116365025
H  H11  1  0.01790000  0.64280000  0.34210000  1.0 0.1116365025
H  H12  1  0.69930000  0.85720000  0.87510000  1.0 0.1116365025
H  H13  1  0.98210000  0.12490000  0.32420000  1.0 0.1116365025
H  H14  1  0.30070000  0.65790000  0.17580000  1.0 0.1116365025
H  H15  1  0.51790000  0.84210000  0.14280000  1.0 0.1116365025
H  H16  1  0.19930000  0.37510000  0.35720000  1.0 0.1116365025
H  H17  1  0.12490000  0.32420000  0.98210000  1.0 0.1116365025
H  H18  1  0.65790000  0.17580000  0.30070000  1.0 0.1116365025
H  H19  1  0.84210000  0.14280000  0.51790000  1.0 0.1116365025
H  H20  1  0.37510000  0.35720000  0.19930000  1.0 0.1116365025
H  H21  1  0.32420000  0.98210000  0.12490000  1.0 0.1116365025
H  H22  1  0.17580000  0.30070000  0.65790000  1.0 0.1116365025
H  H23  1  0.14280000  0.51790000  0.84210000  1.0 0.1116365025
H  H24  1  0.35720000  0.19930000  0.37510000  1.0 0.1116365025
H  H25  1  0.74970000  0.51700000  0.92730000  1.0 0.1116365025
H  H26  1  0.08970000  0.82240000  0.57270000  1.0 0.1116365025
H  H27  1  0.41030000  0.98300000  0.73270000  1.0 0.1116365025
H  H28  1  0.75030000  0.67760000  0.76730000  1.0 0.1116365025
H  H29  1  0.92730000  0.74970000  0.51700000  1.0 0.1116365025
H  H30  1  0.57270000  0.08970000  0.82240000  1.0 0.1116365025
H  H31  1  0.73270000  0.41030000  0.98300000  1.0 0.1116365025
H  H32  1  0.76730000  0.75030000  0.67760000  1.0 0.1116365025
H  H33  1  0.51700000  0.92730000  0.74970000  1.0 0.1116365025
H  H34  1  0.82240000  0.57270000  0.08970000  1.0 0.1116365025
H  H35  1  0.98300000  0.73270000  0.41030000  1.0 0.1116365025
H  H36  1  0.67760000  0.76730000  0.75030000  1.0 0.1116365025
H  H37  1  0.01700000  0.24970000  0.42730000  1.0 0.1116365025
H  H38  1  0.32240000  0.58970000  0.07270000  1.0 0.1116365025
H  H39  1  0.48300000  0.91030000  0.23270000  1.0 0.1116365025
H  H40  1  0.17760000  0.25030000  0.26730000  1.0 0.1116365025
H  H41  1  0.24970000  0.42730000  0.01700000  1.0 0.1116365025
H  H42  1  0.58970000  0.07270000  0.32240000  1.0 0.1116365025
H  H43  1  0.91030000  0.23270000  0.48300000  1.0 0.1116365025
H  H44  1  0.25030000  0.26730000  0.17760000  1.0 0.1116365025
H  H45  1  0.42730000  0.01700000  0.24970000  1.0 0.1116365025
H  H46  1  0.07270000  0.32240000  0.58970000  1.0 0.1116365025
H  H47  1  0.23270000  0.48300000  0.91030000  1.0 0.1116365025
H  H48  1  0.26730000  0.17760000  0.25030000  1.0 0.1116365025
H  H49  1  0.56000000  0.36330000  0.79010000  1.0 0.3133033079
H  H50  1  0.07320000  0.76990000  0.70990000  1.0 0.3133033079
H  H51  1  0.42680000  0.13670000  0.69670000  1.0 0.3133033079
H  H52  1  0.94000000  0.73010000  0.80330000  1.0 0.3133033079
H  H53  1  0.79010000  0.56000000  0.36330000  1.0 0.3133033079
H  H54  1  0.70990000  0.07320000  0.76990000  1.0 0.3133033079
H  H55  1  0.69670000  0.42680000  0.13670000  1.0 0.3133033079
H  H56  1  0.80330000  0.94000000  0.73010000  1.0 0.3133033079
H  H57  1  0.36330000  0.79010000  0.56000000  1.0 0.3133033079
H  H58  1  0.76990000  0.70990000  0.07320000  1.0 0.3133033079
H  H59  1  0.13670000  0.69670000  0.42680000  1.0 0.3133033079
H  H60  1  0.73010000  0.80330000  0.94000000  1.0 0.3133033079
H  H61  1  0.86330000  0.06000000  0.29010000  1.0 0.3133033079
H  H62  1  0.26990000  0.57320000  0.20990000  1.0 0.3133033079
H  H63  1  0.63670000  0.92680000  0.19670000  1.0 0.3133033079
H  H64  1  0.23010000  0.44000000  0.30330000  1.0 0.3133033079
H  H65  1  0.06000000  0.29010000  0.86330000  1.0 0.3133033079
H  H66  1  0.57320000  0.20990000  0.26990000  1.0 0.3133033079
H  H67  1  0.92680000  0.19670000  0.63670000  1.0 0.3133033079
H  H68  1  0.44000000  0.30330000  0.23010000  1.0 0.3133033079
H  H69  1  0.29010000  0.86330000  0.06000000  1.0 0.3133033079
H  H70  1  0.20990000  0.26990000  0.57320000  1.0 0.3133033079
H  H71  1  0.19670000  0.63670000  0.92680000  1.0 0.3133033079
H  H72  1  0.30330000  0.23010000  0.44000000  1.0 0.3133033079
H  H73  1  0.55970000  0.40280000  0.77910000  1.0 0.2982018826
H  H74  1  0.12370000  0.78060000  0.72090000  1.0 0.2982018826
H  H75  1  0.37630000  0.09720000  0.65690000  1.0 0.2982018826
H  H76  1  0.94030000  0.71940000  0.84310000  1.0 0.2982018826
H  H77  1  0.77910000  0.55970000  0.40280000  1.0 0.2982018826
H  H78  1  0.72090000  0.12370000  0.78060000  1.0 0.2982018826
H  H79  1  0.65690000  0.37630000  0.09720000  1.0 0.2982018826
H  H80  1  0.84310000  0.94030000  0.71940000  1.0 0.2982018826
H  H81  1  0.40280000  0.77910000  0.55970000  1.0 0.2982018826
H  H82  1  0.78060000  0.72090000  0.12370000  1.0 0.2982018826
H  H83  1  0.09720000  0.65690000  0.37630000  1.0 0.2982018826
H  H84  1  0.71940000  0.84310000  0.94030000  1.0 0.2982018826
H  H85  1  0.90280000  0.05970000  0.27910000  1.0 0.2982018826
H  H86  1  0.28060000  0.62370000  0.22090000  1.0 0.2982018826
H  H87  1  0.59720000  0.87630000  0.15690000  1.0 0.2982018826
H  H88  1  0.21940000  0.44030000  0.34310000  1.0 0.2982018826
H  H89  1  0.05970000  0.27910000  0.90280000  1.0 0.2982018826
H  H90  1  0.62370000  0.22090000  0.28060000  1.0 0.2982018826
H  H91  1  0.87630000  0.15690000  0.59720000  1.0 0.2982018826
H  H92  1  0.44030000  0.34310000  0.21940000  1.0 0.2982018826
H  H93  1  0.27910000  0.90280000  0.05970000  1.0 0.2982018826
H  H94  1  0.22090000  0.28060000  0.62370000  1.0 0.2982018826
H  H95  1  0.15690000  0.59720000  0.87630000  1.0 0.2982018826
H  H96  1  0.34310000  0.21940000  0.44030000  1.0 0.2982018826
H  H97  1  0.71870000  0.43960000  0.91570000  1.0 0.128619187
H  H98  1  0.02390000  0.80300000  0.58430000  1.0 0.128619187
H  H99  1  0.47610000  0.06040000  0.77910000  1.0 0.128619187
H  H100  1  0.78130000  0.69700000  0.72090000  1.0 0.128619187
H  H101  1  0.91570000  0.71870000  0.43960000  1.0 0.128619187
H  H102  1  0.58430000  0.02390000  0.80300000  1.0 0.128619187
H  H103  1  0.77910000  0.47610000  0.06040000  1.0 0.128619187
H  H104  1  0.72090000  0.78130000  0.69700000  1.0 0.128619187
H  H105  1  0.43960000  0.91570000  0.71870000  1.0 0.128619187
H  H106  1  0.80300000  0.58430000  0.02390000  1.0 0.128619187
H  H107  1  0.06040000  0.77910000  0.47610000  1.0 0.128619187
H  H108  1  0.69700000  0.72090000  0.78130000  1.0 0.128619187
H  H109  1  0.93960000  0.21870000  0.41570000  1.0 0.128619187
H  H110  1  0.30300000  0.52390000  0.08430000  1.0 0.128619187
H  H111  1  0.56040000  0.97610000  0.27910000  1.0 0.128619187
H  H112  1  0.19700000  0.28130000  0.22090000  1.0 0.128619187
H  H113  1  0.21870000  0.41570000  0.93960000  1.0 0.128619187
H  H114  1  0.52390000  0.08430000  0.30300000  1.0 0.128619187
H  H115  1  0.97610000  0.27910000  0.56040000  1.0 0.128619187
H  H116  1  0.28130000  0.22090000  0.19700000  1.0 0.128619187
H  H117  1  0.41570000  0.93960000  0.21870000  1.0 0.128619187
H  H118  1  0.08430000  0.30300000  0.52390000  1.0 0.128619187
H  H119  1  0.27910000  0.56040000  0.97610000  1.0 0.128619187
H  H120  1  0.22090000  0.19700000  0.28130000  1.0 0.128619187
H  H121  1  0.56950000  0.22500000  0.66610000  1.0 0.1197284429
H  H122  1  0.05890000  0.90340000  0.83390000  1.0 0.128619187
H  H123  1  0.44110000  0.27500000  0.84450000  1.0 0.1197284429
H  H124  1  0.93050000  0.59660000  0.65550000  1.0 0.1197284429
H  H125  1  0.66610000  0.56950000  0.22500000  1.0 0.1197284429
H  H126  1  0.83390000  0.05890000  0.90340000  1.0 0.1197284429
H  H127  1  0.84450000  0.44110000  0.27500000  1.0 0.128619187
H  H128  1  0.65550000  0.93050000  0.59660000  1.0 0.1197284429
H  H129  1  0.22500000  0.66610000  0.56950000  1.0 0.1197284429
H  H130  1  0.90340000  0.83390000  0.05890000  1.0 0.1197284429
H  H131  1  0.27500000  0.84450000  0.44110000  1.0 0.1197284429
H  H132  1  0.59660000  0.65550000  0.93050000  1.0 0.1197284429
H  H133  1  0.72500000  0.06950000  0.16610000  1.0 0.1197284429
H  H134  1  0.40340000  0.55890000  0.33390000  1.0 0.1197284429
H  H135  1  0.77500000  0.94110000  0.34450000  1.0 0.1197284429
H  H136  1  0.09660000  0.43050000  0.15550000  1.0 0.1197284429
H  H137  1  0.06950000  0.16610000  0.72500000  1.0 0.1197284429
H  H138  1  0.55890000  0.33390000  0.40340000  1.0 0.1197284429
H  H139  1  0.94110000  0.34450000  0.77500000  1.0 0.1197284429
H  H140  1  0.43050000  0.15550000  0.09660000  1.0 0.128619187
H  H141  1  0.16610000  0.72500000  0.06950000  1.0 0.1197284429
H  H142  1  0.33390000  0.40340000  0.55890000  1.0 0.1197284429
H  H143  1  0.34450000  0.77500000  0.94110000  1.0 0.1197284429
H  H144  1  0.15550000  0.09660000  0.43050000  1.0 0.1197284429
H  H145  1  0.61980000  0.14710000  0.49790000  1.0 0.1197284429
H  H146  1  0.14920000  0.12190000  0.00210000  1.0 0.1197284429
H  H147  1  0.35080000  0.35290000  0.97270000  1.0 0.1197284429
H  H148  1  0.88020000  0.37810000  0.52730000  1.0 0.1197284429
H  H149  1  0.49790000  0.61980000  0.14710000  1.0 0.1197284429
H  H150  1  0.00210000  0.14920000  0.12190000  1.0 0.1197284429
H  H151  1  0.97270000  0.35080000  0.35290000  1.0 0.1197284429
H  H152  1  0.52730000  0.88020000  0.37810000  1.0 0.1197284429
H  H153  1  0.14710000  0.49790000  0.61980000  1.0 0.1197284429
H  H154  1  0.12190000  0.00210000  0.14920000  1.0 0.1197284429
H  H155  1  0.35290000  0.97270000  0.35080000  1.0 0.1197284429
H  H156  1  0.37810000  0.52730000  0.88020000  1.0 0.1197284429
H  H157  1  0.64710000  0.11980000  0.99790000  1.0 0.1197284429
H  H158  1  0.62190000  0.64920000  0.50210000  1.0 0.1197284429
H  H159  1  0.85290000  0.85080000  0.47270000  1.0 0.1197284429
H  H160  1  0.87810000  0.38020000  0.02730000  1.0 0.1197284429
H  H161  1  0.11980000  0.99790000  0.64710000  1.0 0.1197284429
H  H162  1  0.64920000  0.50210000  0.62190000  1.0 0.1197284429
H  H163  1  0.85080000  0.47270000  0.85290000  1.0 0.1197284429
H  H164  1  0.38020000  0.02730000  0.87810000  1.0 0.1197284429
H  H165  1  0.99790000  0.64710000  0.11980000  1.0 0.1197284429
H  H166  1  0.50210000  0.62190000  0.64920000  1.0 0.1197284429
H  H167  1  0.47270000  0.85290000  0.85080000  1.0 0.1197284429
H  H168  1  0.02730000  0.87810000  0.38020000  1.0 0.1197284429
H  H169  1  0.64310000  0.16560000  0.71650000  1.0 0.1197284429
H  H170  1  0.94910000  0.92660000  0.78350000  1.0 0.1197284429
H  H171  1  0.55090000  0.33440000  0.97750000  1.0 0.1197284429
H  H172  1  0.85690000  0.57340000  0.52250000  1.0 0.1197284429
H  H173  1  0.71650000  0.64310000  0.16560000  1.0 0.1197284429
H  H174  1  0.78350000  0.94910000  0.92660000  1.0 0.1197284429
H  H175  1  0.97750000  0.55090000  0.33440000  1.0 0.1197284429
H  H176  1  0.52250000  0.85690000  0.57340000  1.0 0.1197284429
H  H177  1  0.16560000  0.71650000  0.64310000  1.0 0.1197284429
H  H178  1  0.92660000  0.78350000  0.94910000  1.0 0.1197284429
H  H179  1  0.33440000  0.97750000  0.55090000  1.0 0.1197284429
H  H180  1  0.57340000  0.52250000  0.85690000  1.0 0.1197284429
H  H181  1  0.66560000  0.14310000  0.21650000  1.0 0.1197284429
H  H182  1  0.42660000  0.44910000  0.28350000  1.0 0.1197284429
H  H183  1  0.83440000  0.05090000  0.47750000  1.0 0.1197284429
H  H184  1  0.07340000  0.35690000  0.02250000  1.0 0.1197284429
H  H185  1  0.14310000  0.21650000  0.66560000  1.0 0.1197284429
H  H186  1  0.44910000  0.28350000  0.42660000  1.0 0.1197284429
H  H187  1  0.05090000  0.47750000  0.83440000  1.0 0.1197284429
H  H188  1  0.35690000  0.02250000  0.07340000  1.0 0.1197284429
H  H189  1  0.21650000  0.66560000  0.14310000  1.0 0.1197284429
H  H190  1  0.28350000  0.42660000  0.44910000  1.0 0.1197284429
H  H191  1  0.47750000  0.83440000  0.05090000  1.0 0.1197284429
H  H192  1  0.02250000  0.07340000  0.35690000  1.0 0.1197284429
H  H193  1  0.76040000  0.13670000  0.52730000  1.0 0.1116365025
H  H194  1  0.10940000  0.23310000  0.97270000  1.0 0.1116365025
H  H195  1  0.39060000  0.36330000  0.12370000  1.0 0.1116365025
H  H196  1  0.73960000  0.26690000  0.37630000  1.0 0.1116365025
H  H197  1  0.52730000  0.76040000  0.13670000  1.0 0.1116365025
H  H198  1  0.97270000  0.10940000  0.23310000  1.0 0.1116365025
H  H199  1  0.12370000  0.39060000  0.36330000  1.0 0.1116365025
H  H200  1  0.37630000  0.73960000  0.26690000  1.0 0.1116365025
H  H201  1  0.13670000  0.52730000  0.76040000  1.0 0.1116365025
H  H202  1  0.23310000  0.97270000  0.10940000  1.0 0.1116365025
H  H203  1  0.36330000  0.12370000  0.39060000  1.0 0.1116365025
H  H204  1  0.26690000  0.37630000  0.73960000  1.0 0.1116365025
H  H205  1  0.63670000  0.26040000  0.02730000  1.0 0.1116365025
H  H206  1  0.73310000  0.60940000  0.47270000  1.0 0.1116365025
H  H207  1  0.86330000  0.89060000  0.62370000  1.0 0.1116365025
H  H208  1  0.76690000  0.23960000  0.87630000  1.0 0.1116365025
H  H209  1  0.26040000  0.02730000  0.63670000  1.0 0.1116365025
H  H210  1  0.60940000  0.47270000  0.73310000  1.0 0.1116365025
H  H211  1  0.89060000  0.62370000  0.86330000  1.0 0.1116365025
H  H212  1  0.23960000  0.87630000  0.76690000  1.0 0.1116365025
H  H213  1  0.02730000  0.63670000  0.26040000  1.0 0.1116365025
H  H214  1  0.47270000  0.73310000  0.60940000  1.0 0.1116365025
H  H215  1  0.62370000  0.86330000  0.89060000  1.0 0.1116365025
H  H216  1  0.87630000  0.76690000  0.23960000  1.0 0.1116365025
H  H217  1  0.73630000  0.14980000  0.58610000  1.0 0.1116365025
H  H218  1  0.06370000  0.15020000  0.91390000  1.0 0.1116365025
H  H219  1  0.43630000  0.35020000  0.08650000  1.0 0.1116365025
H  H220  1  0.76370000  0.34980000  0.41350000  1.0 0.1116365025
H  H221  1  0.58610000  0.73630000  0.14980000  1.0 0.1116365025
H  H222  1  0.91390000  0.06370000  0.15020000  1.0 0.1116365025
H  H223  1  0.08650000  0.43630000  0.35020000  1.0 0.1116365025
H  H224  1  0.41350000  0.76370000  0.34980000  1.0 0.1116365025
H  H225  1  0.14980000  0.58610000  0.73630000  1.0 0.1116365025
H  H226  1  0.15020000  0.91390000  0.06370000  1.0 0.1116365025
H  H227  1  0.35020000  0.08650000  0.43630000  1.0 0.1116365025
H  H228  1  0.34980000  0.41350000  0.76370000  1.0 0.1116365025
H  H229  1  0.64980000  0.23630000  0.08610000  1.0 0.1116365025
H  H230  1  0.65020000  0.56370000  0.41390000  1.0 0.1116365025
H  H231  1  0.85020000  0.93630000  0.58650000  1.0 0.1116365025
H  H232  1  0.84980000  0.26370000  0.91350000  1.0 0.1116365025
H  H233  1  0.23630000  0.08610000  0.64980000  1.0 0.1116365025
H  H234  1  0.56370000  0.41390000  0.65020000  1.0 0.1116365025
H  H235  1  0.93630000  0.58650000  0.85020000  1.0 0.1116365025
H  H236  1  0.26370000  0.91350000  0.84980000  1.0 0.1116365025
H  H237  1  0.08610000  0.64980000  0.23630000  1.0 0.1116365025
H  H238  1  0.41390000  0.65020000  0.56370000  1.0 0.1116365025
H  H239  1  0.58650000  0.85020000  0.93630000  1.0 0.1116365025
H  H240  1  0.91350000  0.84980000  0.26370000  1.0 0.1116365025
H  H241  1  0.64100000  0.13140000  0.43680000  1.0 0.1197284429
H  H242  1  0.19460000  0.20420000  0.06320000  1.0 0.1197284429
H  H243  1  0.30540000  0.36860000  0.00960000  1.0 0.1197284429
H  H244  1  0.85900000  0.29580000  0.49040000  1.0 0.1197284429
H  H245  1  0.43680000  0.64100000  0.13140000  1.0 0.1197284429
H  H246  1  0.06320000  0.19460000  0.20420000  1.0 0.1197284429
H  H247  1  0.00960000  0.30540000  0.36860000  1.0 0.1197284429
H  H248  1  0.49040000  0.85900000  0.29580000  1.0 0.1197284429
H  H249  1  0.13140000  0.43680000  0.64100000  1.0 0.1197284429
H  H250  1  0.20420000  0.06320000  0.19460000  1.0 0.1197284429
H  H251  1  0.36860000  0.00960000  0.30540000  1.0 0.1197284429
H  H252  1  0.29580000  0.49040000  0.85900000  1.0 0.1197284429
H  H253  1  0.63140000  0.14100000  0.93680000  1.0 0.1197284429
H  H254  1  0.70420000  0.69460000  0.56320000  1.0 0.1197284429
H  H255  1  0.86860000  0.80540000  0.50960000  1.0 0.1197284429
H  H256  1  0.79580000  0.35900000  0.99040000  1.0 0.1197284429
H  H257  1  0.14100000  0.93680000  0.63140000  1.0 0.1197284429
H  H258  1  0.69460000  0.56320000  0.70420000  1.0 0.1197284429
H  H259  1  0.80540000  0.50960000  0.86860000  1.0 0.1197284429
H  H260  1  0.35900000  0.99040000  0.79580000  1.0 0.1197284429
H  H261  1  0.93680000  0.63140000  0.14100000  1.0 0.1197284429
H  H262  1  0.56320000  0.70420000  0.69460000  1.0 0.1197284429
H  H263  1  0.50960000  0.86860000  0.80540000  1.0 0.1197284429
H  H264  1  0.99040000  0.79580000  0.35900000  1.0 0.1197284429
H  H265  1  0.58940000  0.21030000  0.60450000  1.0 0.1197284429
H  H266  1  0.10580000  0.98490000  0.89550000  1.0 0.1197284429
H  H267  1  0.39420000  0.28970000  0.87910000  1.0 0.1197284429
H  H268  1  0.91060000  0.51510000  0.62090000  1.0 0.1197284429
H  H269  1  0.60450000  0.58940000  0.21030000  1.0 0.1197284429
H  H270  1  0.89550000  0.10580000  0.98490000  1.0 0.1197284429
H  H271  1  0.87910000  0.39420000  0.28970000  1.0 0.1197284429
H  H272  1  0.62090000  0.91060000  0.51510000  1.0 0.1197284429
H  H273  1  0.21030000  0.60450000  0.58940000  1.0 0.1197284429
H  H274  1  0.98490000  0.89550000  0.10580000  1.0 0.1197284429
H  H275  1  0.28970000  0.87910000  0.39420000  1.0 0.1197284429
H  H276  1  0.51510000  0.62090000  0.91060000  1.0 0.1197284429
H  H277  1  0.71030000  0.08940000  0.10450000  1.0 0.1197284429
H  H278  1  0.48490000  0.60580000  0.39550000  1.0 0.1197284429
H  H279  1  0.78970000  0.89420000  0.37910000  1.0 0.1197284429
H  H280  1  0.01510000  0.41060000  0.12090000  1.0 0.1197284429
H  H281  1  0.08940000  0.10450000  0.71030000  1.0 0.1197284429
H  H282  1  0.60580000  0.39550000  0.48490000  1.0 0.1197284429
H  H283  1  0.89420000  0.37910000  0.78970000  1.0 0.1197284429
H  H284  1  0.41060000  0.12090000  0.01510000  1.0 0.1197284429
H  H285  1  0.10450000  0.71030000  0.08940000  1.0 0.1197284429
H  H286  1  0.39550000  0.48490000  0.60580000  1.0 0.1197284429
H  H287  1  0.37910000  0.78970000  0.89420000  1.0 0.1197284429
H  H288  1  0.12090000  0.01510000  0.41060000  1.0 0.1197284429
H  H289  1  0.65550000  0.14630000  0.64960000  1.0 0.1116365025
H  H290  1  0.99670000  0.00590000  0.85040000  1.0 0.1116365025
H  H291  1  0.50330000  0.35370000  0.00920000  1.0 0.1116365025
H  H292  1  0.84450000  0.49410000  0.49080000  1.0 0.1116365025
H  H293  1  0.64960000  0.65550000  0.14630000  1.0 0.1116365025
H  H294  1  0.85040000  0.99670000  0.00590000  1.0 0.1116365025
H  H295  1  0.00920000  0.50330000  0.35370000  1.0 0.1116365025
H  H296  1  0.49080000  0.84450000  0.49410000  1.0 0.1116365025
H  H297  1  0.14630000  0.64960000  0.65550000  1.0 0.1116365025
H  H298  1  0.00590000  0.85040000  0.99670000  1.0 0.1116365025
H  H299  1  0.35370000  0.00920000  0.50330000  1.0 0.1116365025
H  H300  1  0.49410000  0.49080000  0.84450000  1.0 0.1116365025
H  H301  1  0.64630000  0.15550000  0.14960000  1.0 0.1116365025
H  H302  1  0.50590000  0.49670000  0.35040000  1.0 0.1116365025
H  H303  1  0.85370000  0.00330000  0.50920000  1.0 0.1116365025
H  H304  1  0.99410000  0.34450000  0.99080000  1.0 0.1116365025
H  H305  1  0.15550000  0.14960000  0.64630000  1.0 0.1116365025
H  H306  1  0.49670000  0.35040000  0.50590000  1.0 0.1116365025
H  H307  1  0.00330000  0.50920000  0.85370000  1.0 0.1116365025
H  H308  1  0.34450000  0.99080000  0.99410000  1.0 0.1116365025
H  H309  1  0.14960000  0.64630000  0.15550000  1.0 0.1116365025
H  H310  1  0.35040000  0.50590000  0.49670000  1.0 0.1116365025
H  H311  1  0.50920000  0.85370000  0.00330000  1.0 0.1197284429
H  H312  1  0.99080000  0.99410000  0.34450000  1.0 0.1197284429
C  C1  1  0.65077000  0.41258000  0.86333000  1.0 -0.1029526283
C  C2  1  0.04925000  0.78744000  0.63667000  1.0 -0.1029526283
C  C3  1  0.45075000  0.08742000  0.73819000  1.0 -0.1029526283
C  C4  1  0.84923000  0.71256000  0.76181000  1.0 -0.1029526283
C  C5  1  0.86333000  0.65077000  0.41258000  1.0 -0.1029526283
C  C6  1  0.63667000  0.04925000  0.78744000  1.0 -0.1029526283
C  C7  1  0.73819000  0.45075000  0.08742000  1.0 -0.1029526283
C  C8  1  0.76181000  0.84923000  0.71256000  1.0 -0.1029526283
C  C9  1  0.41258000  0.86333000  0.65077000  1.0 -0.1029526283
C  C10  1  0.78744000  0.63667000  0.04925000  1.0 -0.1029526283
C  C11  1  0.08742000  0.73819000  0.45075000  1.0 -0.1029526283
C  C12  1  0.71256000  0.76181000  0.84923000  1.0 -0.1029526283
C  C13  1  0.91258000  0.15077000  0.36333000  1.0 -0.1029526283
C  C14  1  0.28744000  0.54925000  0.13667000  1.0 -0.1029526283
C  C15  1  0.58742000  0.95075000  0.23819000  1.0 -0.1029526283
C  C16  1  0.21256000  0.34923000  0.26181000  1.0 -0.1029526283
C  C17  1  0.15077000  0.36333000  0.91258000  1.0 -0.1029526283
C  C18  1  0.54925000  0.13667000  0.28744000  1.0 -0.1029526283
C  C19  1  0.95075000  0.23819000  0.58742000  1.0 -0.1029526283
C  C20  1  0.34923000  0.26181000  0.21256000  1.0 -0.1029526283
C  C21  1  0.36333000  0.91258000  0.15077000  1.0 -0.1029526283
C  C22  1  0.13667000  0.28744000  0.54925000  1.0 -0.1029526283
C  C23  1  0.23819000  0.58742000  0.95075000  1.0 -0.1029526283
C  C24  1  0.26181000  0.21256000  0.34923000  1.0 -0.1029526283
C  C25  1  0.71942000  0.12739000  0.43887000  1.0 0.6009727654
C  C26  1  0.18852000  0.28055000  0.06113000  1.0 0.6009727654
C  C27  1  0.31148000  0.37261000  0.09203000  1.0 0.6009727654
C  C28  1  0.78058000  0.21945000  0.40797000  1.0 0.6009727654
C  C29  1  0.43887000  0.71942000  0.12739000  1.0 0.6009727654
C  C30  1  0.06113000  0.18852000  0.28055000  1.0 0.6009727654
C  C31  1  0.09203000  0.31148000  0.37261000  1.0 0.6009727654
C  C32  1  0.40797000  0.78058000  0.21945000  1.0 0.6009727654
C  C33  1  0.12739000  0.43887000  0.71942000  1.0 0.6009727654
C  C34  1  0.28055000  0.06113000  0.18852000  1.0 0.6009727654
C  C35  1  0.37261000  0.09203000  0.31148000  1.0 0.6009727654
C  C36  1  0.21945000  0.40797000  0.78058000  1.0 0.6009727654
C  C37  1  0.62739000  0.21942000  0.93887000  1.0 0.6009727654
C  C38  1  0.78055000  0.68852000  0.56113000  1.0 0.6009727654
C  C39  1  0.87261000  0.81148000  0.59203000  1.0 0.6009727654
C  C40  1  0.71945000  0.28058000  0.90797000  1.0 0.6009727654
C  C41  1  0.21942000  0.93887000  0.62739000  1.0 0.6009727654
C  C42  1  0.68852000  0.56113000  0.78055000  1.0 0.6009727654
C  C43  1  0.81148000  0.59203000  0.87261000  1.0 0.6009727654
C  C44  1  0.28058000  0.90797000  0.71945000  1.0 0.6009727654
C  C45  1  0.93887000  0.62739000  0.21942000  1.0 0.6009727654
C  C46  1  0.56113000  0.78055000  0.68852000  1.0 0.6009727654
C  C47  1  0.59203000  0.87261000  0.81148000  1.0 0.6009727654
C  C48  1  0.90797000  0.71945000  0.28058000  1.0 0.6009727654
C  C49  1  0.64379000  0.47290000  0.84225000  1.0 -0.0229108997
C  C50  1  0.13065000  0.80154000  0.65775000  1.0 -0.0229108997
C  C51  1  0.36935000  0.02710000  0.67089000  1.0 -0.0229108997
C  C52  1  0.85621000  0.69846000  0.82911000  1.0 -0.0229108997
C  C53  1  0.84225000  0.64379000  0.47290000  1.0 -0.0229108997
C  C54  1  0.65775000  0.13065000  0.80154000  1.0 -0.0229108997
C  C55  1  0.67089000  0.36935000  0.02710000  1.0 -0.0229108997
C  C56  1  0.82911000  0.85621000  0.69846000  1.0 -0.0229108997
C  C57  1  0.47290000  0.84225000  0.64379000  1.0 -0.0229108997
C  C58  1  0.80154000  0.65775000  0.13065000  1.0 -0.0229108997
C  C59  1  0.02710000  0.67089000  0.36935000  1.0 -0.0229108997
C  C60  1  0.69846000  0.82911000  0.85621000  1.0 -0.0229108997
C  C61  1  0.97290000  0.14379000  0.34225000  1.0 -0.0229108997
C  C62  1  0.30154000  0.63065000  0.15775000  1.0 -0.0229108997
C  C63  1  0.52710000  0.86935000  0.17089000  1.0 -0.0229108997
C  C64  1  0.19846000  0.35621000  0.32911000  1.0 -0.0229108997
C  C65  1  0.14379000  0.34225000  0.97290000  1.0 -0.0229108997
C  C66  1  0.63065000  0.15775000  0.30154000  1.0 -0.0229108997
C  C67  1  0.86935000  0.17089000  0.52710000  1.0 -0.0229108997
C  C68  1  0.35621000  0.32911000  0.19846000  1.0 -0.0229108997
C  C69  1  0.34225000  0.97290000  0.14379000  1.0 -0.0229108997
C  C70  1  0.15775000  0.30154000  0.63065000  1.0 -0.0229108997
C  C71  1  0.17089000  0.52710000  0.86935000  1.0 -0.0229108997
C  C72  1  0.32911000  0.19846000  0.35621000  1.0 -0.0229108997
C  C73  1  0.62150000  0.42368000  0.83242000  1.0 0.2333154429
C  C74  1  0.09126000  0.78908000  0.66758000  1.0 0.2333154429
C  C75  1  0.40874000  0.07632000  0.69782000  1.0 0.2333154429
C  C76  1  0.87850000  0.71092000  0.80218000  1.0 0.2333154429
C  C77  1  0.83242000  0.62150000  0.42368000  1.0 0.2333154429
C  C78  1  0.66758000  0.09126000  0.78908000  1.0 0.2333154429
C  C79  1  0.69782000  0.40874000  0.07632000  1.0 0.2333154429
C  C80  1  0.80218000  0.87850000  0.71092000  1.0 0.2333154429
C  C81  1  0.42368000  0.83242000  0.62150000  1.0 0.2333154429
C  C82  1  0.78908000  0.66758000  0.09126000  1.0 0.2333154429
C  C83  1  0.07632000  0.69782000  0.40874000  1.0 0.2333154429
C  C84  1  0.71092000  0.80218000  0.87850000  1.0 0.2333154429
C  C85  1  0.92368000  0.12150000  0.33242000  1.0 0.2333154429
C  C86  1  0.28908000  0.59126000  0.16758000  1.0 0.2333154429
C  C87  1  0.57632000  0.90874000  0.19782000  1.0 0.2333154429
C  C88  1  0.21092000  0.37850000  0.30218000  1.0 0.2333154429
C  C89  1  0.12150000  0.33242000  0.92368000  1.0 0.2333154429
C  C90  1  0.59126000  0.16758000  0.28908000  1.0 0.2333154429
C  C91  1  0.90874000  0.19782000  0.57632000  1.0 0.2333154429
C  C92  1  0.37850000  0.30218000  0.21092000  1.0 0.2333154429
C  C93  1  0.33242000  0.92368000  0.12150000  1.0 0.2333154429
C  C94  1  0.16758000  0.28908000  0.59126000  1.0 0.2333154429
C  C95  1  0.19782000  0.57632000  0.90874000  1.0 0.2333154429
C  C96  1  0.30218000  0.21092000  0.37850000  1.0 0.2333154429
C  C97  1  0.71742000  0.49371000  0.90339000  1.0 0.0045323013
C  C98  1  0.09032000  0.81403000  0.59661000  1.0 0.0054468351
C  C99  1  0.40968000  0.00629000  0.72371000  1.0 0.0045323013
C  C100  1  0.78258000  0.68597000  0.77629000  1.0 0.0045323013
C  C101  1  0.90339000  0.71742000  0.49371000  1.0 0.0045323013
C  C102  1  0.59661000  0.09032000  0.81403000  1.0 0.0045323013
C  C103  1  0.72371000  0.40968000  0.00629000  1.0 0.0045323013
C  C104  1  0.77629000  0.78258000  0.68597000  1.0 0.0054468351
C  C105  1  0.49371000  0.90339000  0.71742000  1.0 0.0045323013
C  C106  1  0.81403000  0.59661000  0.09032000  1.0 0.0045323013
C  C107  1  0.00629000  0.72371000  0.40968000  1.0 0.0045323013
C  C108  1  0.68597000  0.77629000  0.78258000  1.0 0.0045323013
C  C109  1  0.99371000  0.21742000  0.40339000  1.0 0.0045323013
C  C110  1  0.31403000  0.59032000  0.09661000  1.0 0.0045323013
C  C111  1  0.50629000  0.90968000  0.22371000  1.0 0.0045323013
C  C112  1  0.18597000  0.28258000  0.27629000  1.0 0.0045323013
C  C113  1  0.21742000  0.40339000  0.99371000  1.0 0.0045323013
C  C114  1  0.59032000  0.09661000  0.31403000  1.0 0.0045323013
C  C115  1  0.90968000  0.22371000  0.50629000  1.0 0.0045323013
C  C116  1  0.28258000  0.27629000  0.18597000  1.0 0.0045323013
C  C117  1  0.40339000  0.99371000  0.21742000  1.0 0.0045323013
C  C118  1  0.09661000  0.31403000  0.59032000  1.0 0.0045323013
C  C119  1  0.22371000  0.50629000  0.90968000  1.0 0.0045323013
C  C120  1  0.27629000  0.18597000  0.28258000  1.0 0.0045323013
C  C121  1  0.63116000  0.36340000  0.85948000  1.0 0.6155019315
C  C122  1  0.00392000  0.77168000  0.64052000  1.0 0.6155019315
C  C123  1  0.49608000  0.13660000  0.76776000  1.0 0.6148682149
C  C124  1  0.86884000  0.72832000  0.73224000  1.0 0.6155019315
C  C125  1  0.85948000  0.63116000  0.36340000  1.0 0.6155019315
C  C126  1  0.64052000  0.00392000  0.77168000  1.0 0.6155019315
C  C127  1  0.76776000  0.49608000  0.13660000  1.0 0.6155019315
C  C128  1  0.73224000  0.86884000  0.72832000  1.0 0.6155019315
C  C129  1  0.36340000  0.85948000  0.63116000  1.0 0.6148682149
C  C130  1  0.77168000  0.64052000  0.00392000  1.0 0.6155019315
C  C131  1  0.13660000  0.76776000  0.49608000  1.0 0.6148682149
C  C132  1  0.72832000  0.73224000  0.86884000  1.0 0.6155019315
C  C133  1  0.86340000  0.13116000  0.35948000  1.0 0.6148682149
C  C134  1  0.27168000  0.50392000  0.14052000  1.0 0.6155019315
C  C135  1  0.63660000  0.99608000  0.26776000  1.0 0.6155019315
C  C136  1  0.22832000  0.36884000  0.23224000  1.0 0.6148682149
C  C137  1  0.13116000  0.35948000  0.86340000  1.0 0.6148682149
C  C138  1  0.50392000  0.14052000  0.27168000  1.0 0.6148682149
C  C139  1  0.99608000  0.26776000  0.63660000  1.0 0.6148682149
C  C140  1  0.36884000  0.23224000  0.22832000  1.0 0.6155019315
C  C141  1  0.35948000  0.86340000  0.13116000  1.0 0.6148682149
C  C142  1  0.14052000  0.27168000  0.50392000  1.0 0.6148682149
C  C143  1  0.26776000  0.63660000  0.99608000  1.0 0.6148682149
C  C144  1  0.23224000  0.22832000  0.36884000  1.0 0.6155019315
C  C145  1  0.69859000  0.44745000  0.89692000  1.0 -0.1398324044
C  C146  1  0.05053000  0.80167000  0.60308000  1.0 -0.1398324044
C  C147  1  0.44947000  0.05255000  0.75114000  1.0 -0.1398324044
C  C148  1  0.80141000  0.69833000  0.74886000  1.0 -0.1398324044
C  C149  1  0.89692000  0.69859000  0.44745000  1.0 -0.1398324044
C  C150  1  0.60308000  0.05053000  0.80167000  1.0 -0.1398324044
C  C151  1  0.75114000  0.44947000  0.05255000  1.0 -0.1398324044
C  C152  1  0.74886000  0.80141000  0.69833000  1.0 -0.1398324044
C  C153  1  0.44745000  0.89692000  0.69859000  1.0 -0.1398324044
C  C154  1  0.80167000  0.60308000  0.05053000  1.0 -0.1398324044
C  C155  1  0.05255000  0.75114000  0.44947000  1.0 -0.1398324044
C  C156  1  0.69833000  0.74886000  0.80141000  1.0 -0.1398324044
C  C157  1  0.94745000  0.19859000  0.39692000  1.0 -0.1398324044
C  C158  1  0.30167000  0.55053000  0.10308000  1.0 -0.1398324044
C  C159  1  0.55255000  0.94947000  0.25114000  1.0 -0.1398324044
C  C160  1  0.19833000  0.30141000  0.24886000  1.0 -0.1398324044
C  C161  1  0.19859000  0.39692000  0.94745000  1.0 -0.1398324044
C  C162  1  0.55053000  0.10308000  0.30167000  1.0 -0.1398324044
C  C163  1  0.94947000  0.25114000  0.55255000  1.0 -0.1398324044
C  C164  1  0.30141000  0.24886000  0.19833000  1.0 -0.1398324044
C  C165  1  0.39692000  0.94745000  0.19859000  1.0 -0.1398324044
C  C166  1  0.10308000  0.30167000  0.55053000  1.0 -0.1398324044
C  C167  1  0.25114000  0.55255000  0.94947000  1.0 -0.1398324044
C  C168  1  0.24886000  0.19833000  0.30141000  1.0 -0.1398324044
C  C169  1  0.59252000  0.20503000  0.73861000  1.0 0.6148682149
C  C170  1  0.96642000  0.85391000  0.76139000  1.0 0.6148682149
C  C171  1  0.53358000  0.29497000  0.88749000  1.0 0.6148682149
C  C172  1  0.90748000  0.64609000  0.61251000  1.0 0.6148682149
C  C173  1  0.73861000  0.59252000  0.20503000  1.0 0.6155019315
C  C174  1  0.76139000  0.96642000  0.85391000  1.0 0.6148682149
C  C175  1  0.88749000  0.53358000  0.29497000  1.0 0.6148682149
C  C176  1  0.61251000  0.90748000  0.64609000  1.0 0.6148682149
C  C177  1  0.20503000  0.73861000  0.59252000  1.0 0.6148682149
C  C178  1  0.85391000  0.76139000  0.96642000  1.0 0.6148682149
C  C179  1  0.29497000  0.88749000  0.53358000  1.0 0.6148682149
C  C180  1  0.64609000  0.61251000  0.90748000  1.0 0.6148682149
C  C181  1  0.70503000  0.09252000  0.23861000  1.0 0.6148682149
C  C182  1  0.35391000  0.46642000  0.26139000  1.0 0.6148682149
C  C183  1  0.79497000  0.03358000  0.38749000  1.0 0.6148682149
C  C184  1  0.14609000  0.40748000  0.11251000  1.0 0.6148682149
C  C185  1  0.09252000  0.23861000  0.70503000  1.0 0.6148682149
C  C186  1  0.46642000  0.26139000  0.35391000  1.0 0.6148682149
C  C187  1  0.03358000  0.38749000  0.79497000  1.0 0.6148682149
C  C188  1  0.40748000  0.11251000  0.14609000  1.0 0.6148682149
C  C189  1  0.23861000  0.70503000  0.09252000  1.0 0.6148682149
C  C190  1  0.26139000  0.35391000  0.46642000  1.0 0.6148682149
C  C191  1  0.38749000  0.79497000  0.03358000  1.0 0.6148682149
C  C192  1  0.11251000  0.14609000  0.40748000  1.0 0.6148682149
C  C193  1  0.60347000  0.19496000  0.69749000  1.0 -0.040981898
C  C194  1  0.99747000  0.90598000  0.80251000  1.0 -0.040981898
C  C195  1  0.50253000  0.30504000  0.90851000  1.0 -0.040981898
C  C196  1  0.89653000  0.59402000  0.59149000  1.0 -0.040981898
C  C197  1  0.69749000  0.60347000  0.19496000  1.0 -0.040981898
C  C198  1  0.80251000  0.99747000  0.90598000  1.0 -0.040981898
C  C199  1  0.90851000  0.50253000  0.30504000  1.0 -0.040981898
C  C200  1  0.59149000  0.89653000  0.59402000  1.0 -0.040981898
C  C201  1  0.19496000  0.69749000  0.60347000  1.0 -0.040981898
C  C202  1  0.90598000  0.80251000  0.99747000  1.0 -0.040981898
C  C203  1  0.30504000  0.90851000  0.50253000  1.0 -0.040981898
C  C204  1  0.59402000  0.59149000  0.89653000  1.0 -0.040981898
C  C205  1  0.69496000  0.10347000  0.19749000  1.0 -0.040981898
C  C206  1  0.40598000  0.49747000  0.30251000  1.0 -0.040981898
C  C207  1  0.80504000  0.00253000  0.40851000  1.0 -0.040981898
C  C208  1  0.09402000  0.39653000  0.09149000  1.0 -0.040981898
C  C209  1  0.10347000  0.19749000  0.69496000  1.0 -0.040981898
C  C210  1  0.49747000  0.30251000  0.40598000  1.0 -0.040981898
C  C211  1  0.00253000  0.40851000  0.80504000  1.0 -0.040981898
C  C212  1  0.39653000  0.09149000  0.09402000  1.0 -0.040981898
C  C213  1  0.19749000  0.69496000  0.10347000  1.0 -0.040981898
C  C214  1  0.30251000  0.40598000  0.49747000  1.0 -0.040981898
C  C215  1  0.40851000  0.80504000  0.00253000  1.0 -0.040981898
C  C216  1  0.09149000  0.09402000  0.39653000  1.0 -0.040981898
C  C217  1  0.70353000  0.13310000  0.47585000  1.0 -0.0598422805
C  C218  1  0.15725000  0.22768000  0.02415000  1.0 -0.0598422805
C  C219  1  0.34275000  0.36690000  0.07043000  1.0 -0.0598422805
C  C220  1  0.79647000  0.27232000  0.42957000  1.0 -0.0598422805
C  C221  1  0.47585000  0.70353000  0.13310000  1.0 -0.0598422805
C  C222  1  0.02415000  0.15725000  0.22768000  1.0 -0.0598422805
C  C223  1  0.07043000  0.34275000  0.36690000  1.0 -0.0598422805
C  C224  1  0.42957000  0.79647000  0.27232000  1.0 -0.0598422805
C  C225  1  0.13310000  0.47585000  0.70353000  1.0 -0.0598422805
C  C226  1  0.22768000  0.02415000  0.15725000  1.0 -0.0598422805
C  C227  1  0.36690000  0.07043000  0.34275000  1.0 -0.0598422805
C  C228  1  0.27232000  0.42957000  0.79647000  1.0 -0.0598422805
C  C229  1  0.63310000  0.20353000  0.97585000  1.0 -0.0598422805
C  C230  1  0.72768000  0.65725000  0.52415000  1.0 -0.0598422805
C  C231  1  0.86690000  0.84275000  0.57043000  1.0 -0.0598422805
C  C232  1  0.77232000  0.29647000  0.92957000  1.0 -0.0598422805
C  C233  1  0.20353000  0.97585000  0.63310000  1.0 -0.0598422805
C  C234  1  0.65725000  0.52415000  0.72768000  1.0 -0.0598422805
C  C235  1  0.84275000  0.57043000  0.86690000  1.0 -0.0598422805
C  C236  1  0.29647000  0.92957000  0.77232000  1.0 -0.0598422805
C  C237  1  0.97585000  0.63310000  0.20353000  1.0 -0.0598422805
C  C238  1  0.52415000  0.72768000  0.65725000  1.0 -0.0598422805
C  C239  1  0.57043000  0.86690000  0.84275000  1.0 -0.0598422805
C  C240  1  0.92957000  0.77232000  0.29647000  1.0 -0.0598422805
C  C241  1  0.58772000  0.20953000  0.66405000  1.0 -0.0820447579
C  C242  1  0.04548000  0.92367000  0.83595000  1.0 -0.0820447579
C  C243  1  0.45452000  0.29047000  0.87819000  1.0 -0.0820447579
C  C244  1  0.91228000  0.57633000  0.62181000  1.0 -0.0820447579
C  C245  1  0.66405000  0.58772000  0.20953000  1.0 -0.0820447579
C  C246  1  0.83595000  0.04548000  0.92367000  1.0 -0.0820447579
C  C247  1  0.87819000  0.45452000  0.29047000  1.0 -0.0820447579
C  C248  1  0.62181000  0.91228000  0.57633000  1.0 -0.0820447579
C  C249  1  0.20953000  0.66405000  0.58772000  1.0 -0.0820447579
C  C250  1  0.92367000  0.83595000  0.04548000  1.0 -0.0820447579
C  C251  1  0.29047000  0.87819000  0.45452000  1.0 -0.0820447579
C  C252  1  0.57633000  0.62181000  0.91228000  1.0 -0.0820447579
C  C253  1  0.70953000  0.08772000  0.16405000  1.0 -0.0820447579
C  C254  1  0.42367000  0.54548000  0.33595000  1.0 -0.0820447579
C  C255  1  0.79047000  0.95452000  0.37819000  1.0 -0.0820447579
C  C256  1  0.07633000  0.41228000  0.12181000  1.0 -0.0820447579
C  C257  1  0.08772000  0.16405000  0.70953000  1.0 -0.0820447579
C  C258  1  0.54548000  0.33595000  0.42367000  1.0 -0.0820447579
C  C259  1  0.95452000  0.37819000  0.79047000  1.0 -0.0820447579
C  C260  1  0.41228000  0.12181000  0.07633000  1.0 -0.0820447579
C  C261  1  0.16405000  0.70953000  0.08772000  1.0 -0.0820447579
C  C262  1  0.33595000  0.42367000  0.54548000  1.0 -0.0820447579
C  C263  1  0.37819000  0.79047000  0.95452000  1.0 -0.0820447579
C  C264  1  0.12181000  0.07633000  0.41228000  1.0 -0.0820447579
C  C265  1  0.64740000  0.14390000  0.50330000  1.0 -0.1499359464
C  C266  1  0.14060000  0.14410000  0.99670000  1.0 -0.1499359464
C  C267  1  0.35940000  0.35610000  0.00350000  1.0 -0.1499359464
C  C268  1  0.85260000  0.35590000  0.49650000  1.0 -0.1499359464
C  C269  1  0.50330000  0.64740000  0.14390000  1.0 -0.1499359464
C  C270  1  0.99670000  0.14060000  0.14410000  1.0 -0.1499359464
C  C271  1  0.00350000  0.35940000  0.35610000  1.0 -0.1499359464
C  C272  1  0.49650000  0.85260000  0.35590000  1.0 -0.1499359464
C  C273  1  0.14390000  0.50330000  0.64740000  1.0 -0.1499359464
C  C274  1  0.14410000  0.99670000  0.14060000  1.0 -0.1499359464
C  C275  1  0.35610000  0.00350000  0.35940000  1.0 -0.1499359464
C  C276  1  0.35590000  0.49650000  0.85260000  1.0 -0.1499359464
C  C277  1  0.64390000  0.14740000  0.00330000  1.0 -0.1499359464
C  C278  1  0.64410000  0.64060000  0.49670000  1.0 -0.1499359464
C  C279  1  0.85610000  0.85940000  0.50350000  1.0 -0.1499359464
C  C280  1  0.85590000  0.35260000  0.99650000  1.0 -0.1499359464
C  C281  1  0.14740000  0.00330000  0.64390000  1.0 -0.1499359464
C  C282  1  0.64060000  0.49670000  0.64410000  1.0 -0.1499359464
C  C283  1  0.85940000  0.50350000  0.85610000  1.0 -0.1499359464
C  C284  1  0.35260000  0.99650000  0.85590000  1.0 -0.1499359464
C  C285  1  0.00330000  0.64390000  0.14740000  1.0 -0.1499359464
C  C286  1  0.49670000  0.64410000  0.64060000  1.0 -0.1499359464
C  C287  1  0.50350000  0.85610000  0.85940000  1.0 -0.1499359464
C  C288  1  0.99650000  0.85590000  0.35260000  1.0 -0.1499359464
C  C289  1  0.67350000  0.14720000  0.54530000  1.0 0.1634630672
C  C290  1  0.10190000  0.12820000  0.95470000  1.0 0.1634630672
C  C291  1  0.39810000  0.35280000  0.02630000  1.0 0.1634630672
C  C292  1  0.82650000  0.37180000  0.47370000  1.0 0.1634630672
C  C293  1  0.54530000  0.67350000  0.14720000  1.0 0.1634630672
C  C294  1  0.95470000  0.10190000  0.12820000  1.0 0.1634630672
C  C295  1  0.02630000  0.39810000  0.35280000  1.0 0.1634630672
C  C296  1  0.47370000  0.82650000  0.37180000  1.0 0.1634630672
C  C297  1  0.14720000  0.54530000  0.67350000  1.0 0.1634630672
C  C298  1  0.12820000  0.95470000  0.10190000  1.0 0.1634630672
C  C299  1  0.35280000  0.02630000  0.39810000  1.0 0.1634630672
C  C300  1  0.37180000  0.47370000  0.82650000  1.0 0.1634630672
C  C301  1  0.64720000  0.17350000  0.04530000  1.0 0.1634630672
C  C302  1  0.62820000  0.60190000  0.45470000  1.0 0.1634630672
C  C303  1  0.85280000  0.89810000  0.52630000  1.0 0.1634630672
C  C304  1  0.87180000  0.32650000  0.97370000  1.0 0.1634630672
C  C305  1  0.17350000  0.04530000  0.64720000  1.0 0.1634630672
C  C306  1  0.60190000  0.45470000  0.62820000  1.0 0.1634630672
C  C307  1  0.89810000  0.52630000  0.85280000  1.0 0.1634630672
C  C308  1  0.32650000  0.97370000  0.87180000  1.0 0.1634630672
C  C309  1  0.04530000  0.64720000  0.17350000  1.0 0.1634630672
C  C310  1  0.45470000  0.62820000  0.60190000  1.0 0.1634630672
C  C311  1  0.52630000  0.85280000  0.89810000  1.0 0.1634630672
C  C312  1  0.97370000  0.87180000  0.32650000  1.0 0.1634630672
C  C313  1  0.63023000  0.17380000  0.69323000  1.0 -0.0916067505
C  C314  1  0.98057000  0.93700000  0.80677000  1.0 -0.0916067505
C  C315  1  0.51943000  0.32620000  0.95643000  1.0 -0.0916067505
C  C316  1  0.86977000  0.56300000  0.54357000  1.0 -0.0916067505
C  C317  1  0.69323000  0.63023000  0.17380000  1.0 -0.0916067505
C  C318  1  0.80677000  0.98057000  0.93700000  1.0 -0.0916067505
C  C319  1  0.95643000  0.51943000  0.32620000  1.0 -0.0916067505
C  C320  1  0.54357000  0.86977000  0.56300000  1.0 -0.0916067505
C  C321  1  0.17380000  0.69323000  0.63023000  1.0 -0.0916067505
C  C322  1  0.93700000  0.80677000  0.98057000  1.0 -0.0916067505
C  C323  1  0.32620000  0.95643000  0.51943000  1.0 -0.0916067505
C  C324  1  0.56300000  0.54357000  0.86977000  1.0 -0.0916067505
C  C325  1  0.67380000  0.13023000  0.19323000  1.0 -0.0916067505
C  C326  1  0.43700000  0.48057000  0.30677000  1.0 -0.0916067505
C  C327  1  0.82620000  0.01943000  0.45643000  1.0 -0.0916067505
C  C328  1  0.06300000  0.36977000  0.04357000  1.0 -0.0916067505
C  C329  1  0.13023000  0.19323000  0.67380000  1.0 -0.0916067505
C  C330  1  0.48057000  0.30677000  0.43700000  1.0 -0.0916067505
C  C331  1  0.01943000  0.45643000  0.82620000  1.0 -0.0916067505
C  C332  1  0.36977000  0.04357000  0.06300000  1.0 -0.0916067505
C  C333  1  0.19323000  0.67380000  0.13023000  1.0 -0.0916067505
C  C334  1  0.30677000  0.43700000  0.48057000  1.0 -0.0916067505
C  C335  1  0.45643000  0.82620000  0.01943000  1.0 -0.0916067505
C  C336  1  0.04357000  0.06300000  0.36977000  1.0 -0.0916067505
C  C337  1  0.73190000  0.13832000  0.52082000  1.0 -0.1029526283
C  C338  1  0.11750000  0.21108000  0.97918000  1.0 -0.1029526283
C  C339  1  0.38250000  0.36168000  0.09358000  1.0 -0.1029526283
C  C340  1  0.76810000  0.28892000  0.40642000  1.0 -0.1029526283
C  C341  1  0.52082000  0.73190000  0.13832000  1.0 -0.1029526283
C  C342  1  0.97918000  0.11750000  0.21108000  1.0 -0.1029526283
C  C343  1  0.09358000  0.38250000  0.36168000  1.0 -0.1029526283
C  C344  1  0.40642000  0.76810000  0.28892000  1.0 -0.1029526283
C  C345  1  0.13832000  0.52082000  0.73190000  1.0 -0.1029526283
C  C346  1  0.21108000  0.97918000  0.11750000  1.0 -0.1029526283
C  C347  1  0.36168000  0.09358000  0.38250000  1.0 -0.1029526283
C  C348  1  0.28892000  0.40642000  0.76810000  1.0 -0.1029526283
C  C349  1  0.63832000  0.23190000  0.02082000  1.0 -0.1029526283
C  C350  1  0.71108000  0.61750000  0.47918000  1.0 -0.1029526283
C  C351  1  0.86168000  0.88250000  0.59358000  1.0 -0.1029526283
C  C352  1  0.78892000  0.26810000  0.90642000  1.0 -0.1029526283
C  C353  1  0.23190000  0.02082000  0.63832000  1.0 -0.1029526283
C  C354  1  0.61750000  0.47918000  0.71108000  1.0 -0.1029526283
C  C355  1  0.88250000  0.59358000  0.86168000  1.0 -0.1029526283
C  C356  1  0.26810000  0.90642000  0.78892000  1.0 -0.1029526283
C  C357  1  0.02082000  0.63832000  0.23190000  1.0 -0.1029526283
C  C358  1  0.47918000  0.71108000  0.61750000  1.0 -0.1029526283
C  C359  1  0.59358000  0.86168000  0.88250000  1.0 -0.1029526283
C  C360  1  0.90642000  0.78892000  0.26810000  1.0 -0.1029526283
C  C361  1  0.71730000  0.14580000  0.55590000  1.0 -0.1633276137
C  C362  1  0.08990000  0.16140000  0.94410000  1.0 -0.1633276137
C  C363  1  0.41010000  0.35420000  0.07150000  1.0 -0.1633276137
C  C364  1  0.78270000  0.33860000  0.42850000  1.0 -0.1633276137
C  C365  1  0.55590000  0.71730000  0.14580000  1.0 -0.1633276137
C  C366  1  0.94410000  0.08990000  0.16140000  1.0 -0.1633276137
C  C367  1  0.07150000  0.41010000  0.35420000  1.0 -0.1633276137
C  C368  1  0.42850000  0.78270000  0.33860000  1.0 -0.1633276137
C  C369  1  0.14580000  0.55590000  0.71730000  1.0 -0.1633276137
C  C370  1  0.16140000  0.94410000  0.08990000  1.0 -0.1633276137
C  C371  1  0.35420000  0.07150000  0.41010000  1.0 -0.1633276137
C  C372  1  0.33860000  0.42850000  0.78270000  1.0 -0.1633276137
C  C373  1  0.64580000  0.21730000  0.05590000  1.0 -0.1633276137
C  C374  1  0.66140000  0.58990000  0.44410000  1.0 -0.1633276137
C  C375  1  0.85420000  0.91010000  0.57150000  1.0 -0.1633276137
C  C376  1  0.83860000  0.28270000  0.92850000  1.0 -0.1633276137
C  C377  1  0.21730000  0.05590000  0.64580000  1.0 -0.1633276137
C  C378  1  0.58990000  0.44410000  0.66140000  1.0 -0.1633276137
C  C379  1  0.91010000  0.57150000  0.85420000  1.0 -0.1633276137
C  C380  1  0.28270000  0.92850000  0.83860000  1.0 -0.1633276137
C  C381  1  0.05590000  0.64580000  0.21730000  1.0 -0.1633276137
C  C382  1  0.44410000  0.66140000  0.58990000  1.0 -0.1633276137
C  C383  1  0.57150000  0.85420000  0.91010000  1.0 -0.1633276137
C  C384  1  0.92850000  0.83860000  0.28270000  1.0 -0.1633276137
C  C385  1  0.62412000  0.17895000  0.62187000  1.0 0.1526983964
C  C386  1  0.05708000  0.00225000  0.87813000  1.0 0.1526983964
C  C387  1  0.44292000  0.32105000  0.94517000  1.0 0.1526983964
C  C388  1  0.87588000  0.49775000  0.55483000  1.0 0.1526983964
C  C389  1  0.62187000  0.62412000  0.17895000  1.0 0.1526983964
C  C390  1  0.87813000  0.05708000  0.00225000  1.0 0.1526983964
C  C391  1  0.94517000  0.44292000  0.32105000  1.0 0.1526983964
C  C392  1  0.55483000  0.87588000  0.49775000  1.0 0.1526983964
C  C393  1  0.17895000  0.62187000  0.62412000  1.0 0.1526983964
C  C394  1  0.00225000  0.87813000  0.05708000  1.0 0.1526983964
C  C395  1  0.32105000  0.94517000  0.44292000  1.0 0.1526983964
C  C396  1  0.49775000  0.55483000  0.87588000  1.0 0.1526983964
C  C397  1  0.67895000  0.12412000  0.12187000  1.0 0.1526983964
C  C398  1  0.50225000  0.55708000  0.37813000  1.0 0.1526983964
C  C399  1  0.82105000  0.94292000  0.44517000  1.0 0.1526983964
C  C400  1  0.99775000  0.37588000  0.05483000  1.0 0.1526983964
C  C401  1  0.12412000  0.12187000  0.67895000  1.0 0.1526983964
C  C402  1  0.55708000  0.37813000  0.50225000  1.0 0.1526983964
C  C403  1  0.94292000  0.44517000  0.82105000  1.0 0.1526983964
C  C404  1  0.37588000  0.05483000  0.99775000  1.0 0.1526983964
C  C405  1  0.12187000  0.67895000  0.12412000  1.0 0.1526983964
C  C406  1  0.37813000  0.50225000  0.55708000  1.0 0.1526983964
C  C407  1  0.44517000  0.82105000  0.94292000  1.0 0.1526983964
C  C408  1  0.05483000  0.99775000  0.37588000  1.0 0.1526983964
C  C409  1  0.66063000  0.13544000  0.46667000  1.0 -0.0916067505
C  C410  1  0.16877000  0.19396000  0.03333000  1.0 -0.0916067505
C  C411  1  0.33123000  0.36456000  0.02519000  1.0 -0.0916067505
C  C412  1  0.83937000  0.30604000  0.47481000  1.0 -0.0916067505
C  C413  1  0.46667000  0.66063000  0.13544000  1.0 -0.0916067505
C  C414  1  0.03333000  0.16877000  0.19396000  1.0 -0.0916067505
C  C415  1  0.02519000  0.33123000  0.36456000  1.0 -0.0916067505
C  C416  1  0.47481000  0.83937000  0.30604000  1.0 -0.0916067505
C  C417  1  0.13544000  0.46667000  0.66063000  1.0 -0.0916067505
C  C418  1  0.19396000  0.03333000  0.16877000  1.0 -0.0916067505
C  C419  1  0.36456000  0.02519000  0.33123000  1.0 -0.0916067505
C  C420  1  0.30604000  0.47481000  0.83937000  1.0 -0.0916067505
C  C421  1  0.63544000  0.16063000  0.96667000  1.0 -0.0916067505
C  C422  1  0.69396000  0.66877000  0.53333000  1.0 -0.0916067505
C  C423  1  0.86456000  0.83123000  0.52519000  1.0 -0.0916067505
C  C424  1  0.80604000  0.33937000  0.97481000  1.0 -0.0916067505
C  C425  1  0.16063000  0.96667000  0.63544000  1.0 -0.0916067505
C  C426  1  0.66877000  0.53333000  0.69396000  1.0 -0.0916067505
C  C427  1  0.83123000  0.52519000  0.86456000  1.0 -0.0916067505
C  C428  1  0.33937000  0.97481000  0.80604000  1.0 -0.0916067505
C  C429  1  0.96667000  0.63544000  0.16063000  1.0 -0.0916067505
C  C430  1  0.53333000  0.69396000  0.66877000  1.0 -0.0916067505
C  C431  1  0.52519000  0.86456000  0.83123000  1.0 -0.0916067505
C  C432  1  0.97481000  0.80604000  0.33937000  1.0 -0.0916067505
C  C433  1  0.59990000  0.20030000  0.62680000  1.0 -0.1398324044
C  C434  1  0.07350000  0.97310000  0.87320000  1.0 -0.1398324044
C  C435  1  0.42650000  0.29970000  0.89960000  1.0 -0.1398324044
C  C436  1  0.90010000  0.52690000  0.60040000  1.0 -0.1398324044
C  C437  1  0.62680000  0.59990000  0.20030000  1.0 -0.1398324044
C  C438  1  0.87320000  0.07350000  0.97310000  1.0 -0.1398324044
C  C439  1  0.89960000  0.42650000  0.29970000  1.0 -0.1398324044
C  C440  1  0.60040000  0.90010000  0.52690000  1.0 -0.1398324044
C  C441  1  0.20030000  0.62680000  0.59990000  1.0 -0.1398324044
C  C442  1  0.97310000  0.87320000  0.07350000  1.0 -0.1398324044
C  C443  1  0.29970000  0.89960000  0.42650000  1.0 -0.1398324044
C  C444  1  0.52690000  0.60040000  0.90010000  1.0 -0.1398324044
C  C445  1  0.70030000  0.09990000  0.12680000  1.0 -0.1398324044
C  C446  1  0.47310000  0.57350000  0.37320000  1.0 -0.1398324044
C  C447  1  0.79970000  0.92650000  0.39960000  1.0 -0.1398324044
C  C448  1  0.02690000  0.40010000  0.10040000  1.0 -0.1398324044
C  C449  1  0.09990000  0.12680000  0.70030000  1.0 -0.1398324044
C  C450  1  0.57350000  0.37320000  0.47310000  1.0 -0.1398324044
C  C451  1  0.92650000  0.39960000  0.79970000  1.0 -0.1398324044
C  C452  1  0.40010000  0.10040000  0.02690000  1.0 -0.1398324044
C  C453  1  0.12680000  0.70030000  0.09990000  1.0 -0.1398324044
C  C454  1  0.37320000  0.47310000  0.57350000  1.0 -0.1398324044
C  C455  1  0.39960000  0.79970000  0.92650000  1.0 -0.1398324044
C  C456  1  0.10040000  0.02690000  0.40010000  1.0 -0.1398324044
C  C457  1  0.63920000  0.16363000  0.65383000  1.0 -0.1754828714
C  C458  1  0.00980000  0.98537000  0.84617000  1.0 -0.1754828714
C  C459  1  0.49020000  0.33637000  0.97557000  1.0 -0.1754828714
C  C460  1  0.86080000  0.51463000  0.52443000  1.0 -0.1754828714
C  C461  1  0.65383000  0.63920000  0.16363000  1.0 -0.1754828714
C  C462  1  0.84617000  0.00980000  0.98537000  1.0 -0.1754828714
C  C463  1  0.97557000  0.49020000  0.33637000  1.0 -0.1754828714
C  C464  1  0.52443000  0.86080000  0.51463000  1.0 -0.1754828714
C  C465  1  0.16363000  0.65383000  0.63920000  1.0 -0.1754828714
C  C466  1  0.98537000  0.84617000  0.00980000  1.0 -0.1754828714
C  C467  1  0.33637000  0.97557000  0.49020000  1.0 -0.1754828714
C  C468  1  0.51463000  0.52443000  0.86080000  1.0 -0.1754828714
C  C469  1  0.66363000  0.13920000  0.15383000  1.0 -0.1754828714
C  C470  1  0.48537000  0.50980000  0.34617000  1.0 -0.1754828714
C  C471  1  0.83637000  0.99020000  0.47557000  1.0 -0.1670629807
C  C472  1  0.01463000  0.36080000  0.02443000  1.0 -0.1754828714
C  C473  1  0.13920000  0.15383000  0.66363000  1.0 -0.1754828714
C  C474  1  0.50980000  0.34617000  0.48537000  1.0 -0.1754828714
C  C475  1  0.99020000  0.47557000  0.83637000  1.0 -0.1754828714
C  C476  1  0.36080000  0.02443000  0.01463000  1.0 -0.1754828714
C  C477  1  0.15383000  0.66363000  0.13920000  1.0 -0.1754828714
C  C478  1  0.34617000  0.48537000  0.50980000  1.0 -0.1754828714
C  C479  1  0.47557000  0.83637000  0.99020000  1.0 -0.1754828714
C  C480  1  0.02443000  0.01463000  0.36080000  1.0 -0.1754828714
N  N1  1  0.68981000  0.50605000  0.87562000  1.0 -0.2229526496
N  N2  1  0.13043000  0.81419000  0.62438000  1.0 -0.2229526496
N  N3  1  0.36957000  0.99395000  0.68376000  1.0 -0.2229526496
N  N4  1  0.81019000  0.68581000  0.81624000  1.0 -0.2229526496
N  N5  1  0.87562000  0.68981000  0.50605000  1.0 -0.2229526496
N  N6  1  0.62438000  0.13043000  0.81419000  1.0 -0.2229526496
N  N7  1  0.68376000  0.36957000  0.99395000  1.0 -0.2229526496
N  N8  1  0.81624000  0.81019000  0.68581000  1.0 -0.2229526496
N  N9  1  0.50605000  0.87562000  0.68981000  1.0 -0.2229526496
N  N10  1  0.81419000  0.62438000  0.13043000  1.0 -0.2229526496
N  N11  1  0.99395000  0.68376000  0.36957000  1.0 -0.2229526496
N  N12  1  0.68581000  0.81624000  0.81019000  1.0 -0.2229526496
N  N13  1  0.00605000  0.18981000  0.37562000  1.0 -0.2229526496
N  N14  1  0.31419000  0.63043000  0.12438000  1.0 -0.2229526496
N  N15  1  0.49395000  0.86957000  0.18376000  1.0 -0.2229526496
N  N16  1  0.18581000  0.31019000  0.31624000  1.0 -0.2229526496
N  N17  1  0.18981000  0.37562000  0.00605000  1.0 -0.2229526496
N  N18  1  0.63043000  0.12438000  0.31419000  1.0 -0.2229526496
N  N19  1  0.86957000  0.18376000  0.49395000  1.0 -0.2229526496
N  N20  1  0.31019000  0.31624000  0.18581000  1.0 -0.2229526496
N  N21  1  0.37562000  0.00605000  0.18981000  1.0 -0.2229526496
N  N22  1  0.12438000  0.31419000  0.63043000  1.0 -0.2229526496
N  N23  1  0.18376000  0.49395000  0.86957000  1.0 -0.2229526496
N  N24  1  0.31624000  0.18581000  0.31019000  1.0 -0.2229526496
N  N25  1  0.57476000  0.39286000  0.79614000  1.0 -0.5275780274
N  N26  1  0.09672000  0.77862000  0.70386000  1.0 -0.5275780274
N  N27  1  0.40328000  0.10714000  0.68190000  1.0 -0.5275780274
N  N28  1  0.92524000  0.72138000  0.81810000  1.0 -0.5275780274
N  N29  1  0.79614000  0.57476000  0.39286000  1.0 -0.5275780274
N  N30  1  0.70386000  0.09672000  0.77862000  1.0 -0.5275780274
N  N31  1  0.68190000  0.40328000  0.10714000  1.0 -0.5275780274
N  N32  1  0.81810000  0.92524000  0.72138000  1.0 -0.5275780274
N  N33  1  0.39286000  0.79614000  0.57476000  1.0 -0.5275780274
N  N34  1  0.77862000  0.70386000  0.09672000  1.0 -0.5275780274
N  N35  1  0.10714000  0.68190000  0.40328000  1.0 -0.5275780274
N  N36  1  0.72138000  0.81810000  0.92524000  1.0 -0.5275780274
N  N37  1  0.89286000  0.07476000  0.29614000  1.0 -0.5275780274
N  N38  1  0.27862000  0.59672000  0.20386000  1.0 -0.5275780274
N  N39  1  0.60714000  0.90328000  0.18190000  1.0 -0.5275780274
N  N40  1  0.22138000  0.42524000  0.31810000  1.0 -0.5275780274
N  N41  1  0.07476000  0.29614000  0.89286000  1.0 -0.5275780274
N  N42  1  0.59672000  0.20386000  0.27862000  1.0 -0.5275780274
N  N43  1  0.90328000  0.18190000  0.60714000  1.0 -0.5275780274
N  N44  1  0.42524000  0.31810000  0.22138000  1.0 -0.5275780274
N  N45  1  0.29614000  0.89286000  0.07476000  1.0 -0.5275780274
N  N46  1  0.20386000  0.27862000  0.59672000  1.0 -0.5275780274
N  N47  1  0.18190000  0.60714000  0.90328000  1.0 -0.5275780274
N  N48  1  0.31810000  0.22138000  0.42524000  1.0 -0.5275780274
N  N49  1  0.63330000  0.17023000  0.58133000  1.0 -0.1633276137
N  N50  1  0.08890000  0.05197000  0.91867000  1.0 -0.1670629807
N  N51  1  0.41110000  0.32977000  0.96307000  1.0 -0.1670629807
N  N52  1  0.86670000  0.44803000  0.53693000  1.0 -0.1633276137
N  N53  1  0.58133000  0.63330000  0.17023000  1.0 -0.1670629807
N  N54  1  0.91867000  0.08890000  0.05197000  1.0 -0.1633276137
N  N55  1  0.96307000  0.41110000  0.32977000  1.0 -0.1670629807
N  N56  1  0.53693000  0.86670000  0.44803000  1.0 -0.1670629807
N  N57  1  0.17023000  0.58133000  0.63330000  1.0 -0.1670629807
N  N58  1  0.05197000  0.91867000  0.08890000  1.0 -0.1670629807
N  N59  1  0.32977000  0.96307000  0.41110000  1.0 -0.1670629807
N  N60  1  0.44803000  0.53693000  0.86670000  1.0 -0.1633276137
N  N61  1  0.67023000  0.13330000  0.08133000  1.0 -0.1670629807
N  N62  1  0.55197000  0.58890000  0.41867000  1.0 -0.1670629807
N  N63  1  0.82977000  0.91110000  0.46307000  1.0 -0.1670629807
N  N64  1  0.94803000  0.36670000  0.03693000  1.0 -0.1670629807
N  N65  1  0.13330000  0.08133000  0.67023000  1.0 -0.1633276137
N  N66  1  0.58890000  0.41867000  0.55197000  1.0 -0.1670629807
N  N67  1  0.91110000  0.46307000  0.82977000  1.0 -0.1670629807
N  N68  1  0.36670000  0.03693000  0.94803000  1.0 -0.1670629807
N  N69  1  0.08133000  0.67023000  0.13330000  1.0 -0.1670629807
N  N70  1  0.41867000  0.55197000  0.58890000  1.0 -0.1633276137
N  N71  1  0.46307000  0.82977000  0.91110000  1.0 -0.1670629807
N  N72  1  0.03693000  0.94803000  0.36670000  1.0 -0.1670629807
N  N73  1  0.66621000  0.15933000  0.58654000  1.0 -0.1499359464
N  N74  1  0.07279000  0.07967000  0.91346000  1.0 -0.1499359464
N  N75  1  0.42721000  0.34067000  0.00688000  1.0 -0.1499359464
N  N76  1  0.83379000  0.42033000  0.49312000  1.0 -0.1499359464
N  N77  1  0.58654000  0.66621000  0.15933000  1.0 -0.1499359464
N  N78  1  0.91346000  0.07279000  0.07967000  1.0 -0.1499359464
N  N79  1  0.00688000  0.42721000  0.34067000  1.0 -0.1499359464
N  N80  1  0.49312000  0.83379000  0.42033000  1.0 -0.1499359464
N  N81  1  0.15933000  0.58654000  0.66621000  1.0 -0.1499359464
N  N82  1  0.07967000  0.91346000  0.07279000  1.0 -0.1499359464
N  N83  1  0.34067000  0.00688000  0.42721000  1.0 -0.1499359464
N  N84  1  0.42033000  0.49312000  0.83379000  1.0 -0.1499359464
N  N85  1  0.65933000  0.16621000  0.08654000  1.0 -0.1499359464
N  N86  1  0.57967000  0.57279000  0.41346000  1.0 -0.1499359464
N  N87  1  0.84067000  0.92721000  0.50688000  1.0 -0.1499359464
N  N88  1  0.92033000  0.33379000  0.99312000  1.0 -0.1398324044
N  N89  1  0.16621000  0.08654000  0.65933000  1.0 -0.1499359464
N  N90  1  0.57279000  0.41346000  0.57967000  1.0 -0.1499359464
N  N91  1  0.92721000  0.50688000  0.84067000  1.0 -0.1499359464
N  N92  1  0.33379000  0.99312000  0.92033000  1.0 -0.1499359464
N  N93  1  0.08654000  0.65933000  0.16621000  1.0 -0.1499359464
N  N94  1  0.41346000  0.57967000  0.57279000  1.0 -0.1499359464
N  N95  1  0.50688000  0.84067000  0.92721000  1.0 -0.1499359464
N  N96  1  0.99312000  0.92033000  0.33379000  1.0 -0.1499359464
O  O1  1  0.59786000  0.25000000  0.84786000  1.0 -1.0417132465
O  O2  1  0.90214000  0.75000000  0.65214000  1.0 -1.0417132465
O  O3  1  0.84786000  0.59786000  0.25000000  1.0 -1.0417132465
O  O4  1  0.65214000  0.90214000  0.75000000  1.0 -1.0417132465
O  O5  1  0.25000000  0.84786000  0.59786000  1.0 -1.0417132465
O  O6  1  0.75000000  0.65214000  0.90214000  1.0 -1.0417132465
O  O7  1  0.75000000  0.09786000  0.34786000  1.0 -1.0417132465
O  O8  1  0.25000000  0.40214000  0.15214000  1.0 -1.0417132465
O  O9  1  0.09786000  0.34786000  0.75000000  1.0 -1.0417132465
O  O10  1  0.40214000  0.15214000  0.25000000  1.0 -1.0417132465
O  O11  1  0.34786000  0.75000000  0.09786000  1.0 -1.0417132465
O  O12  1  0.15214000  0.25000000  0.40214000  1.0 -1.0417132465
O  O13  1  0.59043000  0.32818000  0.82151000  1.0 -0.5992094912
O  O14  1  0.00667000  0.76892000  0.67849000  1.0 -0.5992094912
O  O15  1  0.49333000  0.17182000  0.76225000  1.0 -0.5992094912
O  O16  1  0.90957000  0.73108000  0.73775000  1.0 -0.5992094912
O  O17  1  0.82151000  0.59043000  0.32818000  1.0 -0.5992094912
O  O18  1  0.67849000  0.00667000  0.76892000  1.0 -0.5992094912
O  O19  1  0.76225000  0.49333000  0.17182000  1.0 -0.5992094912
O  O20  1  0.73775000  0.90957000  0.73108000  1.0 -0.5992094912
O  O21  1  0.32818000  0.82151000  0.59043000  1.0 -0.5992094912
O  O22  1  0.76892000  0.67849000  0.00667000  1.0 -0.5992094912
O  O23  1  0.17182000  0.76225000  0.49333000  1.0 -0.5992094912
O  O24  1  0.73108000  0.73775000  0.90957000  1.0 -0.5992094912
O  O25  1  0.82818000  0.09043000  0.32151000  1.0 -0.5992094912
O  O26  1  0.26892000  0.50667000  0.17849000  1.0 -0.5992094912
O  O27  1  0.67182000  0.99333000  0.26225000  1.0 -0.5992094912
O  O28  1  0.23108000  0.40957000  0.23775000  1.0 -0.5992094912
O  O29  1  0.09043000  0.32151000  0.82818000  1.0 -0.5992094912
O  O30  1  0.50667000  0.17849000  0.26892000  1.0 -0.5992094912
O  O31  1  0.99333000  0.26225000  0.67182000  1.0 -0.5992094912
O  O32  1  0.40957000  0.23775000  0.23108000  1.0 -0.5992094912
O  O33  1  0.32151000  0.82818000  0.09043000  1.0 -0.5992094912
O  O34  1  0.17849000  0.26892000  0.50667000  1.0 -0.5992094912
O  O35  1  0.26225000  0.67182000  0.99333000  1.0 -0.5992094912
O  O36  1  0.23775000  0.23108000  0.40957000  1.0 -0.5992094912
O  O37  1  0.57179000  0.23078000  0.74409000  1.0 -0.592455515
O  O38  1  0.98669000  0.82770000  0.75591000  1.0 -0.592455515
O  O39  1  0.51331000  0.26922000  0.84101000  1.0 -0.592455515
O  O40  1  0.92821000  0.67230000  0.65899000  1.0 -0.592455515
O  O41  1  0.74409000  0.57179000  0.23078000  1.0 -0.592455515
O  O42  1  0.75591000  0.98669000  0.82770000  1.0 -0.592455515
O  O43  1  0.84101000  0.51331000  0.26922000  1.0 -0.592455515
O  O44  1  0.65899000  0.92821000  0.67230000  1.0 -0.592455515
O  O45  1  0.23078000  0.74409000  0.57179000  1.0 -0.592455515
O  O46  1  0.82770000  0.75591000  0.98669000  1.0 -0.592455515
O  O47  1  0.26922000  0.84101000  0.51331000  1.0 -0.592455515
O  O48  1  0.67230000  0.65899000  0.92821000  1.0 -0.592455515
O  O49  1  0.73078000  0.07179000  0.24409000  1.0 -0.592455515
O  O50  1  0.32770000  0.48669000  0.25591000  1.0 -0.592455515
O  O51  1  0.76922000  0.01331000  0.34101000  1.0 -0.592455515
O  O52  1  0.17230000  0.42821000  0.15899000  1.0 -0.592455515
O  O53  1  0.07179000  0.24409000  0.73078000  1.0 -0.592455515
O  O54  1  0.48669000  0.25591000  0.32770000  1.0 -0.592455515
O  O55  1  0.01331000  0.34101000  0.76922000  1.0 -0.592455515
O  O56  1  0.42821000  0.15899000  0.17230000  1.0 -0.592455515
O  O57  1  0.24409000  0.73078000  0.07179000  1.0 -0.592455515
O  O58  1  0.25591000  0.32770000  0.48669000  1.0 -0.592455515
O  O59  1  0.34101000  0.76922000  0.01331000  1.0 -0.592455515
O  O60  1  0.15899000  0.17230000  0.42821000  1.0 -0.592455515
O  O61  1  0.76013000  0.12964000  0.45075000  1.0 -0.5726541542
O  O62  1  0.17889000  0.30938000  0.04925000  1.0 -0.5726541542
O  O63  1  0.32111000  0.37036000  0.13049000  1.0 -0.5726541542
O  O64  1  0.73987000  0.19062000  0.36951000  1.0 -0.5726541542
O  O65  1  0.45075000  0.76013000  0.12964000  1.0 -0.5726541542
O  O66  1  0.04925000  0.17889000  0.30938000  1.0 -0.5726541542
O  O67  1  0.13049000  0.32111000  0.37036000  1.0 -0.5726541542
O  O68  1  0.36951000  0.73987000  0.19062000  1.0 -0.5726541542
O  O69  1  0.12964000  0.45075000  0.76013000  1.0 -0.5726541542
O  O70  1  0.30938000  0.04925000  0.17889000  1.0 -0.5726541542
O  O71  1  0.37036000  0.13049000  0.32111000  1.0 -0.5726541542
O  O72  1  0.19062000  0.36951000  0.73987000  1.0 -0.5726541542
O  O73  1  0.62964000  0.26013000  0.95075000  1.0 -0.5726541542
O  O74  1  0.80938000  0.67889000  0.54925000  1.0 -0.5726541542
O  O75  1  0.87036000  0.82111000  0.63049000  1.0 -0.5726541542
O  O76  1  0.69062000  0.23987000  0.86951000  1.0 -0.5726541542
O  O77  1  0.26013000  0.95075000  0.62964000  1.0 -0.5726541542
O  O78  1  0.67889000  0.54925000  0.80938000  1.0 -0.5726541542
O  O79  1  0.82111000  0.63049000  0.87036000  1.0 -0.5726541542
O  O80  1  0.23987000  0.86951000  0.69062000  1.0 -0.5726541542
O  O81  1  0.95075000  0.62964000  0.26013000  1.0 -0.5726541542
O  O82  1  0.54925000  0.80938000  0.67889000  1.0 -0.5726541542
O  O83  1  0.63049000  0.87036000  0.82111000  1.0 -0.5726541542
O  O84  1  0.86951000  0.69062000  0.23987000  1.0 -0.5726541542
O  O85  1  0.69118000  0.11975000  0.39851000  1.0 -0.5643994511
O  O86  1  0.22124000  0.29267000  0.10149000  1.0 -0.5643994511
O  O87  1  0.27876000  0.38025000  0.07143000  1.0 -0.5643994511
O  O88  1  0.80882000  0.20733000  0.42857000  1.0 -0.5643994511
O  O89  1  0.39851000  0.69118000  0.11975000  1.0 -0.5643994511
O  O90  1  0.10149000  0.22124000  0.29267000  1.0 -0.5643994511
O  O91  1  0.07143000  0.27876000  0.38025000  1.0 -0.5643994511
O  O92  1  0.42857000  0.80882000  0.20733000  1.0 -0.5643994511
O  O93  1  0.11975000  0.39851000  0.69118000  1.0 -0.5643994511
O  O94  1  0.29267000  0.10149000  0.22124000  1.0 -0.5643994511
O  O95  1  0.38025000  0.07143000  0.27876000  1.0 -0.5643994511
O  O96  1  0.20733000  0.42857000  0.80882000  1.0 -0.5643994511
O  O97  1  0.61975000  0.19118000  0.89851000  1.0 -0.5643994511
O  O98  1  0.79267000  0.72124000  0.60149000  1.0 -0.5643994511
O  O99  1  0.88025000  0.77876000  0.57143000  1.0 -0.5643994511
O  O100  1  0.70733000  0.30882000  0.92857000  1.0 -0.5643994511
O  O101  1  0.19118000  0.89851000  0.61975000  1.0 -0.5643994511
O  O102  1  0.72124000  0.60149000  0.79267000  1.0 -0.5643994511
O  O103  1  0.77876000  0.57143000  0.88025000  1.0 -0.5643994511
O  O104  1  0.30882000  0.92857000  0.70733000  1.0 -0.5643994511
O  O105  1  0.89851000  0.61975000  0.19118000  1.0 -0.5643994511
O  O106  1  0.60149000  0.79267000  0.72124000  1.0 -0.5643994511
O  O107  1  0.57143000  0.88025000  0.77876000  1.0 -0.5643994511
O  O108  1  0.92857000  0.70733000  0.30882000  1.0 -0.5643994511
O  O109  1  0.65668000  0.36067000  0.89489000  1.0 -0.5643994511
O  O110  1  0.96578000  0.76179000  0.60511000  1.0 -0.5643994511
O  O111  1  0.53422000  0.13933000  0.79601000  1.0 -0.5643994511
O  O112  1  0.84332000  0.73821000  0.70399000  1.0 -0.5643994511
O  O113  1  0.89489000  0.65668000  0.36067000  1.0 -0.5643994511
O  O114  1  0.60511000  0.96578000  0.76179000  1.0 -0.5643994511
O  O115  1  0.79601000  0.53422000  0.13933000  1.0 -0.5643994511
O  O116  1  0.70399000  0.84332000  0.73821000  1.0 -0.5643994511
O  O117  1  0.36067000  0.89489000  0.65668000  1.0 -0.5643994511
O  O118  1  0.76179000  0.60511000  0.96578000  1.0 -0.5643994511
O  O119  1  0.13933000  0.79601000  0.53422000  1.0 -0.5643994511
O  O120  1  0.73821000  0.70399000  0.84332000  1.0 -0.5643994511
O  O121  1  0.86067000  0.15668000  0.39489000  1.0 -0.5643994511
O  O122  1  0.26179000  0.46578000  0.10511000  1.0 -0.5643994511
O  O123  1  0.63933000  0.03422000  0.29601000  1.0 -0.5643994511
O  O124  1  0.23821000  0.34332000  0.20399000  1.0 -0.5643994511
O  O125  1  0.15668000  0.39489000  0.86067000  1.0 -0.5643994511
O  O126  1  0.46578000  0.10511000  0.26179000  1.0 -0.5643994511
O  O127  1  0.03422000  0.29601000  0.63933000  1.0 -0.5643994511
O  O128  1  0.34332000  0.20399000  0.23821000  1.0 -0.5643994511
O  O129  1  0.39489000  0.86067000  0.15668000  1.0 -0.5643994511
O  O130  1  0.10511000  0.26179000  0.46578000  1.0 -0.5643994511
O  O131  1  0.29601000  0.63933000  0.03422000  1.0 -0.5643994511
O  O132  1  0.20399000  0.23821000  0.34332000  1.0 -0.5643994511
O  O133  1  0.60479000  0.18588000  0.76391000  1.0 -0.5799104907
O  O134  1  0.92197000  0.84088000  0.73609000  1.0 -0.5799104907
O  O135  1  0.57803000  0.31412000  0.91891000  1.0 -0.5799104907
O  O136  1  0.89521000  0.65912000  0.58109000  1.0 -0.5799104907
O  O137  1  0.76391000  0.60479000  0.18588000  1.0 -0.5799104907
O  O138  1  0.73609000  0.92197000  0.84088000  1.0 -0.5799104907
O  O139  1  0.91891000  0.57803000  0.31412000  1.0 -0.5799104907
O  O140  1  0.58109000  0.89521000  0.65912000  1.0 -0.5799104907
O  O141  1  0.18588000  0.76391000  0.60479000  1.0 -0.5799104907
O  O142  1  0.84088000  0.73609000  0.92197000  1.0 -0.5799104907
O  O143  1  0.31412000  0.91891000  0.57803000  1.0 -0.5799104907
O  O144  1  0.65912000  0.58109000  0.89521000  1.0 -0.5799104907
O  O145  1  0.68588000  0.10479000  0.26391000  1.0 -0.5799104907
O  O146  1  0.34088000  0.42197000  0.23609000  1.0 -0.5799104907
O  O147  1  0.81412000  0.07803000  0.41891000  1.0 -0.5799104907
O  O148  1  0.15912000  0.39521000  0.08109000  1.0 -0.5799104907
O  O149  1  0.10479000  0.26391000  0.68588000  1.0 -0.5799104907
O  O150  1  0.42197000  0.23609000  0.34088000  1.0 -0.5799104907
O  O151  1  0.07803000  0.41891000  0.81412000  1.0 -0.5799104907
O  O152  1  0.39521000  0.08109000  0.15912000  1.0 -0.5799104907
O  O153  1  0.26391000  0.68588000  0.10479000  1.0 -0.5799104907
O  O154  1  0.23609000  0.34088000  0.42197000  1.0 -0.5799104907
O  O155  1  0.41891000  0.81412000  0.07803000  1.0 -0.5799104907
O  O156  1  0.08109000  0.15912000  0.39521000  1.0 -0.5799104907
