# DDEC6 charges by PACMAN v1.1 (https://github.com/mtap-research/PACMAN-charge/)
data_KACZEV_FSR_pacman
_symmetry_space_group_name_H-M   'P 1'
_cell_length_a   33.57670000
_cell_length_b   33.57670000
_cell_length_c   33.57670000
_cell_angle_alpha   109.47100000
_cell_angle_beta   109.47100000
_cell_angle_gamma   109.47100000
_symmetry_Int_Tables_number   1
_chemical_formula_structural   In3H24C40(N3O7)2
_chemical_formula_sum   'In36 H288 C480 N72 O168'
_cell_volume   29140.41201760
_cell_formula_units_Z   12
loop_
 _symmetry_equiv_pos_site_id
 _symmetry_equiv_pos_as_xyz
  1  'x, y, z'
loop_
 _atom_site_type_symbol
 _atom_site_label
 _atom_site_symmetry_multiplicity
 _atom_site_fract_x
 _atom_site_fract_y
 _atom_site_fract_z
 _atom_site_occupancy
 _atom_site_charge
In  In1  1  0.25000000  0.30002000  0.05002000  1.0 1.5518926238
In  In2  1  0.75000000  0.19998000  0.44998000  1.0 1.5518926238
In  In3  1  0.05002000  0.25000000  0.30002000  1.0 1.5518926238
In  In4  1  0.44998000  0.75000000  0.19998000  1.0 1.5518926238
In  In5  1  0.30002000  0.05002000  0.25000000  1.0 1.5518926238
In  In6  1  0.19998000  0.44998000  0.75000000  1.0 1.5518926238
In  In7  1  0.80002000  0.75000000  0.55002000  1.0 1.5518926238
In  In8  1  0.69998000  0.25000000  0.94998000  1.0 1.5518926238
In  In9  1  0.75000000  0.55002000  0.80002000  1.0 1.5518926238
In  In10  1  0.25000000  0.94998000  0.69998000  1.0 1.5518926238
In  In11  1  0.55002000  0.80002000  0.75000000  1.0 1.5518926238
In  In12  1  0.94998000  0.69998000  0.25000000  1.0 1.5518926238
In  In13  1  0.22236000  0.33754000  0.14466000  1.0 1.4051173714
In  In14  1  0.69288000  0.07770000  0.35534000  1.0 1.4051173714
In  In15  1  0.80712000  0.16246000  0.38482000  1.0 1.4051173714
In  In16  1  0.27764000  0.42230000  0.11518000  1.0 1.4051173714
In  In17  1  0.14466000  0.22236000  0.33754000  1.0 1.4044151659
In  In18  1  0.35534000  0.69288000  0.07770000  1.0 1.4051173714
In  In19  1  0.38482000  0.80712000  0.16246000  1.0 1.4051173714
In  In20  1  0.11518000  0.27764000  0.42230000  1.0 1.4044151659
In  In21  1  0.33754000  0.14466000  0.22236000  1.0 1.4051173714
In  In22  1  0.07770000  0.35534000  0.69288000  1.0 1.4051173714
In  In23  1  0.16246000  0.38482000  0.80712000  1.0 1.4051173714
In  In24  1  0.42230000  0.11518000  0.27764000  1.0 1.4051173714
In  In25  1  0.83754000  0.72236000  0.64466000  1.0 1.4044151659
In  In26  1  0.57770000  0.19288000  0.85534000  1.0 1.4051173714
In  In27  1  0.66246000  0.30712000  0.88482000  1.0 1.4051173714
In  In28  1  0.92230000  0.77764000  0.61518000  1.0 1.4051173714
In  In29  1  0.72236000  0.64466000  0.83754000  1.0 1.4044151659
In  In30  1  0.19288000  0.85534000  0.57770000  1.0 1.4051173714
In  In31  1  0.30712000  0.88482000  0.66246000  1.0 1.4044151659
In  In32  1  0.77764000  0.61518000  0.92230000  1.0 1.4051173714
In  In33  1  0.64466000  0.83754000  0.72236000  1.0 1.4051173714
In  In34  1  0.85534000  0.57770000  0.19288000  1.0 1.4051173714
In  In35  1  0.88482000  0.66246000  0.30712000  1.0 1.4051173714
In  In36  1  0.61518000  0.92230000  0.77764000  1.0 1.4051173714
H  H1  1  0.30590000  0.28480000  0.22490000  1.0 0.1391965603
H  H2  1  0.55990000  0.08100000  0.27510000  1.0 0.1391965603
H  H3  1  0.94010000  0.21520000  0.52110000  1.0 0.1391965603
H  H4  1  0.19410000  0.41900000  0.97890000  1.0 0.1391965603
H  H5  1  0.22490000  0.30590000  0.28480000  1.0 0.1391965603
H  H6  1  0.27510000  0.55990000  0.08100000  1.0 0.1391965603
H  H7  1  0.52110000  0.94010000  0.21520000  1.0 0.1391965603
H  H8  1  0.97890000  0.19410000  0.41900000  1.0 0.1391965603
H  H9  1  0.28480000  0.22490000  0.30590000  1.0 0.1391965603
H  H10  1  0.08100000  0.27510000  0.55990000  1.0 0.1391965603
H  H11  1  0.21520000  0.52110000  0.94010000  1.0 0.1391965603
H  H12  1  0.41900000  0.97890000  0.19410000  1.0 0.1391965603
H  H13  1  0.78480000  0.80590000  0.72490000  1.0 0.1391965603
H  H14  1  0.58100000  0.05990000  0.77510000  1.0 0.1391965603
H  H15  1  0.71520000  0.44010000  0.02110000  1.0 0.1391965603
H  H16  1  0.91900000  0.69410000  0.47890000  1.0 0.1391965603
H  H17  1  0.80590000  0.72490000  0.78480000  1.0 0.1391965603
H  H18  1  0.05990000  0.77510000  0.58100000  1.0 0.1391965603
H  H19  1  0.44010000  0.02110000  0.71520000  1.0 0.1391965603
H  H20  1  0.69410000  0.47890000  0.91900000  1.0 0.1391965603
H  H21  1  0.72490000  0.78480000  0.80590000  1.0 0.1391965603
H  H22  1  0.77510000  0.58100000  0.05990000  1.0 0.1391965603
H  H23  1  0.02110000  0.71520000  0.44010000  1.0 0.1391965603
H  H24  1  0.47890000  0.91900000  0.69410000  1.0 0.1391965603
H  H25  1  0.28130000  0.19570000  0.09480000  1.0 0.1544589505
H  H26  1  0.60090000  0.18650000  0.40520000  1.0 0.1544589505
H  H27  1  0.89910000  0.30430000  0.58560000  1.0 0.1544589505
H  H28  1  0.21870000  0.31350000  0.91440000  1.0 0.1544589505
H  H29  1  0.09480000  0.28130000  0.19570000  1.0 0.1544589505
H  H30  1  0.40520000  0.60090000  0.18650000  1.0 0.1544589505
H  H31  1  0.58560000  0.89910000  0.30430000  1.0 0.1544589505
H  H32  1  0.91440000  0.21870000  0.31350000  1.0 0.1544589505
H  H33  1  0.19570000  0.09480000  0.28130000  1.0 0.1544589505
H  H34  1  0.18650000  0.40520000  0.60090000  1.0 0.1544589505
H  H35  1  0.30430000  0.58560000  0.89910000  1.0 0.1544589505
H  H36  1  0.31350000  0.91440000  0.21870000  1.0 0.1544589505
H  H37  1  0.69570000  0.78130000  0.59480000  1.0 0.1544589505
H  H38  1  0.68650000  0.10090000  0.90520000  1.0 0.1544589505
H  H39  1  0.80430000  0.39910000  0.08560000  1.0 0.1544589505
H  H40  1  0.81350000  0.71870000  0.41440000  1.0 0.1544589505
H  H41  1  0.78130000  0.59480000  0.69570000  1.0 0.1544589505
H  H42  1  0.10090000  0.90520000  0.68650000  1.0 0.1544589505
H  H43  1  0.39910000  0.08560000  0.80430000  1.0 0.1544589505
H  H44  1  0.71870000  0.41440000  0.81350000  1.0 0.1544589505
H  H45  1  0.59480000  0.69570000  0.78130000  1.0 0.1544589505
H  H46  1  0.90520000  0.68650000  0.10090000  1.0 0.1544589505
H  H47  1  0.08560000  0.80430000  0.39910000  1.0 0.1544589505
H  H48  1  0.41440000  0.81350000  0.71870000  1.0 0.1544589505
H  H49  1  0.30670000  0.15310000  0.12700000  1.0 0.1214084487
H  H50  1  0.52610000  0.17970000  0.37300000  1.0 0.1214084487
H  H51  1  0.97390000  0.34690000  0.65360000  1.0 0.1214084487
H  H52  1  0.19330000  0.32030000  0.84640000  1.0 0.1214084487
H  H53  1  0.12700000  0.30670000  0.15310000  1.0 0.1214084487
H  H54  1  0.37300000  0.52610000  0.17970000  1.0 0.1214084487
H  H55  1  0.65360000  0.97390000  0.34690000  1.0 0.1214084487
H  H56  1  0.84640000  0.19330000  0.32030000  1.0 0.1214084487
H  H57  1  0.15310000  0.12700000  0.30670000  1.0 0.1214084487
H  H58  1  0.17970000  0.37300000  0.52610000  1.0 0.1214084487
H  H59  1  0.34690000  0.65360000  0.97390000  1.0 0.1214084487
H  H60  1  0.32030000  0.84640000  0.19330000  1.0 0.1214084487
H  H61  1  0.65310000  0.80670000  0.62700000  1.0 0.1214084487
H  H62  1  0.67970000  0.02610000  0.87300000  1.0 0.1214084487
H  H63  1  0.84690000  0.47390000  0.15360000  1.0 0.1214084487
H  H64  1  0.82030000  0.69330000  0.34640000  1.0 0.1214084487
H  H65  1  0.80670000  0.62700000  0.65310000  1.0 0.1214084487
H  H66  1  0.02610000  0.87300000  0.67970000  1.0 0.1214084487
H  H67  1  0.47390000  0.15360000  0.84690000  1.0 0.1214084487
H  H68  1  0.69330000  0.34640000  0.82030000  1.0 0.1214084487
H  H69  1  0.62700000  0.65310000  0.80670000  1.0 0.1214084487
H  H70  1  0.87300000  0.67970000  0.02610000  1.0 0.1214084487
H  H71  1  0.15360000  0.84690000  0.47390000  1.0 0.1214084487
H  H72  1  0.34640000  0.82030000  0.69330000  1.0 0.1214084487
H  H73  1  0.33040000  0.23910000  0.25390000  1.0 0.1146111171
H  H74  1  0.48520000  0.07650000  0.24610000  1.0 0.1146111171
H  H75  1  0.01480000  0.26090000  0.59130000  1.0 0.1214084487
H  H76  1  0.16960000  0.42350000  0.90870000  1.0 0.1146111171
H  H77  1  0.25390000  0.33040000  0.23910000  1.0 0.1146111171
H  H78  1  0.24610000  0.48520000  0.07650000  1.0 0.1214084487
H  H79  1  0.59130000  0.01480000  0.26090000  1.0 0.1214084487
H  H80  1  0.90870000  0.16960000  0.42350000  1.0 0.1146111171
H  H81  1  0.23910000  0.25390000  0.33040000  1.0 0.1146111171
H  H82  1  0.07650000  0.24610000  0.48520000  1.0 0.1146111171
H  H83  1  0.26090000  0.59130000  0.01480000  1.0 0.1214084487
H  H84  1  0.42350000  0.90870000  0.16960000  1.0 0.1146111171
H  H85  1  0.73910000  0.83040000  0.75390000  1.0 0.1146111171
H  H86  1  0.57650000  0.98520000  0.74610000  1.0 0.1214084487
H  H87  1  0.76090000  0.51480000  0.09130000  1.0 0.1214084487
H  H88  1  0.92350000  0.66960000  0.40870000  1.0 0.1146111171
H  H89  1  0.83040000  0.75390000  0.73910000  1.0 0.1146111171
H  H90  1  0.98520000  0.74610000  0.57650000  1.0 0.1214084487
H  H91  1  0.51480000  0.09130000  0.76090000  1.0 0.1214084487
H  H92  1  0.66960000  0.40870000  0.92350000  1.0 0.1146111171
H  H93  1  0.75390000  0.73910000  0.83040000  1.0 0.1146111171
H  H94  1  0.74610000  0.57650000  0.98520000  1.0 0.1146111171
H  H95  1  0.09130000  0.76090000  0.51480000  1.0 0.1146111171
H  H96  1  0.40870000  0.92350000  0.66960000  1.0 0.1146111171
H  H97  1  0.80050000  0.94420000  0.80950000  1.0 0.1273387462
H  H98  1  0.63470000  0.99100000  0.69050000  1.0 0.1273387462
H  H99  1  0.86530000  0.55580000  0.35630000  1.0 0.1273387462
H  H100  1  0.69950000  0.50900000  0.14370000  1.0 0.1273387462
H  H101  1  0.80950000  0.80050000  0.94420000  1.0 0.1273387462
H  H102  1  0.69050000  0.63470000  0.99100000  1.0 0.1273387462
H  H103  1  0.35630000  0.86530000  0.55580000  1.0 0.1273387462
H  H104  1  0.14370000  0.69950000  0.50900000  1.0 0.1273387462
H  H105  1  0.94420000  0.80950000  0.80050000  1.0 0.1273387462
H  H106  1  0.99100000  0.69050000  0.63470000  1.0 0.1273387462
H  H107  1  0.55580000  0.35630000  0.86530000  1.0 0.1273387462
H  H108  1  0.50900000  0.14370000  0.69950000  1.0 0.1273387462
H  H109  1  0.44420000  0.30050000  0.30950000  1.0 0.1273387462
H  H110  1  0.49100000  0.13470000  0.19050000  1.0 0.1273387462
H  H111  1  0.05580000  0.36530000  0.85630000  1.0 0.1273387462
H  H112  1  0.00900000  0.19950000  0.64370000  1.0 0.1273387462
H  H113  1  0.30050000  0.30950000  0.44420000  1.0 0.1273387462
H  H114  1  0.13470000  0.19050000  0.49100000  1.0 0.1273387462
H  H115  1  0.36530000  0.85630000  0.05580000  1.0 0.1273387462
H  H116  1  0.19950000  0.64370000  0.00900000  1.0 0.1273387462
H  H117  1  0.30950000  0.44420000  0.30050000  1.0 0.1273387462
H  H118  1  0.19050000  0.49100000  0.13470000  1.0 0.1273387462
H  H119  1  0.85630000  0.05580000  0.36530000  1.0 0.1273387462
H  H120  1  0.64370000  0.00900000  0.19950000  1.0 0.1273387462
H  H121  1  0.07360000  0.22120000  0.05780000  1.0 0.1273387462
H  H122  1  0.66340000  0.01580000  0.44220000  1.0 0.1273387462
H  H123  1  0.83660000  0.27880000  0.35240000  1.0 0.1273387462
H  H124  1  0.42640000  0.48420000  0.14760000  1.0 0.1273387462
H  H125  1  0.05780000  0.07360000  0.22120000  1.0 0.1273387462
H  H126  1  0.44220000  0.66340000  0.01580000  1.0 0.1273387462
H  H127  1  0.35240000  0.83660000  0.27880000  1.0 0.1273387462
H  H128  1  0.14760000  0.42640000  0.48420000  1.0 0.1273387462
H  H129  1  0.22120000  0.05780000  0.07360000  1.0 0.1273387462
H  H130  1  0.01580000  0.44220000  0.66340000  1.0 0.1273387462
H  H131  1  0.27880000  0.35240000  0.83660000  1.0 0.1273387462
H  H132  1  0.48420000  0.14760000  0.42640000  1.0 0.1273387462
H  H133  1  0.72120000  0.57360000  0.55780000  1.0 0.1273387462
H  H134  1  0.51580000  0.16340000  0.94220000  1.0 0.1273387462
H  H135  1  0.77880000  0.33660000  0.85240000  1.0 0.1273387462
H  H136  1  0.98420000  0.92640000  0.64760000  1.0 0.1273387462
H  H137  1  0.57360000  0.55780000  0.72120000  1.0 0.1273387462
H  H138  1  0.16340000  0.94220000  0.51580000  1.0 0.1273387462
H  H139  1  0.33660000  0.85240000  0.77880000  1.0 0.1273387462
H  H140  1  0.92640000  0.64760000  0.98420000  1.0 0.1273387462
H  H141  1  0.55780000  0.72120000  0.57360000  1.0 0.1273387462
H  H142  1  0.94220000  0.51580000  0.16340000  1.0 0.1273387462
H  H143  1  0.85240000  0.77880000  0.33660000  1.0 0.1273387462
H  H144  1  0.64760000  0.98420000  0.92640000  1.0 0.1273387462
H  H145  1  0.76910000  0.03170000  0.89000000  1.0 0.1214084487
H  H146  1  0.64170000  0.87910000  0.61000000  1.0 0.1214084487
H  H147  1  0.85830000  0.46830000  0.23740000  1.0 0.1214084487
H  H148  1  0.73090000  0.62090000  0.26260000  1.0 0.1214084487
H  H149  1  0.89000000  0.76910000  0.03170000  1.0 0.1214084487
H  H150  1  0.61000000  0.64170000  0.87910000  1.0 0.1214084487
H  H151  1  0.23740000  0.85830000  0.46830000  1.0 0.1214084487
H  H152  1  0.26260000  0.73090000  0.62090000  1.0 0.1214084487
H  H153  1  0.03170000  0.89000000  0.76910000  1.0 0.1214084487
H  H154  1  0.87910000  0.61000000  0.64170000  1.0 0.1214084487
H  H155  1  0.46830000  0.23740000  0.85830000  1.0 0.1214084487
H  H156  1  0.62090000  0.26260000  0.73090000  1.0 0.1214084487
H  H157  1  0.53170000  0.26910000  0.39000000  1.0 0.1214084487
H  H158  1  0.37910000  0.14170000  0.11000000  1.0 0.1214084487
H  H159  1  0.96830000  0.35830000  0.73740000  1.0 0.1214084487
H  H160  1  0.12090000  0.23090000  0.76260000  1.0 0.1214084487
H  H161  1  0.26910000  0.39000000  0.53170000  1.0 0.1214084487
H  H162  1  0.14170000  0.11000000  0.37910000  1.0 0.1214084487
H  H163  1  0.35830000  0.73740000  0.96830000  1.0 0.1214084487
H  H164  1  0.23090000  0.76260000  0.12090000  1.0 0.1214084487
H  H165  1  0.39000000  0.53170000  0.26910000  1.0 0.1214084487
H  H166  1  0.11000000  0.37910000  0.14170000  1.0 0.1214084487
H  H167  1  0.73740000  0.96830000  0.35830000  1.0 0.1214084487
H  H168  1  0.76260000  0.12090000  0.23090000  1.0 0.1214084487
H  H169  1  0.88140000  0.00060000  0.85760000  1.0 0.1214084487
H  H170  1  0.64300000  0.02380000  0.64240000  1.0 0.1214084487
H  H171  1  0.85700000  0.49940000  0.38080000  1.0 0.1214084487
H  H172  1  0.61860000  0.47620000  0.11920000  1.0 0.1214084487
H  H173  1  0.85760000  0.88140000  0.00060000  1.0 0.1214084487
H  H174  1  0.64240000  0.64300000  0.02380000  1.0 0.1214084487
H  H175  1  0.38080000  0.85700000  0.49940000  1.0 0.1214084487
H  H176  1  0.11920000  0.61860000  0.47620000  1.0 0.1214084487
H  H177  1  0.00060000  0.85760000  0.88140000  1.0 0.1214084487
H  H178  1  0.02380000  0.64240000  0.64300000  1.0 0.1273387462
H  H179  1  0.49940000  0.38080000  0.85700000  1.0 0.1214084487
H  H180  1  0.47620000  0.11920000  0.61860000  1.0 0.1214084487
H  H181  1  0.50060000  0.38140000  0.35760000  1.0 0.1214084487
H  H182  1  0.52380000  0.14300000  0.14240000  1.0 0.1214084487
H  H183  1  0.99940000  0.35700000  0.88080000  1.0 0.1273387462
H  H184  1  0.97620000  0.11860000  0.61920000  1.0 0.1214084487
H  H185  1  0.38140000  0.35760000  0.50060000  1.0 0.1214084487
H  H186  1  0.14300000  0.14240000  0.52380000  1.0 0.1214084487
H  H187  1  0.35700000  0.88080000  0.99940000  1.0 0.1214084487
H  H188  1  0.11860000  0.61920000  0.97620000  1.0 0.1214084487
H  H189  1  0.35760000  0.50060000  0.38140000  1.0 0.1214084487
H  H190  1  0.14240000  0.52380000  0.14300000  1.0 0.1214084487
H  H191  1  0.88080000  0.99940000  0.35700000  1.0 0.1214084487
H  H192  1  0.61920000  0.97620000  0.11860000  1.0 0.1214084487
H  H193  1  0.85190000  0.08730000  0.94020000  1.0 0.1273387462
H  H194  1  0.64710000  0.91170000  0.55980000  1.0 0.1273387462
H  H195  1  0.85290000  0.41270000  0.26460000  1.0 0.1273387462
H  H196  1  0.64810000  0.58830000  0.23540000  1.0 0.1273387462
H  H197  1  0.94020000  0.85190000  0.08730000  1.0 0.1273387462
H  H198  1  0.55980000  0.64710000  0.91170000  1.0 0.1273387462
H  H199  1  0.26460000  0.85290000  0.41270000  1.0 0.1273387462
H  H200  1  0.23540000  0.64810000  0.58830000  1.0 0.1273387462
H  H201  1  0.08730000  0.94020000  0.85190000  1.0 0.1273387462
H  H202  1  0.91170000  0.55980000  0.64710000  1.0 0.1273387462
H  H203  1  0.41270000  0.26460000  0.85290000  1.0 0.1273387462
H  H204  1  0.58830000  0.23540000  0.64810000  1.0 0.1273387462
H  H205  1  0.58730000  0.35190000  0.44020000  1.0 0.1273387462
H  H206  1  0.41170000  0.14710000  0.05980000  1.0 0.1273387462
H  H207  1  0.91270000  0.35290000  0.76460000  1.0 0.1273387462
H  H208  1  0.08830000  0.14810000  0.73540000  1.0 0.1273387462
H  H209  1  0.35190000  0.44020000  0.58730000  1.0 0.1273387462
H  H210  1  0.14710000  0.05980000  0.41170000  1.0 0.1273387462
H  H211  1  0.35290000  0.76460000  0.91270000  1.0 0.1273387462
H  H212  1  0.14810000  0.73540000  0.08830000  1.0 0.1273387462
H  H213  1  0.44020000  0.58730000  0.35190000  1.0 0.1273387462
H  H214  1  0.05980000  0.41170000  0.14710000  1.0 0.1273387462
H  H215  1  0.76460000  0.91270000  0.35290000  1.0 0.1273387462
H  H216  1  0.73540000  0.08830000  0.14810000  1.0 0.1273387462
H  H217  1  0.09740000  0.17240000  0.94680000  1.0 0.1391965603
H  H218  1  0.72560000  0.15060000  0.55320000  1.0 0.1391965603
H  H219  1  0.77440000  0.32760000  0.42500000  1.0 0.1391965603
H  H220  1  0.40260000  0.34940000  0.07500000  1.0 0.1391965603
H  H221  1  0.94680000  0.09740000  0.17240000  1.0 0.1391965603
H  H222  1  0.55320000  0.72560000  0.15060000  1.0 0.1391965603
H  H223  1  0.42500000  0.77440000  0.32760000  1.0 0.1391965603
H  H224  1  0.07500000  0.40260000  0.34940000  1.0 0.1391965603
H  H225  1  0.17240000  0.94680000  0.09740000  1.0 0.1391965603
H  H226  1  0.15060000  0.55320000  0.72560000  1.0 0.1391965603
H  H227  1  0.32760000  0.42500000  0.77440000  1.0 0.1391965603
H  H228  1  0.34940000  0.07500000  0.40260000  1.0 0.1391965603
H  H229  1  0.67240000  0.59740000  0.44680000  1.0 0.1391965603
H  H230  1  0.65060000  0.22560000  0.05320000  1.0 0.1391965603
H  H231  1  0.82760000  0.27440000  0.92500000  1.0 0.1391965603
H  H232  1  0.84940000  0.90260000  0.57500000  1.0 0.1391965603
H  H233  1  0.59740000  0.44680000  0.67240000  1.0 0.1391965603
H  H234  1  0.22560000  0.05320000  0.65060000  1.0 0.1391965603
H  H235  1  0.27440000  0.92500000  0.82760000  1.0 0.1391965603
H  H236  1  0.90260000  0.57500000  0.84940000  1.0 0.1391965603
H  H237  1  0.44680000  0.67240000  0.59740000  1.0 0.1391965603
H  H238  1  0.05320000  0.65060000  0.22560000  1.0 0.1391965603
H  H239  1  0.92500000  0.82760000  0.27440000  1.0 0.1391965603
H  H240  1  0.57500000  0.84940000  0.90260000  1.0 0.1391965603
H  H241  1  0.99690000  0.15340000  0.01130000  1.0 0.1214084487
H  H242  1  0.64210000  0.98560000  0.48870000  1.0 0.1214084487
H  H243  1  0.85790000  0.34660000  0.34350000  1.0 0.1214084487
H  H244  1  0.50310000  0.51440000  0.15650000  1.0 0.1214084487
H  H245  1  0.01130000  0.99690000  0.15340000  1.0 0.1214084487
H  H246  1  0.48870000  0.64210000  0.98560000  1.0 0.1214084487
H  H247  1  0.34350000  0.85790000  0.34660000  1.0 0.1214084487
H  H248  1  0.15650000  0.50310000  0.51440000  1.0 0.1214084487
H  H249  1  0.15340000  0.01130000  0.99690000  1.0 0.1214084487
H  H250  1  0.98560000  0.48870000  0.64210000  1.0 0.1214084487
H  H251  1  0.34660000  0.34350000  0.85790000  1.0 0.1214084487
H  H252  1  0.51440000  0.15650000  0.50310000  1.0 0.1214084487
H  H253  1  0.65340000  0.49690000  0.51130000  1.0 0.1214084487
H  H254  1  0.48560000  0.14210000  0.98870000  1.0 0.1214084487
H  H255  1  0.84660000  0.35790000  0.84350000  1.0 0.1214084487
H  H256  1  0.01440000  0.00310000  0.65650000  1.0 0.1214084487
H  H257  1  0.49690000  0.51130000  0.65340000  1.0 0.1214084487
H  H258  1  0.14210000  0.98870000  0.48560000  1.0 0.1214084487
H  H259  1  0.35790000  0.84350000  0.84660000  1.0 0.1273387462
H  H260  1  0.00310000  0.65650000  0.01440000  1.0 0.1273387462
H  H261  1  0.51130000  0.65340000  0.49690000  1.0 0.1214084487
H  H262  1  0.98870000  0.48560000  0.14210000  1.0 0.1214084487
H  H263  1  0.84350000  0.84660000  0.35790000  1.0 0.1214084487
H  H264  1  0.65650000  0.01440000  0.00310000  1.0 0.1214084487
H  H265  1  0.02010000  0.10750000  0.90420000  1.0 0.1273387462
H  H266  1  0.70330000  0.11590000  0.59580000  1.0 0.1273387462
H  H267  1  0.79670000  0.39250000  0.41260000  1.0 0.1273387462
H  H268  1  0.47990000  0.38410000  0.08740000  1.0 0.1273387462
H  H269  1  0.90420000  0.02010000  0.10750000  1.0 0.1273387462
H  H270  1  0.59580000  0.70330000  0.11590000  1.0 0.1273387462
H  H271  1  0.41260000  0.79670000  0.39250000  1.0 0.1273387462
H  H272  1  0.08740000  0.47990000  0.38410000  1.0 0.1273387462
H  H273  1  0.10750000  0.90420000  0.02010000  1.0 0.1273387462
H  H274  1  0.11590000  0.59580000  0.70330000  1.0 0.1273387462
H  H275  1  0.39250000  0.41260000  0.79670000  1.0 0.1273387462
H  H276  1  0.38410000  0.08740000  0.47990000  1.0 0.1273387462
H  H277  1  0.60750000  0.52010000  0.40420000  1.0 0.1273387462
H  H278  1  0.61590000  0.20330000  0.09580000  1.0 0.1273387462
H  H279  1  0.89250000  0.29670000  0.91260000  1.0 0.1273387462
H  H280  1  0.88410000  0.97990000  0.58740000  1.0 0.1273387462
H  H281  1  0.52010000  0.40420000  0.60750000  1.0 0.1273387462
H  H282  1  0.20330000  0.09580000  0.61590000  1.0 0.1273387462
H  H283  1  0.29670000  0.91260000  0.89250000  1.0 0.1273387462
H  H284  1  0.97990000  0.58740000  0.88410000  1.0 0.1273387462
H  H285  1  0.40420000  0.60750000  0.52010000  1.0 0.1273387462
H  H286  1  0.09580000  0.61590000  0.20330000  1.0 0.1273387462
H  H287  1  0.91260000  0.89250000  0.29670000  1.0 0.1273387462
H  H288  1  0.58740000  0.88410000  0.97990000  1.0 0.1273387462
C  C1  1  0.30569000  0.25803000  0.20422000  1.0 -0.1511062663
C  C2  1  0.55381000  0.10147000  0.29578000  1.0 -0.1511062663
C  C3  1  0.94619000  0.24197000  0.54766000  1.0 -0.1511062663
C  C4  1  0.19431000  0.39853000  0.95234000  1.0 -0.1511062663
C  C5  1  0.20422000  0.30569000  0.25803000  1.0 -0.1511062663
C  C6  1  0.29578000  0.55381000  0.10147000  1.0 -0.1511062663
C  C7  1  0.54766000  0.94619000  0.24197000  1.0 -0.1511062663
C  C8  1  0.95234000  0.19431000  0.39853000  1.0 -0.1511062663
C  C9  1  0.25803000  0.20422000  0.30569000  1.0 -0.1511062663
C  C10  1  0.10147000  0.29578000  0.55381000  1.0 -0.1511062663
C  C11  1  0.24197000  0.54766000  0.94619000  1.0 -0.1511062663
C  C12  1  0.39853000  0.95234000  0.19431000  1.0 -0.1511062663
C  C13  1  0.75803000  0.80569000  0.70422000  1.0 -0.1511062663
C  C14  1  0.60147000  0.05381000  0.79578000  1.0 -0.1511062663
C  C15  1  0.74197000  0.44619000  0.04766000  1.0 -0.1511062663
C  C16  1  0.89853000  0.69431000  0.45234000  1.0 -0.1511062663
C  C17  1  0.80569000  0.70422000  0.75803000  1.0 -0.1511062663
C  C18  1  0.05381000  0.79578000  0.60147000  1.0 -0.1511062663
C  C19  1  0.44619000  0.04766000  0.74197000  1.0 -0.1511062663
C  C20  1  0.69431000  0.45234000  0.89853000  1.0 -0.1511062663
C  C21  1  0.70422000  0.75803000  0.80569000  1.0 -0.1511062663
C  C22  1  0.79578000  0.60147000  0.05381000  1.0 -0.1511062663
C  C23  1  0.04766000  0.74197000  0.44619000  1.0 -0.1511062663
C  C24  1  0.45234000  0.89853000  0.69431000  1.0 -0.1511062663
C  C25  1  0.29129000  0.20531000  0.12744000  1.0 -0.1511062663
C  C26  1  0.57787000  0.16385000  0.37256000  1.0 -0.1511062663
C  C27  1  0.92213000  0.29469000  0.58598000  1.0 -0.1511062663
C  C28  1  0.20871000  0.33615000  0.91402000  1.0 -0.1511062663
C  C29  1  0.12744000  0.29129000  0.20531000  1.0 -0.1511062663
C  C30  1  0.37256000  0.57787000  0.16385000  1.0 -0.1511062663
C  C31  1  0.58598000  0.92213000  0.29469000  1.0 -0.1511062663
C  C32  1  0.91402000  0.20871000  0.33615000  1.0 -0.1511062663
C  C33  1  0.20531000  0.12744000  0.29129000  1.0 -0.1511062663
C  C34  1  0.16385000  0.37256000  0.57787000  1.0 -0.1511062663
C  C35  1  0.29469000  0.58598000  0.92213000  1.0 -0.1511062663
C  C36  1  0.33615000  0.91402000  0.20871000  1.0 -0.1511062663
C  C37  1  0.70531000  0.79129000  0.62744000  1.0 -0.1511062663
C  C38  1  0.66385000  0.07787000  0.87256000  1.0 -0.1511062663
C  C39  1  0.79469000  0.42213000  0.08598000  1.0 -0.1511062663
C  C40  1  0.83615000  0.70871000  0.41402000  1.0 -0.1511062663
C  C41  1  0.79129000  0.62744000  0.70531000  1.0 -0.1511062663
C  C42  1  0.07787000  0.87256000  0.66385000  1.0 -0.1511062663
C  C43  1  0.42213000  0.08598000  0.79469000  1.0 -0.1511062663
C  C44  1  0.70871000  0.41402000  0.83615000  1.0 -0.1511062663
C  C45  1  0.62744000  0.70531000  0.79129000  1.0 -0.1511062663
C  C46  1  0.87256000  0.66385000  0.07787000  1.0 -0.1511062663
C  C47  1  0.08598000  0.79469000  0.42213000  1.0 -0.1511062663
C  C48  1  0.41402000  0.83615000  0.70871000  1.0 -0.1511062663
C  C49  1  0.14703000  0.24337000  0.04086000  1.0 0.5981519133
C  C50  1  0.70251000  0.10617000  0.45914000  1.0 0.6098108661
C  C51  1  0.79749000  0.25663000  0.40366000  1.0 0.6098108661
C  C52  1  0.35297000  0.39383000  0.09634000  1.0 0.6098108661
C  C53  1  0.04086000  0.14703000  0.24337000  1.0 0.6098108661
C  C54  1  0.45914000  0.70251000  0.10617000  1.0 0.5981519133
C  C55  1  0.40366000  0.79749000  0.25663000  1.0 0.6098108661
C  C56  1  0.09634000  0.35297000  0.39383000  1.0 0.5981519133
C  C57  1  0.24337000  0.04086000  0.14703000  1.0 0.6098108661
C  C58  1  0.10617000  0.45914000  0.70251000  1.0 0.5981519133
C  C59  1  0.25663000  0.40366000  0.79749000  1.0 0.6098108661
C  C60  1  0.39383000  0.09634000  0.35297000  1.0 0.6098108661
C  C61  1  0.74337000  0.64703000  0.54086000  1.0 0.5981519133
C  C62  1  0.60617000  0.20251000  0.95914000  1.0 0.6098108661
C  C63  1  0.75663000  0.29749000  0.90366000  1.0 0.6098108661
C  C64  1  0.89383000  0.85297000  0.59634000  1.0 0.5981519133
C  C65  1  0.64703000  0.54086000  0.74337000  1.0 0.5981519133
C  C66  1  0.20251000  0.95914000  0.60617000  1.0 0.5981519133
C  C67  1  0.29749000  0.90366000  0.75663000  1.0 0.5981519133
C  C68  1  0.85297000  0.59634000  0.89383000  1.0 0.6098108661
C  C69  1  0.54086000  0.74337000  0.64703000  1.0 0.6098108661
C  C70  1  0.95914000  0.60617000  0.20251000  1.0 0.5981519133
C  C71  1  0.90366000  0.75663000  0.29749000  1.0 0.5981519133
C  C72  1  0.59634000  0.89383000  0.85297000  1.0 0.6098108661
C  C73  1  0.09533000  0.20246000  0.00929000  1.0 -0.0406023991
C  C74  1  0.69317000  0.08604000  0.49071000  1.0 -0.0406023991
C  C75  1  0.80683000  0.29754000  0.39287000  1.0 -0.0406023991
C  C76  1  0.40467000  0.41396000  0.10713000  1.0 -0.0406023991
C  C77  1  0.00929000  0.09533000  0.20246000  1.0 -0.0406023991
C  C78  1  0.49071000  0.69317000  0.08604000  1.0 -0.0406023991
C  C79  1  0.39287000  0.80683000  0.29754000  1.0 -0.0406023991
C  C80  1  0.10713000  0.40467000  0.41396000  1.0 -0.0406023991
C  C81  1  0.20246000  0.00929000  0.09533000  1.0 -0.0406023991
C  C82  1  0.08604000  0.49071000  0.69317000  1.0 -0.0406023991
C  C83  1  0.29754000  0.39287000  0.80683000  1.0 -0.0406023991
C  C84  1  0.41396000  0.10713000  0.40467000  1.0 -0.0406023991
C  C85  1  0.70246000  0.59533000  0.50929000  1.0 -0.0406023991
C  C86  1  0.58604000  0.19317000  0.99071000  1.0 -0.0406023991
C  C87  1  0.79754000  0.30683000  0.89287000  1.0 -0.0406023991
C  C88  1  0.91396000  0.90467000  0.60713000  1.0 -0.0406023991
C  C89  1  0.59533000  0.50929000  0.70246000  1.0 -0.0406023991
C  C90  1  0.19317000  0.99071000  0.58604000  1.0 -0.0406023991
C  C91  1  0.30683000  0.89287000  0.79754000  1.0 -0.0406023991
C  C92  1  0.90467000  0.60713000  0.91396000  1.0 -0.0406023991
C  C93  1  0.50929000  0.70246000  0.59533000  1.0 -0.0406023991
C  C94  1  0.99071000  0.58604000  0.19317000  1.0 -0.0406023991
C  C95  1  0.89287000  0.79754000  0.30683000  1.0 -0.0406023991
C  C96  1  0.60713000  0.91396000  0.90467000  1.0 -0.0406023991
C  C97  1  0.29137000  0.24617000  0.15686000  1.0 0.0255493505
C  C98  1  0.58931000  0.13451000  0.34314000  1.0 0.0255493505
C  C99  1  0.91069000  0.25383000  0.54520000  1.0 0.0255493505
C  C100  1  0.20863000  0.36549000  0.95480000  1.0 0.0255493505
C  C101  1  0.15686000  0.29137000  0.24617000  1.0 0.0255493505
C  C102  1  0.34314000  0.58931000  0.13451000  1.0 0.0255493505
C  C103  1  0.54520000  0.91069000  0.25383000  1.0 0.0255493505
C  C104  1  0.95480000  0.20863000  0.36549000  1.0 0.0255493505
C  C105  1  0.24617000  0.15686000  0.29137000  1.0 0.0255493505
C  C106  1  0.13451000  0.34314000  0.58931000  1.0 0.0255493505
C  C107  1  0.25383000  0.54520000  0.91069000  1.0 0.0255493505
C  C108  1  0.36549000  0.95480000  0.20863000  1.0 0.0255493505
C  C109  1  0.74617000  0.79137000  0.65686000  1.0 0.0255493505
C  C110  1  0.63451000  0.08931000  0.84314000  1.0 0.0255493505
C  C111  1  0.75383000  0.41069000  0.04520000  1.0 0.0255493505
C  C112  1  0.86549000  0.70863000  0.45480000  1.0 0.024441773
C  C113  1  0.79137000  0.65686000  0.74617000  1.0 0.0255493505
C  C114  1  0.08931000  0.84314000  0.63451000  1.0 0.0255493505
C  C115  1  0.41069000  0.04520000  0.75383000  1.0 0.0255493505
C  C116  1  0.70863000  0.45480000  0.86549000  1.0 0.0255493505
C  C117  1  0.65686000  0.74617000  0.79137000  1.0 0.0255493505
C  C118  1  0.84314000  0.63451000  0.08931000  1.0 0.0255493505
C  C119  1  0.04520000  0.75383000  0.41069000  1.0 0.0255493505
C  C120  1  0.45480000  0.86549000  0.70863000  1.0 0.0255493505
C  C121  1  0.72346000  0.94414000  0.81294000  1.0 0.6098108661
C  C122  1  0.63120000  0.91052000  0.68706000  1.0 0.6098108661
C  C123  1  0.86880000  0.55586000  0.27932000  1.0 0.6098108661
C  C124  1  0.77654000  0.58948000  0.22068000  1.0 0.6098108661
C  C125  1  0.81294000  0.72346000  0.94414000  1.0 0.6098108661
C  C126  1  0.68706000  0.63120000  0.91052000  1.0 0.6098108661
C  C127  1  0.27932000  0.86880000  0.55586000  1.0 0.6098108661
C  C128  1  0.22068000  0.77654000  0.58948000  1.0 0.6098108661
C  C129  1  0.94414000  0.81294000  0.72346000  1.0 0.6098108661
C  C130  1  0.91052000  0.68706000  0.63120000  1.0 0.6098108661
C  C131  1  0.55586000  0.27932000  0.86880000  1.0 0.6098108661
C  C132  1  0.58948000  0.22068000  0.77654000  1.0 0.6098108661
C  C133  1  0.44414000  0.22346000  0.31294000  1.0 0.6098108661
C  C134  1  0.41052000  0.13120000  0.18706000  1.0 0.6098108661
C  C135  1  0.05586000  0.36880000  0.77932000  1.0 0.6098108661
C  C136  1  0.08948000  0.27654000  0.72068000  1.0 0.6098108661
C  C137  1  0.22346000  0.31294000  0.44414000  1.0 0.6098108661
C  C138  1  0.13120000  0.18706000  0.41052000  1.0 0.6098108661
C  C139  1  0.36880000  0.77932000  0.05586000  1.0 0.6098108661
C  C140  1  0.27654000  0.72068000  0.08948000  1.0 0.6098108661
C  C141  1  0.31294000  0.44414000  0.22346000  1.0 0.6098108661
C  C142  1  0.18706000  0.41052000  0.13120000  1.0 0.6098108661
C  C143  1  0.77932000  0.05586000  0.36880000  1.0 0.6098108661
C  C144  1  0.72068000  0.08948000  0.27654000  1.0 0.6098108661
C  C145  1  0.30597000  0.17959000  0.14682000  1.0 0.0940066817
C  C146  1  0.53277000  0.15915000  0.35318000  1.0 0.0940066817
C  C147  1  0.96723000  0.32041000  0.62638000  1.0 0.0940066817
C  C148  1  0.19403000  0.34085000  0.87362000  1.0 0.0940066817
C  C149  1  0.14682000  0.30597000  0.17959000  1.0 0.0940066817
C  C150  1  0.35318000  0.53277000  0.15915000  1.0 0.0940066817
C  C151  1  0.62638000  0.96723000  0.32041000  1.0 0.0940066817
C  C152  1  0.87362000  0.19403000  0.34085000  1.0 0.0940066817
C  C153  1  0.17959000  0.14682000  0.30597000  1.0 0.0940066817
C  C154  1  0.15915000  0.35318000  0.53277000  1.0 0.0940066817
C  C155  1  0.32041000  0.62638000  0.96723000  1.0 0.0940066817
C  C156  1  0.34085000  0.87362000  0.19403000  1.0 0.0940066817
C  C157  1  0.67959000  0.80597000  0.64682000  1.0 0.0940066817
C  C158  1  0.65915000  0.03277000  0.85318000  1.0 0.0940066817
C  C159  1  0.82041000  0.46723000  0.12638000  1.0 0.0940066817
C  C160  1  0.84085000  0.69403000  0.37362000  1.0 0.0940066817
C  C161  1  0.80597000  0.64682000  0.67959000  1.0 0.0940066817
C  C162  1  0.03277000  0.85318000  0.65915000  1.0 0.0940066817
C  C163  1  0.46723000  0.12638000  0.82041000  1.0 0.0940066817
C  C164  1  0.69403000  0.37362000  0.84085000  1.0 0.0940066817
C  C165  1  0.64682000  0.67959000  0.80597000  1.0 0.0940066817
C  C166  1  0.85318000  0.65915000  0.03277000  1.0 0.0940066817
C  C167  1  0.12638000  0.82041000  0.46723000  1.0 0.0940066817
C  C168  1  0.37362000  0.84085000  0.69403000  1.0 0.0940066817
C  C169  1  0.27439000  0.27462000  0.13677000  1.0 0.5981519133
C  C170  1  0.63785000  0.13762000  0.36323000  1.0 0.5981519133
C  C171  1  0.86215000  0.22538000  0.49977000  1.0 0.5981519133
C  C172  1  0.22561000  0.36238000  0.00023000  1.0 0.5981519133
C  C173  1  0.13677000  0.27439000  0.27462000  1.0 0.5981519133
C  C174  1  0.36323000  0.63785000  0.13762000  1.0 0.5981519133
C  C175  1  0.49977000  0.86215000  0.22538000  1.0 0.5981519133
C  C176  1  0.00023000  0.22561000  0.36238000  1.0 0.5981519133
C  C177  1  0.27462000  0.13677000  0.27439000  1.0 0.5981519133
C  C178  1  0.13762000  0.36323000  0.63785000  1.0 0.5981519133
C  C179  1  0.22538000  0.49977000  0.86215000  1.0 0.5981519133
C  C180  1  0.36238000  0.00023000  0.22561000  1.0 0.5981519133
C  C181  1  0.77462000  0.77439000  0.63677000  1.0 0.5981519133
C  C182  1  0.63762000  0.13785000  0.86323000  1.0 0.5981519133
C  C183  1  0.72538000  0.36215000  0.99977000  1.0 0.5981519133
C  C184  1  0.86238000  0.72561000  0.50023000  1.0 0.5981519133
C  C185  1  0.77439000  0.63677000  0.77462000  1.0 0.5981519133
C  C186  1  0.13785000  0.86323000  0.63762000  1.0 0.5981519133
C  C187  1  0.36215000  0.99977000  0.72538000  1.0 0.5981519133
C  C188  1  0.72561000  0.50023000  0.86238000  1.0 0.5981519133
C  C189  1  0.63677000  0.77462000  0.77439000  1.0 0.5981519133
C  C190  1  0.86323000  0.63762000  0.13785000  1.0 0.5981519133
C  C191  1  0.99977000  0.72538000  0.36215000  1.0 0.5981519133
C  C192  1  0.50023000  0.86238000  0.72561000  1.0 0.5981519133
C  C193  1  0.31997000  0.23017000  0.22138000  1.0 0.0803553082
C  C194  1  0.50879000  0.09859000  0.27862000  1.0 0.0803553082
C  C195  1  0.99121000  0.26983000  0.58980000  1.0 0.0803553082
C  C196  1  0.18003000  0.40141000  0.91020000  1.0 0.0803553082
C  C197  1  0.22138000  0.31997000  0.23017000  1.0 0.0803553082
C  C198  1  0.27862000  0.50879000  0.09859000  1.0 0.0803553082
C  C199  1  0.58980000  0.99121000  0.26983000  1.0 0.0803553082
C  C200  1  0.91020000  0.18003000  0.40141000  1.0 0.0803553082
C  C201  1  0.23017000  0.22138000  0.31997000  1.0 0.0803553082
C  C202  1  0.09859000  0.27862000  0.50879000  1.0 0.0803553082
C  C203  1  0.26983000  0.58980000  0.99121000  1.0 0.0803553082
C  C204  1  0.40141000  0.91020000  0.18003000  1.0 0.0803553082
C  C205  1  0.73017000  0.81997000  0.72138000  1.0 0.0803553082
C  C206  1  0.59859000  0.00879000  0.77862000  1.0 0.0803553082
C  C207  1  0.76983000  0.49121000  0.08980000  1.0 0.0803553082
C  C208  1  0.90141000  0.68003000  0.41020000  1.0 0.0803553082
C  C209  1  0.81997000  0.72138000  0.73017000  1.0 0.0803553082
C  C210  1  0.00879000  0.77862000  0.59859000  1.0 0.0803553082
C  C211  1  0.49121000  0.08980000  0.76983000  1.0 0.0803553082
C  C212  1  0.68003000  0.41020000  0.90141000  1.0 0.0803553082
C  C213  1  0.72138000  0.73017000  0.81997000  1.0 0.0803553082
C  C214  1  0.77862000  0.59859000  0.00879000  1.0 0.0803553082
C  C215  1  0.08980000  0.76983000  0.49121000  1.0 0.0803553082
C  C216  1  0.41020000  0.90141000  0.68003000  1.0 0.0803553082
C  C217  1  0.77623000  0.98050000  0.84473000  1.0 -0.0406023991
C  C218  1  0.63577000  0.93150000  0.65527000  1.0 -0.0406023991
C  C219  1  0.86423000  0.51950000  0.29573000  1.0 -0.0406023991
C  C220  1  0.72377000  0.56850000  0.20427000  1.0 -0.0406023991
C  C221  1  0.84473000  0.77623000  0.98050000  1.0 -0.0453862791
C  C222  1  0.65527000  0.63577000  0.93150000  1.0 -0.0406023991
C  C223  1  0.29573000  0.86423000  0.51950000  1.0 -0.0453862791
C  C224  1  0.20427000  0.72377000  0.56850000  1.0 -0.0406023991
C  C225  1  0.98050000  0.84473000  0.77623000  1.0 -0.0406023991
C  C226  1  0.93150000  0.65527000  0.63577000  1.0 -0.0406023991
C  C227  1  0.51950000  0.29573000  0.86423000  1.0 -0.0406023991
C  C228  1  0.56850000  0.20427000  0.72377000  1.0 -0.0406023991
C  C229  1  0.48050000  0.27623000  0.34473000  1.0 -0.0406023991
C  C230  1  0.43150000  0.13577000  0.15527000  1.0 -0.0406023991
C  C231  1  0.01950000  0.36423000  0.79573000  1.0 -0.0406023991
C  C232  1  0.06850000  0.22377000  0.70427000  1.0 -0.0406023991
C  C233  1  0.27623000  0.34473000  0.48050000  1.0 -0.0406023991
C  C234  1  0.13577000  0.15527000  0.43150000  1.0 -0.0406023991
C  C235  1  0.36423000  0.79573000  0.01950000  1.0 -0.0406023991
C  C236  1  0.22377000  0.70427000  0.06850000  1.0 -0.0406023991
C  C237  1  0.34473000  0.48050000  0.27623000  1.0 -0.0406023991
C  C238  1  0.15527000  0.43150000  0.13577000  1.0 -0.0406023991
C  C239  1  0.79573000  0.01950000  0.36423000  1.0 -0.0406023991
C  C240  1  0.70427000  0.06850000  0.22377000  1.0 -0.0406023991
C  C241  1  0.99910000  0.12700000  0.95110000  1.0 0.1618038449
C  C242  1  0.67590000  0.04800000  0.54890000  1.0 0.1618038449
C  C243  1  0.82410000  0.37300000  0.37210000  1.0 0.1618038449
C  C244  1  0.50090000  0.45200000  0.12790000  1.0 0.1618038449
C  C245  1  0.95110000  0.99910000  0.12700000  1.0 0.1618038449
C  C246  1  0.54890000  0.67590000  0.04800000  1.0 0.1618038449
C  C247  1  0.37210000  0.82410000  0.37300000  1.0 0.1618038449
C  C248  1  0.12790000  0.50090000  0.45200000  1.0 0.1618038449
C  C249  1  0.12700000  0.95110000  0.99910000  1.0 0.1618038449
C  C250  1  0.04800000  0.54890000  0.67590000  1.0 0.1618038449
C  C251  1  0.37300000  0.37210000  0.82410000  1.0 0.1618038449
C  C252  1  0.45200000  0.12790000  0.50090000  1.0 0.1618038449
C  C253  1  0.62700000  0.49910000  0.45110000  1.0 0.1618038449
C  C254  1  0.54800000  0.17590000  0.04890000  1.0 0.1618038449
C  C255  1  0.87300000  0.32410000  0.87210000  1.0 0.1618038449
C  C256  1  0.95200000  0.00090000  0.62790000  1.0 0.1618038449
C  C257  1  0.49910000  0.45110000  0.62700000  1.0 0.1618038449
C  C258  1  0.17590000  0.04890000  0.54800000  1.0 0.1618038449
C  C259  1  0.32410000  0.87210000  0.87300000  1.0 0.1618038449
C  C260  1  0.00090000  0.62790000  0.95200000  1.0 0.1618038449
C  C261  1  0.45110000  0.62700000  0.49910000  1.0 0.1618038449
C  C262  1  0.04890000  0.54800000  0.17590000  1.0 0.1618038449
C  C263  1  0.87210000  0.87300000  0.32410000  1.0 0.1618038449
C  C264  1  0.62790000  0.95200000  0.00090000  1.0 0.1618038449
C  C265  1  0.81040000  0.97340000  0.83600000  1.0 -0.0811285343
C  C266  1  0.63740000  0.97440000  0.66400000  1.0 -0.0811285343
C  C267  1  0.86260000  0.52660000  0.33700000  1.0 -0.0811285343
C  C268  1  0.68960000  0.52560000  0.16300000  1.0 -0.0811285343
C  C269  1  0.83600000  0.81040000  0.97340000  1.0 -0.0811285343
C  C270  1  0.66400000  0.63740000  0.97440000  1.0 -0.0811285343
C  C271  1  0.33700000  0.86260000  0.52660000  1.0 -0.0811285343
C  C272  1  0.16300000  0.68960000  0.52560000  1.0 -0.0811285343
C  C273  1  0.97340000  0.83600000  0.81040000  1.0 -0.0811285343
C  C274  1  0.97440000  0.66400000  0.63740000  1.0 -0.0811285343
C  C275  1  0.52660000  0.33700000  0.86260000  1.0 -0.0811285343
C  C276  1  0.52560000  0.16300000  0.68960000  1.0 -0.0811285343
C  C277  1  0.47340000  0.31040000  0.33600000  1.0 -0.0811285343
C  C278  1  0.47440000  0.13740000  0.16400000  1.0 -0.0811285343
C  C279  1  0.02660000  0.36260000  0.83700000  1.0 -0.0811285343
C  C280  1  0.02560000  0.18960000  0.66300000  1.0 -0.0811285343
C  C281  1  0.31040000  0.33600000  0.47340000  1.0 -0.0811285343
C  C282  1  0.13740000  0.16400000  0.47440000  1.0 -0.0811285343
C  C283  1  0.36260000  0.83700000  0.02660000  1.0 -0.0811285343
C  C284  1  0.18960000  0.66300000  0.02560000  1.0 -0.0811285343
C  C285  1  0.33600000  0.47340000  0.31040000  1.0 -0.0811285343
C  C286  1  0.16400000  0.47440000  0.13740000  1.0 -0.0811285343
C  C287  1  0.83700000  0.02660000  0.36260000  1.0 -0.0811285343
C  C288  1  0.66300000  0.02560000  0.18960000  1.0 -0.0811285343
C  C289  1  0.87410000  0.05040000  0.90270000  1.0 0.1618038449
C  C290  1  0.64770000  0.97140000  0.59730000  1.0 0.1618038449
C  C291  1  0.85230000  0.44960000  0.32370000  1.0 0.165703345
C  C292  1  0.62590000  0.52860000  0.17630000  1.0 0.165703345
C  C293  1  0.90270000  0.87410000  0.05040000  1.0 0.165703345
C  C294  1  0.59730000  0.64770000  0.97140000  1.0 0.1618038449
C  C295  1  0.32370000  0.85230000  0.44960000  1.0 0.1618038449
C  C296  1  0.17630000  0.62590000  0.52860000  1.0 0.1618038449
C  C297  1  0.05040000  0.90270000  0.87410000  1.0 0.1618038449
C  C298  1  0.97140000  0.59730000  0.64770000  1.0 0.1618038449
C  C299  1  0.44960000  0.32370000  0.85230000  1.0 0.1618038449
C  C300  1  0.52860000  0.17630000  0.62590000  1.0 0.165703345
C  C301  1  0.55040000  0.37410000  0.40270000  1.0 0.165703345
C  C302  1  0.47140000  0.14770000  0.09730000  1.0 0.1618038449
C  C303  1  0.94960000  0.35230000  0.82370000  1.0 0.165703345
C  C304  1  0.02860000  0.12590000  0.67630000  1.0 0.165703345
C  C305  1  0.37410000  0.40270000  0.55040000  1.0 0.1618038449
C  C306  1  0.14770000  0.09730000  0.47140000  1.0 0.1618038449
C  C307  1  0.35230000  0.82370000  0.94960000  1.0 0.1618038449
C  C308  1  0.12590000  0.67630000  0.02860000  1.0 0.1618038449
C  C309  1  0.40270000  0.55040000  0.37410000  1.0 0.1618038449
C  C310  1  0.09730000  0.47140000  0.14770000  1.0 0.1618038449
C  C311  1  0.82370000  0.94960000  0.35230000  1.0 0.165703345
C  C312  1  0.67630000  0.02860000  0.12590000  1.0 0.1618038449
C  C313  1  0.06360000  0.19780000  0.02660000  1.0 -0.0811285343
C  C314  1  0.67120000  0.03700000  0.47340000  1.0 -0.0811285343
C  C315  1  0.82880000  0.30220000  0.36580000  1.0 -0.0811285343
C  C316  1  0.43640000  0.46300000  0.13420000  1.0 -0.0811285343
C  C317  1  0.02660000  0.06360000  0.19780000  1.0 -0.0811285343
C  C318  1  0.47340000  0.67120000  0.03700000  1.0 -0.0811285343
C  C319  1  0.36580000  0.82880000  0.30220000  1.0 -0.0811285343
C  C320  1  0.13420000  0.43640000  0.46300000  1.0 -0.0811285343
C  C321  1  0.19780000  0.02660000  0.06360000  1.0 -0.0811285343
C  C322  1  0.03700000  0.47340000  0.67120000  1.0 -0.0811285343
C  C323  1  0.30220000  0.36580000  0.82880000  1.0 -0.0811285343
C  C324  1  0.46300000  0.13420000  0.43640000  1.0 -0.0811285343
C  C325  1  0.69780000  0.56360000  0.52660000  1.0 -0.0811285343
C  C326  1  0.53700000  0.17120000  0.97340000  1.0 -0.0811285343
C  C327  1  0.80220000  0.32880000  0.86580000  1.0 -0.0811285343
C  C328  1  0.96300000  0.93640000  0.63420000  1.0 -0.0811285343
C  C329  1  0.56360000  0.52660000  0.69780000  1.0 -0.0811285343
C  C330  1  0.17120000  0.97340000  0.53700000  1.0 -0.0811285343
C  C331  1  0.32880000  0.86580000  0.80220000  1.0 -0.0811285343
C  C332  1  0.93640000  0.63420000  0.96300000  1.0 -0.0811285343
C  C333  1  0.52660000  0.69780000  0.56360000  1.0 -0.0811285343
C  C334  1  0.97340000  0.53700000  0.17120000  1.0 -0.0811285343
C  C335  1  0.86580000  0.80220000  0.32880000  1.0 -0.0811285343
C  C336  1  0.63420000  0.96300000  0.93640000  1.0 -0.0811285343
C  C337  1  0.79170000  0.02470000  0.88360000  1.0 -0.0875839685
C  C338  1  0.64110000  0.90810000  0.61640000  1.0 -0.0875839685
C  C339  1  0.85890000  0.47530000  0.26700000  1.0 -0.0875839685
C  C340  1  0.70830000  0.59190000  0.23300000  1.0 -0.0875839685
C  C341  1  0.88360000  0.79170000  0.02470000  1.0 -0.0875839685
C  C342  1  0.61640000  0.64110000  0.90810000  1.0 -0.0875839685
C  C343  1  0.26700000  0.85890000  0.47530000  1.0 -0.0875839685
C  C344  1  0.23300000  0.70830000  0.59190000  1.0 -0.0875839685
C  C345  1  0.02470000  0.88360000  0.79170000  1.0 -0.0875839685
C  C346  1  0.90810000  0.61640000  0.64110000  1.0 -0.0875839685
C  C347  1  0.47530000  0.26700000  0.85890000  1.0 -0.0875839685
C  C348  1  0.59190000  0.23300000  0.70830000  1.0 -0.0875839685
C  C349  1  0.52470000  0.29170000  0.38360000  1.0 -0.0875839685
C  C350  1  0.40810000  0.14110000  0.11640000  1.0 -0.0875839685
C  C351  1  0.97530000  0.35890000  0.76700000  1.0 -0.0875839685
C  C352  1  0.09190000  0.20830000  0.73300000  1.0 -0.0875839685
C  C353  1  0.29170000  0.38360000  0.52470000  1.0 -0.0875839685
C  C354  1  0.14110000  0.11640000  0.40810000  1.0 -0.0875839685
C  C355  1  0.35890000  0.76700000  0.97530000  1.0 -0.0875839685
C  C356  1  0.20830000  0.73300000  0.09190000  1.0 -0.0875839685
C  C357  1  0.38360000  0.52470000  0.29170000  1.0 -0.0875839685
C  C358  1  0.11640000  0.40810000  0.14110000  1.0 -0.0875839685
C  C359  1  0.76700000  0.97530000  0.35890000  1.0 -0.0875839685
C  C360  1  0.73300000  0.09190000  0.20830000  1.0 -0.0875839685
C  C361  1  0.85890000  0.00710000  0.86440000  1.0 -0.1511062663
C  C362  1  0.64270000  0.99450000  0.63560000  1.0 -0.1511062663
C  C363  1  0.85730000  0.49290000  0.35180000  1.0 -0.1511062663
C  C364  1  0.64110000  0.50550000  0.14820000  1.0 -0.142414621
C  C365  1  0.86440000  0.85890000  0.00710000  1.0 -0.1511062663
C  C366  1  0.63560000  0.64270000  0.99450000  1.0 -0.1511062663
C  C367  1  0.35180000  0.85730000  0.49290000  1.0 -0.1511062663
C  C368  1  0.14820000  0.64110000  0.50550000  1.0 -0.1511062663
C  C369  1  0.00710000  0.86440000  0.85890000  1.0 -0.1511062663
C  C370  1  0.99450000  0.63560000  0.64270000  1.0 -0.1511062663
C  C371  1  0.49290000  0.35180000  0.85730000  1.0 -0.1511062663
C  C372  1  0.50550000  0.14820000  0.64110000  1.0 -0.1511062663
C  C373  1  0.50710000  0.35890000  0.36440000  1.0 -0.1511062663
C  C374  1  0.49450000  0.14270000  0.13560000  1.0 -0.1511062663
C  C375  1  0.99290000  0.35730000  0.85180000  1.0 -0.142414621
C  C376  1  0.00550000  0.14110000  0.64820000  1.0 -0.1511062663
C  C377  1  0.35890000  0.36440000  0.50710000  1.0 -0.1511062663
C  C378  1  0.14270000  0.13560000  0.49450000  1.0 -0.1511062663
C  C379  1  0.35730000  0.85180000  0.99290000  1.0 -0.1511062663
C  C380  1  0.14110000  0.64820000  0.00550000  1.0 -0.1511062663
C  C381  1  0.36440000  0.50710000  0.35890000  1.0 -0.1511062663
C  C382  1  0.13560000  0.49450000  0.14270000  1.0 -0.1511062663
C  C383  1  0.85180000  0.99290000  0.35730000  1.0 -0.1511062663
C  C384  1  0.64820000  0.00550000  0.14110000  1.0 -0.1511062663
C  C385  1  0.84130000  0.05840000  0.91290000  1.0 -0.142414621
C  C386  1  0.64550000  0.92840000  0.58710000  1.0 -0.142414621
C  C387  1  0.85450000  0.44160000  0.28290000  1.0 -0.142414621
C  C388  1  0.65870000  0.57160000  0.21710000  1.0 -0.142414621
C  C389  1  0.91290000  0.84130000  0.05840000  1.0 -0.142414621
C  C390  1  0.58710000  0.64550000  0.92840000  1.0 -0.142414621
C  C391  1  0.28290000  0.85450000  0.44160000  1.0 -0.142414621
C  C392  1  0.21710000  0.65870000  0.57160000  1.0 -0.142414621
C  C393  1  0.05840000  0.91290000  0.84130000  1.0 -0.142414621
C  C394  1  0.92840000  0.58710000  0.64550000  1.0 -0.142414621
C  C395  1  0.44160000  0.28290000  0.85450000  1.0 -0.142414621
C  C396  1  0.57160000  0.21710000  0.65870000  1.0 -0.142414621
C  C397  1  0.55840000  0.34130000  0.41290000  1.0 -0.142414621
C  C398  1  0.42840000  0.14550000  0.08710000  1.0 -0.142414621
C  C399  1  0.94160000  0.35450000  0.78290000  1.0 -0.142414621
C  C400  1  0.07160000  0.15870000  0.71710000  1.0 -0.142414621
C  C401  1  0.34130000  0.41290000  0.55840000  1.0 -0.142414621
C  C402  1  0.14550000  0.08710000  0.42840000  1.0 -0.142414621
C  C403  1  0.35450000  0.78290000  0.94160000  1.0 -0.142414621
C  C404  1  0.15870000  0.71710000  0.07160000  1.0 -0.142414621
C  C405  1  0.41290000  0.55840000  0.34130000  1.0 -0.142414621
C  C406  1  0.08710000  0.42840000  0.14550000  1.0 -0.142414621
C  C407  1  0.78290000  0.94160000  0.35450000  1.0 -0.142414621
C  C408  1  0.71710000  0.07160000  0.15870000  1.0 -0.142414621
C  C409  1  0.07780000  0.16910000  0.96090000  1.0 -0.0687520107
C  C410  1  0.70820000  0.11690000  0.53910000  1.0 -0.0687520107
C  C411  1  0.79180000  0.33090000  0.40870000  1.0 -0.0687520107
C  C412  1  0.42220000  0.38310000  0.09130000  1.0 -0.0687520107
C  C413  1  0.96090000  0.07780000  0.16910000  1.0 -0.0687520107
C  C414  1  0.53910000  0.70820000  0.11690000  1.0 -0.0687520107
C  C415  1  0.40870000  0.79180000  0.33090000  1.0 -0.0687520107
C  C416  1  0.09130000  0.42220000  0.38310000  1.0 -0.0687520107
C  C417  1  0.16910000  0.96090000  0.07780000  1.0 -0.0687520107
C  C418  1  0.11690000  0.53910000  0.70820000  1.0 -0.0687520107
C  C419  1  0.33090000  0.40870000  0.79180000  1.0 -0.0687520107
C  C420  1  0.38310000  0.09130000  0.42220000  1.0 -0.0687520107
C  C421  1  0.66910000  0.57780000  0.46090000  1.0 -0.0687520107
C  C422  1  0.61690000  0.20820000  0.03910000  1.0 -0.0687520107
C  C423  1  0.83090000  0.29180000  0.90870000  1.0 -0.0687520107
C  C424  1  0.88310000  0.92220000  0.59130000  1.0 -0.0687520107
C  C425  1  0.57780000  0.46090000  0.66910000  1.0 -0.0687520107
C  C426  1  0.20820000  0.03910000  0.61690000  1.0 -0.0687520107
C  C427  1  0.29180000  0.90870000  0.83090000  1.0 -0.0687520107
C  C428  1  0.92220000  0.59130000  0.88310000  1.0 -0.0687520107
C  C429  1  0.46090000  0.66910000  0.57780000  1.0 -0.0687520107
C  C430  1  0.03910000  0.61690000  0.20820000  1.0 -0.0687520107
C  C431  1  0.90870000  0.83090000  0.29180000  1.0 -0.0687520107
C  C432  1  0.59130000  0.88310000  0.92220000  1.0 -0.0687520107
C  C433  1  0.01680000  0.15830000  0.99770000  1.0 -0.1511062663
C  C434  1  0.66060000  0.01910000  0.50230000  1.0 -0.1511062663
C  C435  1  0.83940000  0.34170000  0.35850000  1.0 -0.1511062663
C  C436  1  0.48320000  0.48090000  0.14150000  1.0 -0.1511062663
C  C437  1  0.99770000  0.01680000  0.15830000  1.0 -0.1511062663
C  C438  1  0.50230000  0.66060000  0.01910000  1.0 -0.1511062663
C  C439  1  0.35850000  0.83940000  0.34170000  1.0 -0.1511062663
C  C440  1  0.14150000  0.48320000  0.48090000  1.0 -0.1511062663
C  C441  1  0.15830000  0.99770000  0.01680000  1.0 -0.1511062663
C  C442  1  0.01910000  0.50230000  0.66060000  1.0 -0.1511062663
C  C443  1  0.34170000  0.35850000  0.83940000  1.0 -0.1511062663
C  C444  1  0.48090000  0.14150000  0.48320000  1.0 -0.1511062663
C  C445  1  0.65830000  0.51680000  0.49770000  1.0 -0.1511062663
C  C446  1  0.51910000  0.16060000  0.00230000  1.0 -0.1511062663
C  C447  1  0.84170000  0.33940000  0.85850000  1.0 -0.1511062663
C  C448  1  0.98090000  0.98320000  0.64150000  1.0 -0.1511062663
C  C449  1  0.51680000  0.49770000  0.65830000  1.0 -0.1511062663
C  C450  1  0.16060000  0.00230000  0.51910000  1.0 -0.1511062663
C  C451  1  0.33940000  0.85850000  0.84170000  1.0 -0.1511062663
C  C452  1  0.98320000  0.64150000  0.98090000  1.0 -0.1511062663
C  C453  1  0.49770000  0.65830000  0.51680000  1.0 -0.1511062663
C  C454  1  0.00230000  0.51910000  0.16060000  1.0 -0.1511062663
C  C455  1  0.85850000  0.84170000  0.33940000  1.0 -0.1511062663
C  C456  1  0.64150000  0.98090000  0.98320000  1.0 -0.1511062663
C  C457  1  0.03080000  0.13160000  0.93520000  1.0 -0.1511062663
C  C458  1  0.69640000  0.09560000  0.56480000  1.0 -0.1511062663
C  C459  1  0.80360000  0.36840000  0.39920000  1.0 -0.1511062663
C  C460  1  0.46920000  0.40440000  0.10080000  1.0 -0.1511062663
C  C461  1  0.93520000  0.03080000  0.13160000  1.0 -0.1511062663
C  C462  1  0.56480000  0.69640000  0.09560000  1.0 -0.1511062663
C  C463  1  0.39920000  0.80360000  0.36840000  1.0 -0.1511062663
C  C464  1  0.10080000  0.46920000  0.40440000  1.0 -0.1511062663
C  C465  1  0.13160000  0.93520000  0.03080000  1.0 -0.1511062663
C  C466  1  0.09560000  0.56480000  0.69640000  1.0 -0.1511062663
C  C467  1  0.36840000  0.39920000  0.80360000  1.0 -0.1511062663
C  C468  1  0.40440000  0.10080000  0.46920000  1.0 -0.1511062663
C  C469  1  0.63160000  0.53080000  0.43520000  1.0 -0.1511062663
C  C470  1  0.59560000  0.19640000  0.06480000  1.0 -0.1511062663
C  C471  1  0.86840000  0.30360000  0.89920000  1.0 -0.1511062663
C  C472  1  0.90440000  0.96920000  0.60080000  1.0 -0.1511062663
C  C473  1  0.53080000  0.43520000  0.63160000  1.0 -0.1511062663
C  C474  1  0.19640000  0.06480000  0.59560000  1.0 -0.1511062663
C  C475  1  0.30360000  0.89920000  0.86840000  1.0 -0.1511062663
C  C476  1  0.96920000  0.60080000  0.90440000  1.0 -0.1511062663
C  C477  1  0.43520000  0.63160000  0.53080000  1.0 -0.1511062663
C  C478  1  0.06480000  0.59560000  0.19640000  1.0 -0.1511062663
C  C479  1  0.89920000  0.86840000  0.30360000  1.0 -0.1511062663
C  C480  1  0.60080000  0.90440000  0.96920000  1.0 -0.1511062663
N  N1  1  0.31929000  0.19060000  0.19265000  1.0 -0.2316257414
N  N2  1  0.49795000  0.12664000  0.30735000  1.0 -0.2316257414
N  N3  1  0.00205000  0.30940000  0.62869000  1.0 -0.2316257414
N  N4  1  0.18071000  0.37336000  0.87131000  1.0 -0.2316257414
N  N5  1  0.19265000  0.31929000  0.19060000  1.0 -0.2316257414
N  N6  1  0.30735000  0.49795000  0.12664000  1.0 -0.2316257414
N  N7  1  0.62869000  0.00205000  0.30940000  1.0 -0.2316257414
N  N8  1  0.87131000  0.18071000  0.37336000  1.0 -0.2316257414
N  N9  1  0.19060000  0.19265000  0.31929000  1.0 -0.2316257414
N  N10  1  0.12664000  0.30735000  0.49795000  1.0 -0.2316257414
N  N11  1  0.30940000  0.62869000  0.00205000  1.0 -0.2316257414
N  N12  1  0.37336000  0.87131000  0.18071000  1.0 -0.2316257414
N  N13  1  0.69060000  0.81929000  0.69265000  1.0 -0.2316257414
N  N14  1  0.62664000  0.99795000  0.80735000  1.0 -0.2316257414
N  N15  1  0.80940000  0.50205000  0.12869000  1.0 -0.2316257414
N  N16  1  0.87336000  0.68071000  0.37131000  1.0 -0.2316257414
N  N17  1  0.81929000  0.69265000  0.69060000  1.0 -0.2316257414
N  N18  1  0.99795000  0.80735000  0.62664000  1.0 -0.2316257414
N  N19  1  0.50205000  0.12869000  0.80940000  1.0 -0.2316257414
N  N20  1  0.68071000  0.37131000  0.87336000  1.0 -0.2316257414
N  N21  1  0.69265000  0.69060000  0.81929000  1.0 -0.2316257414
N  N22  1  0.80735000  0.62664000  0.99795000  1.0 -0.2316257414
N  N23  1  0.12869000  0.80940000  0.50205000  1.0 -0.2316257414
N  N24  1  0.37131000  0.87336000  0.68071000  1.0 -0.2316257414
N  N25  1  0.92330000  0.09190000  0.93480000  1.0 -0.142414621
N  N26  1  0.65710000  0.98850000  0.56520000  1.0 -0.142414621
N  N27  1  0.84290000  0.40810000  0.33140000  1.0 -0.142414621
N  N28  1  0.57670000  0.51150000  0.16860000  1.0 -0.142414621
N  N29  1  0.93480000  0.92330000  0.09190000  1.0 -0.142414621
N  N30  1  0.56520000  0.65710000  0.98850000  1.0 -0.142414621
N  N31  1  0.33140000  0.84290000  0.40810000  1.0 -0.142414621
N  N32  1  0.16860000  0.57670000  0.51150000  1.0 -0.142414621
N  N33  1  0.09190000  0.93480000  0.92330000  1.0 -0.142414621
N  N34  1  0.98850000  0.56520000  0.65710000  1.0 -0.142414621
N  N35  1  0.40810000  0.33140000  0.84290000  1.0 -0.142414621
N  N36  1  0.51150000  0.16860000  0.57670000  1.0 -0.142414621
N  N37  1  0.59190000  0.42330000  0.43480000  1.0 -0.142414621
N  N38  1  0.48850000  0.15710000  0.06520000  1.0 -0.142414621
N  N39  1  0.90810000  0.34290000  0.83140000  1.0 -0.142414621
N  N40  1  0.01150000  0.07670000  0.66860000  1.0 -0.142414621
N  N41  1  0.42330000  0.43480000  0.59190000  1.0 -0.142414621
N  N42  1  0.15710000  0.06520000  0.48850000  1.0 -0.142414621
N  N43  1  0.34290000  0.83140000  0.90810000  1.0 -0.142414621
N  N44  1  0.07670000  0.66860000  0.01150000  1.0 -0.142414621
N  N45  1  0.43480000  0.59190000  0.42330000  1.0 -0.142414621
N  N46  1  0.06520000  0.48850000  0.15710000  1.0 -0.142414621
N  N47  1  0.83140000  0.90810000  0.34290000  1.0 -0.142414621
N  N48  1  0.66860000  0.01150000  0.07670000  1.0 -0.142414621
N  N49  1  0.95100000  0.08880000  0.91880000  1.0 -0.1511062663
N  N50  1  0.67000000  0.03220000  0.58120000  1.0 -0.1511062663
N  N51  1  0.83000000  0.41120000  0.36220000  1.0 -0.1511062663
N  N52  1  0.54900000  0.46780000  0.13780000  1.0 -0.1511062663
N  N53  1  0.91880000  0.95100000  0.08880000  1.0 -0.1511062663
N  N54  1  0.58120000  0.67000000  0.03220000  1.0 -0.1511062663
N  N55  1  0.36220000  0.83000000  0.41120000  1.0 -0.1511062663
N  N56  1  0.13780000  0.54900000  0.46780000  1.0 -0.1511062663
N  N57  1  0.08880000  0.91880000  0.95100000  1.0 -0.1511062663
N  N58  1  0.03220000  0.58120000  0.67000000  1.0 -0.1511062663
N  N59  1  0.41120000  0.36220000  0.83000000  1.0 -0.1511062663
N  N60  1  0.46780000  0.13780000  0.54900000  1.0 -0.1511062663
N  N61  1  0.58880000  0.45100000  0.41880000  1.0 -0.1511062663
N  N62  1  0.53220000  0.17000000  0.08120000  1.0 -0.1511062663
N  N63  1  0.91120000  0.33000000  0.86220000  1.0 -0.1511062663
N  N64  1  0.96780000  0.04900000  0.63780000  1.0 -0.1511062663
N  N65  1  0.45100000  0.41880000  0.58880000  1.0 -0.1511062663
N  N66  1  0.17000000  0.08120000  0.53220000  1.0 -0.1511062663
N  N67  1  0.33000000  0.86220000  0.91120000  1.0 -0.1511062663
N  N68  1  0.04900000  0.63780000  0.96780000  1.0 -0.1511062663
N  N69  1  0.41880000  0.58880000  0.45100000  1.0 -0.1511062663
N  N70  1  0.08120000  0.53220000  0.17000000  1.0 -0.1511062663
N  N71  1  0.86220000  0.91120000  0.33000000  1.0 -0.1554838811
N  N72  1  0.63780000  0.96780000  0.04900000  1.0 -0.1511062663
O  O1  1  0.25000000  0.35274000  0.10274000  1.0 -1.0518463795
O  O2  1  0.75000000  0.14726000  0.39726000  1.0 -1.0518463795
O  O3  1  0.10274000  0.25000000  0.35274000  1.0 -1.0518463795
O  O4  1  0.39726000  0.75000000  0.14726000  1.0 -1.0518463795
O  O5  1  0.35274000  0.10274000  0.25000000  1.0 -1.0518463795
O  O6  1  0.14726000  0.39726000  0.75000000  1.0 -1.0518463795
O  O7  1  0.85274000  0.75000000  0.60274000  1.0 -1.0518463795
O  O8  1  0.64726000  0.25000000  0.89726000  1.0 -1.0518463795
O  O9  1  0.75000000  0.60274000  0.85274000  1.0 -1.0518463795
O  O10  1  0.25000000  0.89726000  0.64726000  1.0 -1.0518463795
O  O11  1  0.60274000  0.85274000  0.75000000  1.0 -1.0518463795
O  O12  1  0.89726000  0.64726000  0.25000000  1.0 -1.0518463795
O  O13  1  0.27152000  0.26932000  0.09684000  1.0 -0.5343885665
O  O14  1  0.67248000  0.17468000  0.40316000  1.0 -0.5343885665
O  O15  1  0.82752000  0.23068000  0.50220000  1.0 -0.5343885665
O  O16  1  0.22848000  0.32532000  0.99780000  1.0 -0.5343885665
O  O17  1  0.09684000  0.27152000  0.26932000  1.0 -0.5343885665
O  O18  1  0.40316000  0.67248000  0.17468000  1.0 -0.5343885665
O  O19  1  0.50220000  0.82752000  0.23068000  1.0 -0.5343885665
O  O20  1  0.99780000  0.22848000  0.32532000  1.0 -0.5343885665
O  O21  1  0.26932000  0.09684000  0.27152000  1.0 -0.5343885665
O  O22  1  0.17468000  0.40316000  0.67248000  1.0 -0.5343885665
O  O23  1  0.23068000  0.50220000  0.82752000  1.0 -0.5343885665
O  O24  1  0.32532000  0.99780000  0.22848000  1.0 -0.5343885665
O  O25  1  0.76932000  0.77152000  0.59684000  1.0 -0.5343885665
O  O26  1  0.67468000  0.17248000  0.90316000  1.0 -0.5343885665
O  O27  1  0.73068000  0.32752000  0.00220000  1.0 -0.5343885665
O  O28  1  0.82532000  0.72848000  0.49780000  1.0 -0.5343885665
O  O29  1  0.77152000  0.59684000  0.76932000  1.0 -0.5343885665
O  O30  1  0.17248000  0.90316000  0.67468000  1.0 -0.5343885665
O  O31  1  0.32752000  0.00220000  0.73068000  1.0 -0.5343885665
O  O32  1  0.72848000  0.49780000  0.82532000  1.0 -0.5343885665
O  O33  1  0.59684000  0.76932000  0.77152000  1.0 -0.5343885665
O  O34  1  0.90316000  0.67468000  0.17248000  1.0 -0.5427852802
O  O35  1  0.00220000  0.73068000  0.32752000  1.0 -0.5427852802
O  O36  1  0.49780000  0.82532000  0.72848000  1.0 -0.5343885665
O  O37  1  0.16006000  0.26907000  0.08465000  1.0 -0.5725340416
O  O38  1  0.68442000  0.07541000  0.41535000  1.0 -0.5725340416
O  O39  1  0.81558000  0.23093000  0.39099000  1.0 -0.5725340416
O  O40  1  0.33994000  0.42459000  0.10901000  1.0 -0.5725340416
O  O41  1  0.08465000  0.16006000  0.26907000  1.0 -0.5725340416
O  O42  1  0.41535000  0.68442000  0.07541000  1.0 -0.5725340416
O  O43  1  0.39099000  0.81558000  0.23093000  1.0 -0.5725340416
O  O44  1  0.10901000  0.33994000  0.42459000  1.0 -0.5725340416
O  O45  1  0.26907000  0.08465000  0.16006000  1.0 -0.5725340416
O  O46  1  0.07541000  0.41535000  0.68442000  1.0 -0.5725340416
O  O47  1  0.23093000  0.39099000  0.81558000  1.0 -0.5725340416
O  O48  1  0.42459000  0.10901000  0.33994000  1.0 -0.5725340416
O  O49  1  0.76907000  0.66006000  0.58465000  1.0 -0.5725340416
O  O50  1  0.57541000  0.18442000  0.91535000  1.0 -0.5725340416
O  O51  1  0.73093000  0.31558000  0.89099000  1.0 -0.5725340416
O  O52  1  0.92459000  0.83994000  0.60901000  1.0 -0.5725340416
O  O53  1  0.66006000  0.58465000  0.76907000  1.0 -0.5725340416
O  O54  1  0.18442000  0.91535000  0.57541000  1.0 -0.5725340416
O  O55  1  0.31558000  0.89099000  0.73093000  1.0 -0.5725340416
O  O56  1  0.83994000  0.60901000  0.92459000  1.0 -0.5725340416
O  O57  1  0.58465000  0.76907000  0.66006000  1.0 -0.5725340416
O  O58  1  0.91535000  0.57541000  0.18442000  1.0 -0.5725340416
O  O59  1  0.89099000  0.73093000  0.31558000  1.0 -0.5725340416
O  O60  1  0.60901000  0.92459000  0.83994000  1.0 -0.5725340416
O  O61  1  0.26321000  0.30105000  0.16204000  1.0 -0.5625171427
O  O62  1  0.63901000  0.10117000  0.33796000  1.0 -0.5625171427
O  O63  1  0.86099000  0.19895000  0.46216000  1.0 -0.5625171427
O  O64  1  0.23679000  0.39883000  0.03784000  1.0 -0.5625171427
O  O65  1  0.16204000  0.26321000  0.30105000  1.0 -0.5625171427
O  O66  1  0.33796000  0.63901000  0.10117000  1.0 -0.5625171427
O  O67  1  0.46216000  0.86099000  0.19895000  1.0 -0.5625171427
O  O68  1  0.03784000  0.23679000  0.39883000  1.0 -0.5625171427
O  O69  1  0.30105000  0.16204000  0.26321000  1.0 -0.5625171427
O  O70  1  0.10117000  0.33796000  0.63901000  1.0 -0.5625171427
O  O71  1  0.19895000  0.46216000  0.86099000  1.0 -0.5625171427
O  O72  1  0.39883000  0.03784000  0.23679000  1.0 -0.5625171427
O  O73  1  0.80105000  0.76321000  0.66204000  1.0 -0.5625171427
O  O74  1  0.60117000  0.13901000  0.83796000  1.0 -0.5625171427
O  O75  1  0.69895000  0.36099000  0.96216000  1.0 -0.5625171427
O  O76  1  0.89883000  0.73679000  0.53784000  1.0 -0.5625171427
O  O77  1  0.76321000  0.66204000  0.80105000  1.0 -0.5625171427
O  O78  1  0.13901000  0.83796000  0.60117000  1.0 -0.5625171427
O  O79  1  0.36099000  0.96216000  0.69895000  1.0 -0.5625171427
O  O80  1  0.73679000  0.53784000  0.89883000  1.0 -0.5625171427
O  O81  1  0.66204000  0.80105000  0.76321000  1.0 -0.5625171427
O  O82  1  0.83796000  0.60117000  0.13901000  1.0 -0.5625171427
O  O83  1  0.96216000  0.69895000  0.36099000  1.0 -0.5625171427
O  O84  1  0.53784000  0.89883000  0.73679000  1.0 -0.5625171427
O  O85  1  0.69402000  0.95600000  0.82042000  1.0 -0.5625171427
O  O86  1  0.63558000  0.87360000  0.67958000  1.0 -0.5542699541
O  O87  1  0.86442000  0.54400000  0.23802000  1.0 -0.5542699541
O  O88  1  0.80598000  0.62640000  0.26198000  1.0 -0.5542699541
O  O89  1  0.82042000  0.69402000  0.95600000  1.0 -0.5542699541
O  O90  1  0.67958000  0.63558000  0.87360000  1.0 -0.5542699541
O  O91  1  0.23802000  0.86442000  0.54400000  1.0 -0.5542699541
O  O92  1  0.26198000  0.80598000  0.62640000  1.0 -0.5542699541
O  O93  1  0.95600000  0.82042000  0.69402000  1.0 -0.5542699541
O  O94  1  0.87360000  0.67958000  0.63558000  1.0 -0.5542699541
O  O95  1  0.54400000  0.23802000  0.86442000  1.0 -0.5542699541
O  O96  1  0.62640000  0.26198000  0.80598000  1.0 -0.5542699541
O  O97  1  0.45600000  0.19402000  0.32042000  1.0 -0.5542699541
O  O98  1  0.37360000  0.13558000  0.17958000  1.0 -0.5542699541
O  O99  1  0.04400000  0.36442000  0.73802000  1.0 -0.5542699541
O  O100  1  0.12640000  0.30598000  0.76198000  1.0 -0.5542699541
O  O101  1  0.19402000  0.32042000  0.45600000  1.0 -0.5542699541
O  O102  1  0.13558000  0.17958000  0.37360000  1.0 -0.5542699541
O  O103  1  0.36442000  0.73802000  0.04400000  1.0 -0.5542699541
O  O104  1  0.30598000  0.76198000  0.12640000  1.0 -0.5542699541
O  O105  1  0.32042000  0.45600000  0.19402000  1.0 -0.5542699541
O  O106  1  0.17958000  0.37360000  0.13558000  1.0 -0.5542699541
O  O107  1  0.73802000  0.04400000  0.36442000  1.0 -0.5542699541
O  O108  1  0.76198000  0.12640000  0.30598000  1.0 -0.5542699541
O  O109  1  0.17372000  0.24847000  0.02179000  1.0 -0.5427852802
O  O110  1  0.72668000  0.15193000  0.47821000  1.0 -0.5427852802
O  O111  1  0.77332000  0.25153000  0.42525000  1.0 -0.5427852802
O  O112  1  0.32628000  0.34807000  0.07475000  1.0 -0.5427852802
O  O113  1  0.02179000  0.17372000  0.24847000  1.0 -0.5427852802
O  O114  1  0.47821000  0.72668000  0.15193000  1.0 -0.5427852802
O  O115  1  0.42525000  0.77332000  0.25153000  1.0 -0.5427852802
O  O116  1  0.07475000  0.32628000  0.34807000  1.0 -0.5427852802
O  O117  1  0.24847000  0.02179000  0.17372000  1.0 -0.5427852802
O  O118  1  0.15193000  0.47821000  0.72668000  1.0 -0.5427852802
O  O119  1  0.25153000  0.42525000  0.77332000  1.0 -0.5427852802
O  O120  1  0.34807000  0.07475000  0.32628000  1.0 -0.5427852802
O  O121  1  0.74847000  0.67372000  0.52179000  1.0 -0.5427852802
O  O122  1  0.65193000  0.22668000  0.97821000  1.0 -0.5427852802
O  O123  1  0.75153000  0.27332000  0.92525000  1.0 -0.5427852802
O  O124  1  0.84807000  0.82628000  0.57475000  1.0 -0.5427852802
O  O125  1  0.67372000  0.52179000  0.74847000  1.0 -0.5427852802
O  O126  1  0.22668000  0.97821000  0.65193000  1.0 -0.5427852802
O  O127  1  0.27332000  0.92525000  0.75153000  1.0 -0.5427852802
O  O128  1  0.82628000  0.57475000  0.84807000  1.0 -0.5427852802
O  O129  1  0.52179000  0.74847000  0.67372000  1.0 -0.5427852802
O  O130  1  0.97821000  0.65193000  0.22668000  1.0 -0.5427852802
O  O131  1  0.92525000  0.75153000  0.27332000  1.0 -0.5542699541
O  O132  1  0.57475000  0.84807000  0.82628000  1.0 -0.5427852802
O  O133  1  0.71256000  0.90340000  0.78034000  1.0 -0.5725340416
O  O134  1  0.62306000  0.93222000  0.71966000  1.0 -0.5725340416
O  O135  1  0.87694000  0.59660000  0.30916000  1.0 -0.5725340416
O  O136  1  0.78744000  0.56778000  0.19084000  1.0 -0.5725340416
O  O137  1  0.78034000  0.71256000  0.90340000  1.0 -0.5725340416
O  O138  1  0.71966000  0.62306000  0.93222000  1.0 -0.5725340416
O  O139  1  0.30916000  0.87694000  0.59660000  1.0 -0.5725340416
O  O140  1  0.19084000  0.78744000  0.56778000  1.0 -0.5725340416
O  O141  1  0.90340000  0.78034000  0.71256000  1.0 -0.5725340416
O  O142  1  0.93222000  0.71966000  0.62306000  1.0 -0.5725340416
O  O143  1  0.59660000  0.30916000  0.87694000  1.0 -0.5725340416
O  O144  1  0.56778000  0.19084000  0.78744000  1.0 -0.5725340416
O  O145  1  0.40340000  0.21256000  0.28034000  1.0 -0.5725340416
O  O146  1  0.43222000  0.12306000  0.21966000  1.0 -0.5725340416
O  O147  1  0.09660000  0.37694000  0.80916000  1.0 -0.5725340416
O  O148  1  0.06778000  0.28744000  0.69084000  1.0 -0.5725340416
O  O149  1  0.21256000  0.28034000  0.40340000  1.0 -0.5725340416
O  O150  1  0.12306000  0.21966000  0.43222000  1.0 -0.5725340416
O  O151  1  0.37694000  0.80916000  0.09660000  1.0 -0.5725340416
O  O152  1  0.28744000  0.69084000  0.06778000  1.0 -0.5725340416
O  O153  1  0.28034000  0.40340000  0.21256000  1.0 -0.5725340416
O  O154  1  0.21966000  0.43222000  0.12306000  1.0 -0.5725340416
O  O155  1  0.80916000  0.09660000  0.37694000  1.0 -0.5725340416
O  O156  1  0.69084000  0.06778000  0.28744000  1.0 -0.5725340416
O  O157  1  0.25000000  0.24676000  0.99676000  1.0 -0.7440181883
O  O158  1  0.75000000  0.25324000  0.50324000  1.0 -0.7440181883
O  O159  1  0.99676000  0.25000000  0.24676000  1.0 -0.7440181883
O  O160  1  0.50324000  0.75000000  0.25324000  1.0 -0.763731653
O  O161  1  0.24676000  0.99676000  0.25000000  1.0 -0.7440181883
O  O162  1  0.25324000  0.50324000  0.75000000  1.0 -0.7668907885
O  O163  1  0.74676000  0.75000000  0.49676000  1.0 -0.7440181883
O  O164  1  0.75324000  0.25000000  0.00324000  1.0 -0.763731653
O  O165  1  0.75000000  0.49676000  0.74676000  1.0 -0.7440181883
O  O166  1  0.25000000  0.00324000  0.75324000  1.0 -0.7440181883
O  O167  1  0.49676000  0.74676000  0.75000000  1.0 -0.7440181883
O  O168  1  0.00324000  0.75324000  0.25000000  1.0 -0.7440181883
