# DDEC6 charges by PACMAN v1.1 (https://github.com/mtap-research/PACMAN-charge/)
data_KAFGIL_ASR_pacman
_symmetry_space_group_name_H-M   'P 1'
_cell_length_a   19.30390000
_cell_length_b   19.30390000
_cell_length_c   18.70530000
_cell_angle_alpha   90.00000000
_cell_angle_beta   90.00000000
_cell_angle_gamma   90.00000000
_symmetry_Int_Tables_number   1
_chemical_formula_structural   Cd4H27C57(N3O4)4
_chemical_formula_sum   'Cd16 H108 C228 N48 O64'
_cell_volume   6970.35337737
_cell_formula_units_Z   4
loop_
 _symmetry_equiv_pos_site_id
 _symmetry_equiv_pos_as_xyz
  1  'x, y, z'
loop_
 _atom_site_type_symbol
 _atom_site_label
 _atom_site_symmetry_multiplicity
 _atom_site_fract_x
 _atom_site_fract_y
 _atom_site_fract_z
 _atom_site_occupancy
 _atom_site_charge
Cd  Cd1  1  0.00226000  0.87923000  0.53761000  1.0 0.9025403088
Cd  Cd2  1  0.07788000  0.79035000  0.69926000  1.0 0.8230938217
Cd  Cd3  1  0.99774000  0.12077000  0.03761000  1.0 0.9025403088
Cd  Cd4  1  0.92212000  0.20965000  0.19926000  1.0 0.8230938217
Cd  Cd5  1  0.37923000  0.49774000  0.28761000  1.0 0.9025403088
Cd  Cd6  1  0.29035000  0.42212000  0.44926000  1.0 0.8230938217
Cd  Cd7  1  0.62077000  0.50226000  0.78761000  1.0 0.9025403088
Cd  Cd8  1  0.70965000  0.57788000  0.94926000  1.0 0.8230938217
Cd  Cd9  1  0.50226000  0.62077000  0.21239000  1.0 0.9025403088
Cd  Cd10  1  0.57788000  0.70965000  0.05074000  1.0 0.8230938217
Cd  Cd11  1  0.49774000  0.37923000  0.71239000  1.0 0.9025403088
Cd  Cd12  1  0.42212000  0.29035000  0.55074000  1.0 0.8230938217
Cd  Cd13  1  0.87923000  0.00226000  0.46239000  1.0 0.9025403088
Cd  Cd14  1  0.79035000  0.07788000  0.30074000  1.0 0.8230938217
Cd  Cd15  1  0.12077000  0.99774000  0.96239000  1.0 0.9025403088
Cd  Cd16  1  0.20965000  0.92212000  0.80074000  1.0 0.8230938217
H  H1  1  0.20520000  0.10340000  0.57740000  1.0 0.1289168597
H  H2  1  0.88450000  0.79030000  0.75110000  1.0 0.1208570041
H  H3  1  0.80950000  0.71820000  0.81280000  1.0 0.1289168597
H  H4  1  0.78210000  0.52640000  0.66620000  1.0 0.1208570041
H  H5  1  0.83700000  0.49160000  0.56070000  1.0 0.1208570041
H  H6  1  0.89280000  0.57100000  0.49250000  1.0 0.1208570041
H  H7  1  0.92890000  0.67450000  0.54030000  1.0 0.1289168597
H  H8  1  0.93640000  0.87180000  0.25790000  1.0 0.1092854864
H  H9  1  0.97090000  0.90440000  0.14680000  1.0 0.1092854864
H  H10  1  0.09810000  0.97710000  0.40420000  1.0 0.1400180733
H  H11  1  0.19110000  0.04570000  0.38430000  1.0 0.1208570041
H  H12  1  0.22620000  0.07980000  0.27090000  1.0 0.1208570041
H  H13  1  0.16000000  0.04030000  0.17310000  1.0 0.1400180733
H  H14  1  0.79480000  0.89660000  0.07740000  1.0 0.1289168597
H  H15  1  0.11550000  0.20970000  0.25110000  1.0 0.1208570041
H  H16  1  0.19050000  0.28180000  0.31280000  1.0 0.1289168597
H  H17  1  0.21790000  0.47360000  0.16620000  1.0 0.1208570041
H  H18  1  0.16300000  0.50840000  0.06070000  1.0 0.1208570041
H  H19  1  0.10720000  0.42900000  0.99250000  1.0 0.1208570041
H  H20  1  0.07110000  0.32550000  0.04030000  1.0 0.1289168597
H  H21  1  0.06360000  0.12820000  0.75790000  1.0 0.1092854864
H  H22  1  0.02910000  0.09560000  0.64680000  1.0 0.1092854864
H  H23  1  0.90190000  0.02290000  0.90420000  1.0 0.1400180733
H  H24  1  0.80890000  0.95430000  0.88430000  1.0 0.1208570041
H  H25  1  0.77380000  0.92020000  0.77090000  1.0 0.1208570041
H  H26  1  0.84000000  0.95970000  0.67310000  1.0 0.1400180733
H  H27  1  0.60340000  0.29480000  0.32740000  1.0 0.1289168597
H  H28  1  0.29030000  0.61550000  0.50110000  1.0 0.1208570041
H  H29  1  0.21820000  0.69050000  0.56280000  1.0 0.1289168597
H  H30  1  0.02640000  0.71790000  0.41620000  1.0 0.1208570041
H  H31  1  0.99160000  0.66300000  0.31070000  1.0 0.1208570041
H  H32  1  0.07100000  0.60720000  0.24250000  1.0 0.1208570041
H  H33  1  0.17450000  0.57110000  0.29030000  1.0 0.1289168597
H  H34  1  0.37180000  0.56360000  0.00790000  1.0 0.1092854864
H  H35  1  0.40440000  0.52910000  0.89680000  1.0 0.1092854864
H  H36  1  0.47710000  0.40190000  0.15420000  1.0 0.1400180733
H  H37  1  0.54570000  0.30890000  0.13430000  1.0 0.1208570041
H  H38  1  0.57980000  0.27380000  0.02090000  1.0 0.1208570041
H  H39  1  0.54030000  0.34000000  0.92310000  1.0 0.1400180733
H  H40  1  0.39660000  0.70520000  0.82740000  1.0 0.1289168597
H  H41  1  0.70970000  0.38450000  0.00110000  1.0 0.1208570041
H  H42  1  0.78180000  0.30950000  0.06280000  1.0 0.1289168597
H  H43  1  0.97360000  0.28210000  0.91620000  1.0 0.1208570041
H  H44  1  0.00840000  0.33700000  0.81070000  1.0 0.1208570041
H  H45  1  0.92900000  0.39280000  0.74250000  1.0 0.1208570041
H  H46  1  0.82550000  0.42890000  0.79030000  1.0 0.1289168597
H  H47  1  0.62820000  0.43640000  0.50790000  1.0 0.1092854864
H  H48  1  0.59560000  0.47090000  0.39680000  1.0 0.1092854864
H  H49  1  0.52290000  0.59810000  0.65420000  1.0 0.1400180733
H  H50  1  0.45430000  0.69110000  0.63430000  1.0 0.1208570041
H  H51  1  0.42020000  0.72620000  0.52090000  1.0 0.1208570041
H  H52  1  0.45970000  0.66000000  0.42310000  1.0 0.1400180733
H  H53  1  0.70520000  0.39660000  0.17260000  1.0 0.1289168597
H  H54  1  0.38450000  0.70970000  0.99890000  1.0 0.1208570041
H  H55  1  0.30950000  0.78180000  0.93720000  1.0 0.1289168597
H  H56  1  0.28210000  0.97360000  0.08380000  1.0 0.1208570041
H  H57  1  0.33700000  0.00840000  0.18930000  1.0 0.1208570041
H  H58  1  0.39280000  0.92900000  0.25750000  1.0 0.1208570041
H  H59  1  0.42890000  0.82550000  0.20970000  1.0 0.1289168597
H  H60  1  0.43640000  0.62820000  0.49210000  1.0 0.1092854864
H  H61  1  0.47090000  0.59560000  0.60320000  1.0 0.1092854864
H  H62  1  0.59810000  0.52290000  0.34580000  1.0 0.1400180733
H  H63  1  0.69110000  0.45430000  0.36570000  1.0 0.1208570041
H  H64  1  0.72620000  0.42020000  0.47910000  1.0 0.1208570041
H  H65  1  0.66000000  0.45970000  0.57690000  1.0 0.1400180733
H  H66  1  0.29480000  0.60340000  0.67260000  1.0 0.1289168597
H  H67  1  0.61550000  0.29030000  0.49890000  1.0 0.1208570041
H  H68  1  0.69050000  0.21820000  0.43720000  1.0 0.1289168597
H  H69  1  0.71790000  0.02640000  0.58380000  1.0 0.1208570041
H  H70  1  0.66300000  0.99160000  0.68930000  1.0 0.1208570041
H  H71  1  0.60720000  0.07100000  0.75750000  1.0 0.1208570041
H  H72  1  0.57110000  0.17450000  0.70970000  1.0 0.1289168597
H  H73  1  0.56360000  0.37180000  0.99210000  1.0 0.1092854864
H  H74  1  0.52910000  0.40440000  0.10320000  1.0 0.1092854864
H  H75  1  0.40190000  0.47710000  0.84580000  1.0 0.1400180733
H  H76  1  0.30890000  0.54570000  0.86570000  1.0 0.1208570041
H  H77  1  0.27380000  0.57980000  0.97910000  1.0 0.1208570041
H  H78  1  0.34000000  0.54030000  0.07690000  1.0 0.1400180733
H  H79  1  0.10340000  0.20520000  0.42260000  1.0 0.1289168597
H  H80  1  0.79030000  0.88450000  0.24890000  1.0 0.1208570041
H  H81  1  0.71820000  0.80950000  0.18720000  1.0 0.1289168597
H  H82  1  0.52640000  0.78210000  0.33380000  1.0 0.1208570041
H  H83  1  0.49160000  0.83700000  0.43930000  1.0 0.1208570041
H  H84  1  0.57100000  0.89280000  0.50750000  1.0 0.1208570041
H  H85  1  0.67450000  0.92890000  0.45970000  1.0 0.1289168597
H  H86  1  0.87180000  0.93640000  0.74210000  1.0 0.1092854864
H  H87  1  0.90440000  0.97090000  0.85320000  1.0 0.1092854864
H  H88  1  0.97710000  0.09810000  0.59580000  1.0 0.1400180733
H  H89  1  0.04570000  0.19110000  0.61570000  1.0 0.1208570041
H  H90  1  0.07980000  0.22620000  0.72910000  1.0 0.1208570041
H  H91  1  0.04030000  0.16000000  0.82690000  1.0 0.1400180733
H  H92  1  0.89660000  0.79480000  0.92260000  1.0 0.1289168597
H  H93  1  0.20970000  0.11550000  0.74890000  1.0 0.1208570041
H  H94  1  0.28180000  0.19050000  0.68720000  1.0 0.1289168597
H  H95  1  0.47360000  0.21790000  0.83380000  1.0 0.1208570041
H  H96  1  0.50840000  0.16300000  0.93930000  1.0 0.1208570041
H  H97  1  0.42900000  0.10720000  0.00750000  1.0 0.1208570041
H  H98  1  0.32550000  0.07110000  0.95970000  1.0 0.1289168597
H  H99  1  0.12820000  0.06360000  0.24210000  1.0 0.1092854864
H  H100  1  0.09560000  0.02910000  0.35320000  1.0 0.1092854864
H  H101  1  0.02290000  0.90190000  0.09580000  1.0 0.1400180733
H  H102  1  0.95430000  0.80890000  0.11570000  1.0 0.1208570041
H  H103  1  0.92020000  0.77380000  0.22910000  1.0 0.1208570041
H  H104  1  0.95970000  0.84000000  0.32690000  1.0 0.1400180733
H  H105  1  0.02570000  0.02570000  0.50000000  1.0 0.1400180733
H  H106  1  0.97430000  0.97430000  0.00000000  1.0 0.1400180733
H  H107  1  0.52570000  0.47430000  0.25000000  1.0 0.1400180733
H  H108  1  0.47430000  0.52570000  0.75000000  1.0 0.1400180733
C  C1  1  0.12190000  0.99910000  0.59960000  1.0 0.2455906471
C  C2  1  0.11530000  0.05560000  0.54610000  1.0 0.0473085543
C  C3  1  0.16770000  0.10690000  0.54650000  1.0 -0.1490021149
C  C4  1  0.92830000  0.78730000  0.62020000  1.0 0.5574459037
C  C5  1  0.86860000  0.74990000  0.72950000  1.0 -0.1146231328
C  C6  1  0.82450000  0.70550000  0.76740000  1.0 -0.1010848525
C  C7  1  0.80330000  0.64470000  0.73940000  1.0 -0.0501125287
C  C8  1  0.82820000  0.62330000  0.67250000  1.0 0.0621087639
C  C9  1  0.87100000  0.66780000  0.63140000  1.0 0.0653413659
C  C10  1  0.88850000  0.73480000  0.66210000  1.0 -0.0501125287
C  C11  1  0.81220000  0.55630000  0.64260000  1.0 -0.1010848525
C  C12  1  0.84250000  0.53670000  0.57740000  1.0 -0.0925622648
C  C13  1  0.87960000  0.58280000  0.53880000  1.0 -0.0925622648
C  C14  1  0.89850000  0.64620000  0.56540000  1.0 -0.1303037429
C  C15  1  0.98100000  0.89510000  0.37800000  1.0 0.2607257566
C  C16  1  0.01300000  0.92320000  0.31000000  1.0 0.0279812511
C  C17  1  0.97480000  0.90020000  0.25180000  1.0 -0.0501125287
C  C18  1  0.99530000  0.92000000  0.18650000  1.0 -0.022897048
C  C19  1  0.05100000  0.96300000  0.17600000  1.0 0.0185021755
C  C20  1  0.09080000  0.98600000  0.23300000  1.0 0.0279812511
C  C21  1  0.06910000  0.96500000  0.30150000  1.0 0.0410864329
C  C22  1  0.10940000  0.98930000  0.35760000  1.0 -0.1010848525
C  C23  1  0.16560000  0.03060000  0.34500000  1.0 -0.1303037429
C  C24  1  0.18760000  0.05170000  0.27730000  1.0 -0.1586848745
C  C25  1  0.14820000  0.02820000  0.21960000  1.0 -0.0501125287
C  C26  1  0.06980000  0.97780000  0.09930000  1.0 0.2968374802
C  C27  1  0.75320000  0.60050000  0.78310000  1.0 0.5928351483
C  C28  1  0.87810000  0.00090000  0.09960000  1.0 0.2455906471
C  C29  1  0.88470000  0.94440000  0.04610000  1.0 0.0473085543
C  C30  1  0.83230000  0.89310000  0.04650000  1.0 -0.1490021149
C  C31  1  0.07170000  0.21270000  0.12020000  1.0 0.5574459037
C  C32  1  0.13140000  0.25010000  0.22950000  1.0 -0.1146231328
C  C33  1  0.17550000  0.29450000  0.26740000  1.0 -0.1010848525
C  C34  1  0.19670000  0.35530000  0.23940000  1.0 -0.0501125287
C  C35  1  0.17180000  0.37670000  0.17250000  1.0 0.0621087639
C  C36  1  0.12900000  0.33220000  0.13140000  1.0 0.0653413659
C  C37  1  0.11150000  0.26520000  0.16210000  1.0 -0.0501125287
C  C38  1  0.18780000  0.44370000  0.14260000  1.0 -0.1010848525
C  C39  1  0.15750000  0.46330000  0.07740000  1.0 -0.0925622648
C  C40  1  0.12040000  0.41720000  0.03880000  1.0 -0.0925622648
C  C41  1  0.10150000  0.35380000  0.06540000  1.0 -0.1303037429
C  C42  1  0.01900000  0.10490000  0.87800000  1.0 0.2607257566
C  C43  1  0.98700000  0.07680000  0.81000000  1.0 0.0279812511
C  C44  1  0.02520000  0.09980000  0.75180000  1.0 -0.0501125287
C  C45  1  0.00470000  0.08000000  0.68650000  1.0 -0.022897048
C  C46  1  0.94900000  0.03700000  0.67600000  1.0 0.0185021755
C  C47  1  0.90920000  0.01400000  0.73300000  1.0 0.0279812511
C  C48  1  0.93090000  0.03500000  0.80150000  1.0 0.0410864329
C  C49  1  0.89060000  0.01070000  0.85760000  1.0 -0.1010848525
C  C50  1  0.83440000  0.96940000  0.84500000  1.0 -0.1303037429
C  C51  1  0.81240000  0.94830000  0.77730000  1.0 -0.1586848745
C  C52  1  0.85180000  0.97180000  0.71960000  1.0 -0.0501125287
C  C53  1  0.93020000  0.02220000  0.59930000  1.0 0.2968374802
C  C54  1  0.24680000  0.39950000  0.28310000  1.0 0.5928351483
C  C55  1  0.49910000  0.37810000  0.34960000  1.0 0.2455906471
C  C56  1  0.55560000  0.38470000  0.29610000  1.0 0.0473085543
C  C57  1  0.60690000  0.33230000  0.29650000  1.0 -0.1490021149
C  C58  1  0.28730000  0.57170000  0.37020000  1.0 0.5574459037
C  C59  1  0.24990000  0.63140000  0.47950000  1.0 -0.1146231328
C  C60  1  0.20550000  0.67550000  0.51740000  1.0 -0.1010848525
C  C61  1  0.14470000  0.69670000  0.48940000  1.0 -0.0501125287
C  C62  1  0.12330000  0.67180000  0.42250000  1.0 0.0621087639
C  C63  1  0.16780000  0.62900000  0.38140000  1.0 0.0653413659
C  C64  1  0.23480000  0.61150000  0.41210000  1.0 -0.0501125287
C  C65  1  0.05630000  0.68780000  0.39260000  1.0 -0.1010848525
C  C66  1  0.03670000  0.65750000  0.32740000  1.0 -0.0925622648
C  C67  1  0.08280000  0.62040000  0.28880000  1.0 -0.0925622648
C  C68  1  0.14620000  0.60150000  0.31540000  1.0 -0.1303037429
C  C69  1  0.39510000  0.51900000  0.12800000  1.0 0.2607257566
C  C70  1  0.42320000  0.48700000  0.06000000  1.0 0.0279812511
C  C71  1  0.40020000  0.52520000  0.00180000  1.0 -0.0501125287
C  C72  1  0.42000000  0.50470000  0.93650000  1.0 -0.022897048
C  C73  1  0.46300000  0.44900000  0.92600000  1.0 0.0185021755
C  C74  1  0.48600000  0.40920000  0.98300000  1.0 0.0279812511
C  C75  1  0.46500000  0.43090000  0.05150000  1.0 0.0410864329
C  C76  1  0.48930000  0.39060000  0.10760000  1.0 -0.1010848525
C  C77  1  0.53060000  0.33440000  0.09500000  1.0 -0.1303037429
C  C78  1  0.55170000  0.31240000  0.02730000  1.0 -0.1586848745
C  C79  1  0.52820000  0.35180000  0.96960000  1.0 -0.0501125287
C  C80  1  0.47780000  0.43020000  0.84930000  1.0 0.2968374802
C  C81  1  0.10050000  0.74680000  0.53310000  1.0 0.5928351483
C  C82  1  0.50090000  0.62190000  0.84960000  1.0 0.2455906471
C  C83  1  0.44440000  0.61530000  0.79610000  1.0 0.0473085543
C  C84  1  0.39310000  0.66770000  0.79650000  1.0 -0.1490021149
C  C85  1  0.71270000  0.42830000  0.87020000  1.0 0.5574459037
C  C86  1  0.75010000  0.36860000  0.97950000  1.0 -0.1153799841
C  C87  1  0.79450000  0.32450000  0.01740000  1.0 -0.1010848525
C  C88  1  0.85530000  0.30330000  0.98940000  1.0 -0.0501125287
C  C89  1  0.87670000  0.32820000  0.92250000  1.0 0.0621087639
C  C90  1  0.83220000  0.37100000  0.88140000  1.0 0.0653413659
C  C91  1  0.76520000  0.38850000  0.91210000  1.0 -0.0501125287
C  C92  1  0.94370000  0.31220000  0.89260000  1.0 -0.1010848525
C  C93  1  0.96330000  0.34250000  0.82740000  1.0 -0.0925622648
C  C94  1  0.91720000  0.37960000  0.78880000  1.0 -0.0925622648
C  C95  1  0.85380000  0.39850000  0.81540000  1.0 -0.1303037429
C  C96  1  0.60490000  0.48100000  0.62800000  1.0 0.2607257566
C  C97  1  0.57680000  0.51300000  0.56000000  1.0 0.0279812511
C  C98  1  0.59980000  0.47480000  0.50180000  1.0 -0.0501125287
C  C99  1  0.58000000  0.49530000  0.43650000  1.0 -0.022897048
C  C100  1  0.53700000  0.55100000  0.42600000  1.0 0.0185021755
C  C101  1  0.51400000  0.59080000  0.48300000  1.0 0.0279812511
C  C102  1  0.53500000  0.56910000  0.55150000  1.0 0.0410864329
C  C103  1  0.51070000  0.60940000  0.60760000  1.0 -0.1010848525
C  C104  1  0.46940000  0.66560000  0.59500000  1.0 -0.1303037429
C  C105  1  0.44830000  0.68760000  0.52730000  1.0 -0.1586848745
C  C106  1  0.47180000  0.64820000  0.46960000  1.0 -0.0501125287
C  C107  1  0.52220000  0.56980000  0.34930000  1.0 0.2968374802
C  C108  1  0.89950000  0.25320000  0.03310000  1.0 0.5928351483
C  C109  1  0.62190000  0.50090000  0.15040000  1.0 0.2455906471
C  C110  1  0.61530000  0.44440000  0.20390000  1.0 0.0473085543
C  C111  1  0.66770000  0.39310000  0.20350000  1.0 -0.1490021149
C  C112  1  0.42830000  0.71270000  0.12980000  1.0 0.5574459037
C  C113  1  0.36860000  0.75010000  0.02050000  1.0 -0.1146231328
C  C114  1  0.32450000  0.79450000  0.98260000  1.0 -0.1010848525
C  C115  1  0.30330000  0.85530000  0.01060000  1.0 -0.0501125287
C  C116  1  0.32820000  0.87670000  0.07750000  1.0 0.0621087639
C  C117  1  0.37100000  0.83220000  0.11860000  1.0 0.0653413659
C  C118  1  0.38850000  0.76520000  0.08790000  1.0 -0.0501125287
C  C119  1  0.31220000  0.94370000  0.10740000  1.0 -0.1010848525
C  C120  1  0.34250000  0.96330000  0.17260000  1.0 -0.0925622648
C  C121  1  0.37960000  0.91720000  0.21120000  1.0 -0.0925622648
C  C122  1  0.39850000  0.85380000  0.18460000  1.0 -0.1303037429
C  C123  1  0.48100000  0.60490000  0.37200000  1.0 0.2607257566
C  C124  1  0.51300000  0.57680000  0.44000000  1.0 0.0279812511
C  C125  1  0.47480000  0.59980000  0.49820000  1.0 -0.0501125287
C  C126  1  0.49530000  0.58000000  0.56350000  1.0 -0.022897048
C  C127  1  0.55100000  0.53700000  0.57400000  1.0 0.0185021755
C  C128  1  0.59080000  0.51400000  0.51700000  1.0 0.0279812511
C  C129  1  0.56910000  0.53500000  0.44850000  1.0 0.0410864329
C  C130  1  0.60940000  0.51070000  0.39240000  1.0 -0.1010848525
C  C131  1  0.66560000  0.46940000  0.40500000  1.0 -0.1303037429
C  C132  1  0.68760000  0.44830000  0.47270000  1.0 -0.1586848745
C  C133  1  0.64820000  0.47180000  0.53040000  1.0 -0.0501125287
C  C134  1  0.56980000  0.52220000  0.65070000  1.0 0.2968374802
C  C135  1  0.25320000  0.89950000  0.96690000  1.0 0.5928351483
C  C136  1  0.37810000  0.49910000  0.65040000  1.0 0.2455906471
C  C137  1  0.38470000  0.55560000  0.70390000  1.0 0.0473085543
C  C138  1  0.33230000  0.60690000  0.70350000  1.0 -0.1490021149
C  C139  1  0.57170000  0.28730000  0.62980000  1.0 0.5574459037
C  C140  1  0.63140000  0.24990000  0.52050000  1.0 -0.1146231328
C  C141  1  0.67550000  0.20550000  0.48260000  1.0 -0.1010848525
C  C142  1  0.69670000  0.14470000  0.51060000  1.0 -0.0501125287
C  C143  1  0.67180000  0.12330000  0.57750000  1.0 0.0621087639
C  C144  1  0.62900000  0.16780000  0.61860000  1.0 0.0653413659
C  C145  1  0.61150000  0.23480000  0.58790000  1.0 -0.0501125287
C  C146  1  0.68780000  0.05630000  0.60740000  1.0 -0.1010848525
C  C147  1  0.65750000  0.03670000  0.67260000  1.0 -0.0925622648
C  C148  1  0.62040000  0.08280000  0.71120000  1.0 -0.0925622648
C  C149  1  0.60150000  0.14620000  0.68460000  1.0 -0.1303037429
C  C150  1  0.51900000  0.39510000  0.87200000  1.0 0.2607257566
C  C151  1  0.48700000  0.42320000  0.94000000  1.0 0.0279812511
C  C152  1  0.52520000  0.40020000  0.99820000  1.0 -0.0501125287
C  C153  1  0.50470000  0.42000000  0.06350000  1.0 -0.022897048
C  C154  1  0.44900000  0.46300000  0.07400000  1.0 0.0185021755
C  C155  1  0.40920000  0.48600000  0.01700000  1.0 0.0279812511
C  C156  1  0.43090000  0.46500000  0.94850000  1.0 0.0410864329
C  C157  1  0.39060000  0.48930000  0.89240000  1.0 -0.1010848525
C  C158  1  0.33440000  0.53060000  0.90500000  1.0 -0.1303037429
C  C159  1  0.31240000  0.55170000  0.97270000  1.0 -0.1586848745
C  C160  1  0.35180000  0.52820000  0.03040000  1.0 -0.0501125287
C  C161  1  0.43020000  0.47780000  0.15070000  1.0 0.2968374802
C  C162  1  0.74680000  0.10050000  0.46690000  1.0 0.5928351483
C  C163  1  0.99910000  0.12190000  0.40040000  1.0 0.2455906471
C  C164  1  0.05560000  0.11530000  0.45390000  1.0 0.0473085543
C  C165  1  0.10690000  0.16770000  0.45350000  1.0 -0.1490021149
C  C166  1  0.78730000  0.92830000  0.37980000  1.0 0.5574459037
C  C167  1  0.74990000  0.86860000  0.27050000  1.0 -0.1146231328
C  C168  1  0.70550000  0.82450000  0.23260000  1.0 -0.1010848525
C  C169  1  0.64470000  0.80330000  0.26060000  1.0 -0.0501125287
C  C170  1  0.62330000  0.82820000  0.32750000  1.0 0.0621087639
C  C171  1  0.66780000  0.87100000  0.36860000  1.0 0.0653413659
C  C172  1  0.73480000  0.88850000  0.33790000  1.0 -0.0501125287
C  C173  1  0.55630000  0.81220000  0.35740000  1.0 -0.1010848525
C  C174  1  0.53670000  0.84250000  0.42260000  1.0 -0.0925622648
C  C175  1  0.58280000  0.87960000  0.46120000  1.0 -0.0925622648
C  C176  1  0.64620000  0.89850000  0.43460000  1.0 -0.1303037429
C  C177  1  0.89510000  0.98100000  0.62200000  1.0 0.2607257566
C  C178  1  0.92320000  0.01300000  0.69000000  1.0 0.0279812511
C  C179  1  0.90020000  0.97480000  0.74820000  1.0 -0.0501125287
C  C180  1  0.92000000  0.99530000  0.81350000  1.0 -0.022897048
C  C181  1  0.96300000  0.05100000  0.82400000  1.0 0.0185021755
C  C182  1  0.98600000  0.09080000  0.76700000  1.0 0.0279812511
C  C183  1  0.96500000  0.06910000  0.69850000  1.0 0.0410864329
C  C184  1  0.98930000  0.10940000  0.64240000  1.0 -0.1010848525
C  C185  1  0.03060000  0.16560000  0.65500000  1.0 -0.1303037429
C  C186  1  0.05170000  0.18760000  0.72270000  1.0 -0.1586848745
C  C187  1  0.02820000  0.14820000  0.78040000  1.0 -0.0501125287
C  C188  1  0.97780000  0.06980000  0.90070000  1.0 0.2968374802
C  C189  1  0.60050000  0.75320000  0.21690000  1.0 0.5928351483
C  C190  1  0.00090000  0.87810000  0.90040000  1.0 0.2455906471
C  C191  1  0.94440000  0.88470000  0.95390000  1.0 0.0473085543
C  C192  1  0.89310000  0.83230000  0.95350000  1.0 -0.1490021149
C  C193  1  0.21270000  0.07170000  0.87980000  1.0 0.5574459037
C  C194  1  0.25010000  0.13140000  0.77050000  1.0 -0.1146231328
C  C195  1  0.29450000  0.17550000  0.73260000  1.0 -0.1010848525
C  C196  1  0.35530000  0.19670000  0.76060000  1.0 -0.0501125287
C  C197  1  0.37670000  0.17180000  0.82750000  1.0 0.0621087639
C  C198  1  0.33220000  0.12900000  0.86860000  1.0 0.0653413659
C  C199  1  0.26520000  0.11150000  0.83790000  1.0 -0.0501125287
C  C200  1  0.44370000  0.18780000  0.85740000  1.0 -0.1010848525
C  C201  1  0.46330000  0.15750000  0.92260000  1.0 -0.0925622648
C  C202  1  0.41720000  0.12040000  0.96120000  1.0 -0.0925622648
C  C203  1  0.35380000  0.10150000  0.93460000  1.0 -0.1303037429
C  C204  1  0.10490000  0.01900000  0.12200000  1.0 0.2607257566
C  C205  1  0.07680000  0.98700000  0.19000000  1.0 0.0279812511
C  C206  1  0.09980000  0.02520000  0.24820000  1.0 -0.0501125287
C  C207  1  0.08000000  0.00470000  0.31350000  1.0 -0.022897048
C  C208  1  0.03700000  0.94900000  0.32400000  1.0 0.0185021755
C  C209  1  0.01400000  0.90920000  0.26700000  1.0 0.0279812511
C  C210  1  0.03500000  0.93090000  0.19850000  1.0 0.0410864329
C  C211  1  0.01070000  0.89060000  0.14240000  1.0 -0.1010848525
C  C212  1  0.96940000  0.83440000  0.15500000  1.0 -0.1303037429
C  C213  1  0.94830000  0.81240000  0.22270000  1.0 -0.1586848745
C  C214  1  0.97180000  0.85180000  0.28040000  1.0 -0.0501125287
C  C215  1  0.02220000  0.93020000  0.40070000  1.0 0.2968374802
C  C216  1  0.39950000  0.24680000  0.71690000  1.0 0.5928351483
C  C217  1  0.05980000  0.05980000  0.50000000  1.0 -0.2926858762
C  C218  1  0.16200000  0.16200000  0.50000000  1.0 0.0653413659
C  C219  1  0.21620000  0.21620000  0.50000000  1.0 0.2328047282
C  C220  1  0.94020000  0.94020000  0.00000000  1.0 -0.2926858762
C  C221  1  0.83800000  0.83800000  0.00000000  1.0 0.0653413659
C  C222  1  0.78380000  0.78380000  0.00000000  1.0 0.2328047282
C  C223  1  0.55980000  0.44020000  0.25000000  1.0 -0.2926858762
C  C224  1  0.66200000  0.33800000  0.25000000  1.0 0.0653413659
C  C225  1  0.71620000  0.28380000  0.25000000  1.0 0.2328047282
C  C226  1  0.44020000  0.55980000  0.75000000  1.0 -0.2926858762
C  C227  1  0.33800000  0.66200000  0.75000000  1.0 0.0653413659
C  C228  1  0.28380000  0.71620000  0.75000000  1.0 0.2328047282
N  N1  1  0.08710000  0.93810000  0.60000000  1.0 -0.2485461631
N  N2  1  0.10880000  0.90550000  0.65830000  1.0 -0.0615503085
N  N3  1  0.15360000  0.94500000  0.69180000  1.0 -0.0615503085
N  N4  1  0.16320000  0.00320000  0.65610000  1.0 -0.2212602818
N  N5  1  0.26900000  0.30870000  0.48020000  1.0 -0.0666265931
N  N6  1  0.20960000  0.27720000  0.46770000  1.0 -0.2485461631
N  N7  1  0.91290000  0.06190000  0.10000000  1.0 -0.2485461631
N  N8  1  0.89120000  0.09450000  0.15830000  1.0 -0.0615503085
N  N9  1  0.84640000  0.05500000  0.19180000  1.0 -0.0615503085
N  N10  1  0.83680000  0.99680000  0.15610000  1.0 -0.2212602818
N  N11  1  0.73100000  0.69130000  0.98020000  1.0 -0.0666265931
N  N12  1  0.79040000  0.72280000  0.96770000  1.0 -0.2485461631
N  N13  1  0.43810000  0.41290000  0.35000000  1.0 -0.2485461631
N  N14  1  0.40550000  0.39120000  0.40830000  1.0 -0.0615503085
N  N15  1  0.44500000  0.34640000  0.44180000  1.0 -0.0615503085
N  N16  1  0.50320000  0.33680000  0.40610000  1.0 -0.2212602818
N  N17  1  0.80870000  0.23100000  0.23020000  1.0 -0.0666265931
N  N18  1  0.77720000  0.29040000  0.21770000  1.0 -0.2485461631
N  N19  1  0.56190000  0.58710000  0.85000000  1.0 -0.2485461631
N  N20  1  0.59450000  0.60880000  0.90830000  1.0 -0.0615503085
N  N21  1  0.55500000  0.65360000  0.94180000  1.0 -0.0615503085
N  N22  1  0.49680000  0.66320000  0.90610000  1.0 -0.2212602818
N  N23  1  0.19130000  0.76900000  0.73020000  1.0 -0.0666265931
N  N24  1  0.22280000  0.70960000  0.71770000  1.0 -0.2485461631
N  N25  1  0.58710000  0.56190000  0.15000000  1.0 -0.2485461631
N  N26  1  0.60880000  0.59450000  0.09170000  1.0 -0.0615503085
N  N27  1  0.65360000  0.55500000  0.05820000  1.0 -0.0615503085
N  N28  1  0.66320000  0.49680000  0.09390000  1.0 -0.2212602818
N  N29  1  0.76900000  0.19130000  0.26980000  1.0 -0.0666265931
N  N30  1  0.70960000  0.22280000  0.28230000  1.0 -0.2485461631
N  N31  1  0.41290000  0.43810000  0.65000000  1.0 -0.2485461631
N  N32  1  0.39120000  0.40550000  0.59170000  1.0 -0.0615503085
N  N33  1  0.34640000  0.44500000  0.55820000  1.0 -0.0615503085
N  N34  1  0.33680000  0.50320000  0.59390000  1.0 -0.2212602818
N  N35  1  0.23100000  0.80870000  0.76980000  1.0 -0.0666265931
N  N36  1  0.29040000  0.77720000  0.78230000  1.0 -0.2485461631
N  N37  1  0.93810000  0.08710000  0.40000000  1.0 -0.2485461631
N  N38  1  0.90550000  0.10880000  0.34170000  1.0 -0.0615503085
N  N39  1  0.94500000  0.15360000  0.30820000  1.0 -0.0615503085
N  N40  1  0.00320000  0.16320000  0.34390000  1.0 -0.2212602818
N  N41  1  0.30870000  0.26900000  0.51980000  1.0 -0.0666265931
N  N42  1  0.27720000  0.20960000  0.53230000  1.0 -0.2485461631
N  N43  1  0.06190000  0.91290000  0.90000000  1.0 -0.2485461631
N  N44  1  0.09450000  0.89120000  0.84170000  1.0 -0.0615503085
N  N45  1  0.05500000  0.84640000  0.80820000  1.0 -0.0615503085
N  N46  1  0.99680000  0.83680000  0.84390000  1.0 -0.2212602818
N  N47  1  0.69130000  0.73100000  0.01980000  1.0 -0.0666265931
N  N48  1  0.72280000  0.79040000  0.03230000  1.0 -0.2485461631
O  O1  1  0.97400000  0.82310000  0.65180000  1.0 -0.561206142
O  O2  1  0.91530000  0.79780000  0.55560000  1.0 -0.4548503855
O  O3  1  0.97000000  0.92900000  0.42900000  1.0 -0.3219106855
O  O4  1  0.95510000  0.83250000  0.37130000  1.0 -0.2984262599
O  O5  1  0.08140000  0.92240000  0.06460000  1.0 -0.3760083528
O  O6  1  0.76880000  0.59610000  0.84790000  1.0 -0.5423673788
O  O7  1  0.70420000  0.57420000  0.75110000  1.0 -0.4966039831
O  O8  1  0.08100000  0.03100000  0.06800000  1.0 -0.2984262599
O  O9  1  0.02600000  0.17690000  0.15180000  1.0 -0.561206142
O  O10  1  0.08470000  0.20220000  0.05560000  1.0 -0.4548503855
O  O11  1  0.03000000  0.07100000  0.92900000  1.0 -0.3219106855
O  O12  1  0.04490000  0.16750000  0.87130000  1.0 -0.2984262599
O  O13  1  0.91860000  0.07760000  0.56460000  1.0 -0.3760083528
O  O14  1  0.23120000  0.40390000  0.34790000  1.0 -0.5423673788
O  O15  1  0.29580000  0.42580000  0.25110000  1.0 -0.4966039831
O  O16  1  0.91900000  0.96900000  0.56800000  1.0 -0.2984262599
O  O17  1  0.32310000  0.52600000  0.40180000  1.0 -0.561206142
O  O18  1  0.29780000  0.58470000  0.30560000  1.0 -0.4548503855
O  O19  1  0.42900000  0.53000000  0.17900000  1.0 -0.3219106855
O  O20  1  0.33250000  0.54490000  0.12130000  1.0 -0.2984262599
O  O21  1  0.42240000  0.41860000  0.81460000  1.0 -0.3760083528
O  O22  1  0.09610000  0.73120000  0.59790000  1.0 -0.5423673788
O  O23  1  0.07420000  0.79580000  0.50110000  1.0 -0.4966039831
O  O24  1  0.53100000  0.41900000  0.81800000  1.0 -0.2984262599
O  O25  1  0.67690000  0.47400000  0.90180000  1.0 -0.561206142
O  O26  1  0.70220000  0.41530000  0.80560000  1.0 -0.4548503855
O  O27  1  0.57100000  0.47000000  0.67900000  1.0 -0.3219106855
O  O28  1  0.66750000  0.45510000  0.62130000  1.0 -0.2984262599
O  O29  1  0.57760000  0.58140000  0.31460000  1.0 -0.3760083528
O  O30  1  0.90390000  0.26880000  0.09790000  1.0 -0.5423673788
O  O31  1  0.92580000  0.20420000  0.00110000  1.0 -0.4966039831
O  O32  1  0.46900000  0.58100000  0.31800000  1.0 -0.2984262599
O  O33  1  0.47400000  0.67690000  0.09820000  1.0 -0.561206142
O  O34  1  0.41530000  0.70220000  0.19440000  1.0 -0.4548503855
O  O35  1  0.47000000  0.57100000  0.32100000  1.0 -0.3219106855
O  O36  1  0.45510000  0.66750000  0.37870000  1.0 -0.2984262599
O  O37  1  0.58140000  0.57760000  0.68540000  1.0 -0.3760083528
O  O38  1  0.26880000  0.90390000  0.90210000  1.0 -0.5423673788
O  O39  1  0.20420000  0.92580000  0.99890000  1.0 -0.4966039831
O  O40  1  0.58100000  0.46900000  0.68200000  1.0 -0.2984262599
O  O41  1  0.52600000  0.32310000  0.59820000  1.0 -0.561206142
O  O42  1  0.58470000  0.29780000  0.69440000  1.0 -0.4548503855
O  O43  1  0.53000000  0.42900000  0.82100000  1.0 -0.3219106855
O  O44  1  0.54490000  0.33250000  0.87870000  1.0 -0.2984262599
O  O45  1  0.41860000  0.42240000  0.18540000  1.0 -0.3760083528
O  O46  1  0.73120000  0.09610000  0.40210000  1.0 -0.5423673788
O  O47  1  0.79580000  0.07420000  0.49890000  1.0 -0.4966039831
O  O48  1  0.41900000  0.53100000  0.18200000  1.0 -0.2984262599
O  O49  1  0.82310000  0.97400000  0.34820000  1.0 -0.561206142
O  O50  1  0.79780000  0.91530000  0.44440000  1.0 -0.4548503855
O  O51  1  0.92900000  0.97000000  0.57100000  1.0 -0.3219106855
O  O52  1  0.83250000  0.95510000  0.62870000  1.0 -0.2984262599
O  O53  1  0.92240000  0.08140000  0.93540000  1.0 -0.3760083528
O  O54  1  0.59610000  0.76880000  0.15210000  1.0 -0.5423673788
O  O55  1  0.57420000  0.70420000  0.24890000  1.0 -0.4966039831
O  O56  1  0.03100000  0.08100000  0.93200000  1.0 -0.2984262599
O  O57  1  0.17690000  0.02600000  0.84820000  1.0 -0.561206142
O  O58  1  0.20220000  0.08470000  0.94440000  1.0 -0.4548503855
O  O59  1  0.07100000  0.03000000  0.07100000  1.0 -0.3219106855
O  O60  1  0.16750000  0.04490000  0.12870000  1.0 -0.2984262599
O  O61  1  0.07760000  0.91860000  0.43540000  1.0 -0.3760083528
O  O62  1  0.40390000  0.23120000  0.65210000  1.0 -0.5423673788
O  O63  1  0.42580000  0.29580000  0.74890000  1.0 -0.4966039831
O  O64  1  0.96900000  0.91900000  0.43200000  1.0 -0.2984262599
