# DDEC6 charges by PACMAN v1.1 (https://github.com/mtap-research/PACMAN-charge/)
data_KAGWEW_ion_pacman
_symmetry_space_group_name_H-M   'P 1'
_cell_length_a   9.45860000
_cell_length_b   26.76900000
_cell_length_c   32.37700000
_cell_angle_alpha   90.00000000
_cell_angle_beta   90.00000000
_cell_angle_gamma   90.00000000
_symmetry_Int_Tables_number   1
_chemical_formula_structural   U5H80C32S9(N4O23)2
_chemical_formula_sum   'U20 H320 C128 S36 N32 O184'
_cell_volume   8197.76779710
_cell_formula_units_Z   4
loop_
 _symmetry_equiv_pos_site_id
 _symmetry_equiv_pos_as_xyz
  1  'x, y, z'
loop_
 _atom_site_type_symbol
 _atom_site_label
 _atom_site_symmetry_multiplicity
 _atom_site_fract_x
 _atom_site_fract_y
 _atom_site_fract_z
 _atom_site_occupancy
 _atom_site_charge
U  U1  1  0.23852000  0.72561000  0.85142000  1.0 2.4390507137
U  U2  1  0.26148000  0.27439000  0.35142000  1.0 2.4336499634
U  U3  1  0.76148000  0.22561000  0.64858000  1.0 2.4336499634
U  U4  1  0.73852000  0.77439000  0.14858000  1.0 2.4390507137
U  U5  1  0.73679000  0.60866000  0.90215000  1.0 2.4486854204
U  U6  1  0.76321000  0.39134000  0.40215000  1.0 2.4486854204
U  U7  1  0.26321000  0.10866000  0.59785000  1.0 2.4486854204
U  U8  1  0.23679000  0.89134000  0.09785000  1.0 2.4486854204
U  U9  1  0.72399000  0.94587000  0.65460000  1.0 2.4390507137
U  U10  1  0.77601000  0.05413000  0.15460000  1.0 2.4390507137
U  U11  1  0.27601000  0.44587000  0.84540000  1.0 2.4486854204
U  U12  1  0.22399000  0.55413000  0.34540000  1.0 2.4390507137
U  U13  1  0.75430000  0.80357000  0.54572000  1.0 2.4390507137
U  U14  1  0.74570000  0.19643000  0.04572000  1.0 2.4390507137
U  U15  1  0.24570000  0.30357000  0.95428000  1.0 2.4390507137
U  U16  1  0.25430000  0.69643000  0.45428000  1.0 2.4390507137
U  U17  1  0.77411000  0.76194000  0.70847000  1.0 2.4486854204
U  U18  1  0.72589000  0.23806000  0.20847000  1.0 2.4486854204
U  U19  1  0.22589000  0.26194000  0.79153000  1.0 2.4486854204
U  U20  1  0.27411000  0.73806000  0.29153000  1.0 2.4486854204
H  H1  1  0.27060000  0.75170000  0.97760000  1.0 0.3286949495
H  H2  1  0.17480000  0.81460000  0.94160000  1.0 0.0817104118
H  H3  1  0.16667000  0.84370000  0.98460000  1.0 0.0997751961
H  H4  1  0.41610000  0.82050000  0.94130000  1.0 0.1093431139
H  H5  1  0.41460000  0.84540000  0.98620000  1.0 0.1093431139
H  H6  1  0.35760000  0.92070000  0.96190000  1.0 0.0903591016
H  H7  1  0.42690000  0.89980000  0.92030000  1.0 0.0817104118
H  H8  1  0.21180000  0.93770000  0.90630000  1.0 0.1186418158
H  H9  1  0.13320000  0.90000000  0.93700000  1.0 0.1093431139
H  H10  1  0.20300000  0.87950000  0.89530000  1.0 0.1277068934
H  H11  1  0.22940000  0.24830000  0.47760000  1.0 0.3286949495
H  H12  1  0.32520000  0.18540000  0.44160000  1.0 0.0817104118
H  H13  1  0.33333333  0.15630000  0.48460000  1.0 0.0997751961
H  H14  1  0.08390000  0.17950000  0.44130000  1.0 0.1093431139
H  H15  1  0.08540000  0.15460000  0.48620000  1.0 0.1093431139
H  H16  1  0.14240000  0.07930000  0.46190000  1.0 0.0903591016
H  H17  1  0.07310000  0.10020000  0.42030000  1.0 0.0817104118
H  H18  1  0.28820000  0.06230000  0.40630000  1.0 0.1093431139
H  H19  1  0.36680000  0.10000000  0.43700000  1.0 0.1093431139
H  H20  1  0.29700000  0.12050000  0.39530000  1.0 0.1277068934
H  H21  1  0.72940000  0.25170000  0.52240000  1.0 0.3286949495
H  H22  1  0.82520000  0.31460000  0.55840000  1.0 0.0817104118
H  H23  1  0.83333000  0.34370000  0.51540000  1.0 0.0997751961
H  H24  1  0.58390000  0.32050000  0.55870000  1.0 0.1093431139
H  H25  1  0.58540000  0.34540000  0.51380000  1.0 0.1093431139
H  H26  1  0.64240000  0.42070000  0.53810000  1.0 0.0903591016
H  H27  1  0.57310000  0.39980000  0.57970000  1.0 0.0817104118
H  H28  1  0.78820000  0.43770000  0.59370000  1.0 0.1093431139
H  H29  1  0.86680000  0.40000000  0.56300000  1.0 0.1093431139
H  H30  1  0.79700000  0.37950000  0.60470000  1.0 0.1277068934
H  H31  1  0.77060000  0.74830000  0.02240000  1.0 0.3286949495
H  H32  1  0.67480000  0.68540000  0.05840000  1.0 0.0817104118
H  H33  1  0.66666667  0.65630000  0.01540000  1.0 0.0997751961
H  H34  1  0.91610000  0.67950000  0.05870000  1.0 0.1093431139
H  H35  1  0.91460000  0.65460000  0.01380000  1.0 0.1093431139
H  H36  1  0.85760000  0.57930000  0.03810000  1.0 0.0903591016
H  H37  1  0.92690000  0.60020000  0.07970000  1.0 0.0817104118
H  H38  1  0.71180000  0.56230000  0.09370000  1.0 0.1186418158
H  H39  1  0.63320000  0.60000000  0.06300000  1.0 0.1093431139
H  H40  1  0.70300000  0.62050000  0.10470000  1.0 0.1277068934
H  H41  1  0.74400000  0.90700000  0.21130000  1.0 0.3374186592
H  H42  1  0.72760000  0.97150000  0.25340000  1.0 0.0997751961
H  H43  1  0.65640000  0.92570000  0.27740000  1.0 0.0997751961
H  H44  1  0.94020000  0.95690000  0.28650000  1.0 0.0997751961
H  H45  1  0.87280000  0.90900000  0.30960000  1.0 0.1093431139
H  H46  1  0.77750000  0.95690000  0.35390000  1.0 0.0903591016
H  H47  1  0.84910000  0.00320000  0.33290000  1.0 0.0903591016
H  H48  1  0.64470000  0.02500000  0.35980000  1.0 0.1186418158
H  H49  1  0.56060000  0.98380000  0.33370000  1.0 0.1093431139
H  H50  1  0.63180000  0.03040000  0.31070000  1.0 0.1418201935
H  H51  1  0.75600000  0.09300000  0.71130000  1.0 0.3374186592
H  H52  1  0.77240000  0.02850000  0.75340000  1.0 0.0997751961
H  H53  1  0.84360000  0.07430000  0.77740000  1.0 0.0997751961
H  H54  1  0.55980000  0.04310000  0.78650000  1.0 0.0997751961
H  H55  1  0.62720000  0.09100000  0.80960000  1.0 0.1093431139
H  H56  1  0.72250000  0.04310000  0.85390000  1.0 0.0903591016
H  H57  1  0.65090000  0.99680000  0.83290000  1.0 0.0903591016
H  H58  1  0.85530000  0.97500000  0.85980000  1.0 0.1186418158
H  H59  1  0.93940000  0.01620000  0.83370000  1.0 0.1093431139
H  H60  1  0.86820000  0.96960000  0.81070000  1.0 0.1418201935
H  H61  1  0.25600000  0.40700000  0.28870000  1.0 0.3374186592
H  H62  1  0.27240000  0.47150000  0.24660000  1.0 0.0997751961
H  H63  1  0.34360000  0.42570000  0.22260000  1.0 0.0997751961
H  H64  1  0.05980000  0.45690000  0.21350000  1.0 0.0997751961
H  H65  1  0.12720000  0.40900000  0.19040000  1.0 0.1093431139
H  H66  1  0.22250000  0.45690000  0.14610000  1.0 0.0903591016
H  H67  1  0.15090000  0.50320000  0.16710000  1.0 0.0903591016
H  H68  1  0.35530000  0.52500000  0.14020000  1.0 0.1186418158
H  H69  1  0.43940000  0.48380000  0.16630000  1.0 0.1093431139
H  H70  1  0.36820000  0.53040000  0.18930000  1.0 0.1418201935
H  H71  1  0.24400000  0.59300000  0.78870000  1.0 0.3374186592
H  H72  1  0.22760000  0.52850000  0.74660000  1.0 0.0997751961
H  H73  1  0.15640000  0.57430000  0.72260000  1.0 0.0997751961
H  H74  1  0.44020000  0.54310000  0.71350000  1.0 0.0997751961
H  H75  1  0.37280000  0.59100000  0.69040000  1.0 0.1093431139
H  H76  1  0.27750000  0.54310000  0.64610000  1.0 0.0903591016
H  H77  1  0.34910000  0.49680000  0.66710000  1.0 0.0903591016
H  H78  1  0.14470000  0.47500000  0.64020000  1.0 0.1186418158
H  H79  1  0.06060000  0.51620000  0.66630000  1.0 0.1093431139
H  H80  1  0.13180000  0.46960000  0.68930000  1.0 0.1418201935
H  H81  1  0.24010000  0.76230000  0.17680000  1.0 0.3286949495
H  H82  1  0.17390000  0.68790000  0.18680000  1.0 0.0997751961
H  H83  1  0.32460000  0.68850000  0.16580000  1.0 0.0903591016
H  H84  1  0.08640000  0.66430000  0.11780000  1.0 0.1093431139
H  H85  1  0.17500000  0.62270000  0.14400000  1.0 0.0817104118
H  H86  1  0.31620000  0.70230000  0.10000000  1.0 0.1093431139
H  H87  1  0.39200000  0.65470000  0.11960000  1.0 0.0740675205
H  H88  1  0.36120000  0.66340000  0.04410000  1.0 0.1418201935
H  H89  1  0.21310000  0.63700000  0.05380000  1.0 0.1186418158
H  H90  1  0.35790000  0.60960000  0.06570000  1.0 0.0997751961
H  H91  1  0.25990000  0.23770000  0.67680000  1.0 0.3286949495
H  H92  1  0.32610000  0.31210000  0.68680000  1.0 0.0997751961
H  H93  1  0.17540000  0.31150000  0.66580000  1.0 0.0903591016
H  H94  1  0.41360000  0.33570000  0.61780000  1.0 0.1093431139
H  H95  1  0.32500000  0.37730000  0.64400000  1.0 0.0817104118
H  H96  1  0.18380000  0.29770000  0.60000000  1.0 0.1093431139
H  H97  1  0.10800000  0.34530000  0.61960000  1.0 0.0740675205
H  H98  1  0.13880000  0.33660000  0.54410000  1.0 0.1418201935
H  H99  1  0.28690000  0.36300000  0.55380000  1.0 0.1186418158
H  H100  1  0.14210000  0.39040000  0.56570000  1.0 0.1093431139
H  H101  1  0.75990000  0.26230000  0.32320000  1.0 0.3286949495
H  H102  1  0.82610000  0.18790000  0.31320000  1.0 0.0997751961
H  H103  1  0.67540000  0.18850000  0.33420000  1.0 0.0903591016
H  H104  1  0.91360000  0.16430000  0.38220000  1.0 0.1093431139
H  H105  1  0.82500000  0.12270000  0.35600000  1.0 0.0817104118
H  H106  1  0.68380000  0.20230000  0.40000000  1.0 0.1093431139
H  H107  1  0.60800000  0.15470000  0.38040000  1.0 0.0740675205
H  H108  1  0.63880000  0.16340000  0.45590000  1.0 0.1418201935
H  H109  1  0.78690000  0.13700000  0.44620000  1.0 0.1186418158
H  H110  1  0.64210000  0.10960000  0.43430000  1.0 0.1093431139
H  H111  1  0.74010000  0.73770000  0.82320000  1.0 0.3286949495
H  H112  1  0.67390000  0.81210000  0.81320000  1.0 0.0997751961
H  H113  1  0.82460000  0.81150000  0.83420000  1.0 0.0903591016
H  H114  1  0.58640000  0.83570000  0.88220000  1.0 0.1093431139
H  H115  1  0.67500000  0.87730000  0.85600000  1.0 0.0817104118
H  H116  1  0.81620000  0.79770000  0.90000000  1.0 0.1093431139
H  H117  1  0.89200000  0.84530000  0.88040000  1.0 0.0740675205
H  H118  1  0.86120000  0.83660000  0.95590000  1.0 0.1418201935
H  H119  1  0.71310000  0.86300000  0.94620000  1.0 0.1186418158
H  H120  1  0.85790000  0.89040000  0.93430000  1.0 0.0997751961
H  H121  1  0.75900000  0.92720000  0.10270000  1.0 0.320784116
H  H122  1  0.65180000  0.97560000  0.05840000  1.0 0.0997751961
H  H123  1  0.63720000  0.92670000  0.03080000  1.0 0.0997751961
H  H124  1  0.87630000  0.92820000  0.01820000  1.0 0.1093431139
H  H125  1  0.89050000  0.97740000  0.04580000  1.0 0.1093431139
H  H126  1  0.72690000  0.97650000  0.97070000  1.0 0.0817104118
H  H127  1  0.76920000  0.02540000  0.99660000  1.0 0.0997751961
H  H128  1  0.92550000  0.01840000  0.94180000  1.0 0.0997751961
H  H129  1  0.96200000  0.96200000  0.95430000  1.0 0.1093431139
H  H130  1  0.01150000  0.00710000  0.98340000  1.0 0.1277068934
H  H131  1  0.74100000  0.07280000  0.60270000  1.0 0.320784116
H  H132  1  0.84820000  0.02440000  0.55840000  1.0 0.0997751961
H  H133  1  0.86280000  0.07330000  0.53080000  1.0 0.0997751961
H  H134  1  0.62370000  0.07180000  0.51820000  1.0 0.1093431139
H  H135  1  0.60950000  0.02260000  0.54580000  1.0 0.1093431139
H  H136  1  0.77310000  0.02350000  0.47070000  1.0 0.0817104118
H  H137  1  0.73080000  0.97460000  0.49660000  1.0 0.0997751961
H  H138  1  0.57450000  0.98160000  0.44180000  1.0 0.0997751961
H  H139  1  0.53800000  0.03800000  0.45430000  1.0 0.1093431139
H  H140  1  0.48850000  0.99290000  0.48340000  1.0 0.1277068934
H  H141  1  0.24100000  0.42720000  0.39730000  1.0 0.320784116
H  H142  1  0.34820000  0.47560000  0.44160000  1.0 0.0997751961
H  H143  1  0.36280000  0.42670000  0.46920000  1.0 0.0997751961
H  H144  1  0.12370000  0.42820000  0.48180000  1.0 0.1093431139
H  H145  1  0.10950000  0.47740000  0.45420000  1.0 0.1093431139
H  H146  1  0.27310000  0.47650000  0.52930000  1.0 0.0817104118
H  H147  1  0.23080000  0.52540000  0.50340000  1.0 0.0997751961
H  H148  1  0.07450000  0.51840000  0.55820000  1.0 0.0997751961
H  H149  1  0.03800000  0.46200000  0.54570000  1.0 0.1093431139
H  H150  1  0.98850000  0.50710000  0.51660000  1.0 0.1277068934
H  H151  1  0.25900000  0.57280000  0.89730000  1.0 0.320784116
H  H152  1  0.15180000  0.52440000  0.94160000  1.0 0.0997751961
H  H153  1  0.13720000  0.57330000  0.96920000  1.0 0.0997751961
H  H154  1  0.37630000  0.57180000  0.98180000  1.0 0.1093431139
H  H155  1  0.39050000  0.52260000  0.95420000  1.0 0.1093431139
H  H156  1  0.22690000  0.52350000  0.02930000  1.0 0.0817104118
H  H157  1  0.26920000  0.47460000  0.00340000  1.0 0.0997751961
H  H158  1  0.42550000  0.48160000  0.05820000  1.0 0.0997751961
H  H159  1  0.46200000  0.53800000  0.04570000  1.0 0.1093431139
H  H160  1  0.51150000  0.49290000  0.01660000  1.0 0.1277068934
H  H161  1  0.78610000  0.74080000  0.34400000  1.0 0.3089258464
H  H162  1  0.59840000  0.76250000  0.38370000  1.0 0.0997751961
H  H163  1  0.73600000  0.79170000  0.40000000  1.0 0.0997751961
H  H164  1  0.68110000  0.85970000  0.35530000  1.0 0.1093431139
H  H165  1  0.54120000  0.83050000  0.34020000  1.0 0.1093431139
H  H166  1  0.43540000  0.84110000  0.39350000  1.0 0.0903591016
H  H167  1  0.56370000  0.82430000  0.42020000  1.0 0.0903591016
H  H168  1  0.46580000  0.86830000  0.45930000  1.0 0.1277068934
H  H169  1  0.40740000  0.90600000  0.42490000  1.0 0.1186418158
H  H170  1  0.56830000  0.90970000  0.43990000  1.0 0.1186418158
H  H171  1  0.71390000  0.25920000  0.84400000  1.0 0.3089258464
H  H172  1  0.90160000  0.23750000  0.88370000  1.0 0.0997751961
H  H173  1  0.76400000  0.20830000  0.90000000  1.0 0.0997751961
H  H174  1  0.81890000  0.14030000  0.85530000  1.0 0.1093431139
H  H175  1  0.95880000  0.16950000  0.84020000  1.0 0.1093431139
H  H176  1  0.06460000  0.15890000  0.89350000  1.0 0.0903591016
H  H177  1  0.93630000  0.17570000  0.92020000  1.0 0.0903591016
H  H178  1  0.03420000  0.13170000  0.95930000  1.0 0.1277068934
H  H179  1  0.09260000  0.09400000  0.92490000  1.0 0.1186418158
H  H180  1  0.93170000  0.09030000  0.93990000  1.0 0.1186418158
H  H181  1  0.21390000  0.24080000  0.15600000  1.0 0.320784116
H  H182  1  0.40160000  0.26250000  0.11630000  1.0 0.0997751961
H  H183  1  0.26400000  0.29170000  0.10000000  1.0 0.0997751961
H  H184  1  0.31890000  0.35970000  0.14470000  1.0 0.1093431139
H  H185  1  0.45880000  0.33050000  0.15980000  1.0 0.1093431139
H  H186  1  0.56460000  0.34110000  0.10650000  1.0 0.0903591016
H  H187  1  0.43630000  0.32430000  0.07980000  1.0 0.0903591016
H  H188  1  0.53420000  0.36830000  0.04070000  1.0 0.1277068934
H  H189  1  0.59260000  0.40600000  0.07510000  1.0 0.1186418158
H  H190  1  0.43170000  0.40970000  0.06010000  1.0 0.1186418158
H  H191  1  0.28610000  0.75920000  0.65600000  1.0 0.320784116
H  H192  1  0.09840000  0.73750000  0.61630000  1.0 0.0997751961
H  H193  1  0.23600000  0.70830000  0.60000000  1.0 0.0997751961
H  H194  1  0.18110000  0.64030000  0.64470000  1.0 0.0997751961
H  H195  1  0.04120000  0.66950000  0.65980000  1.0 0.1093431139
H  H196  1  0.93540000  0.65890000  0.60650000  1.0 0.0903591016
H  H197  1  0.06370000  0.67570000  0.57980000  1.0 0.0903591016
H  H198  1  0.96580000  0.63170000  0.54070000  1.0 0.1277068934
H  H199  1  0.90740000  0.59400000  0.57510000  1.0 0.1186418158
H  H200  1  0.06830000  0.59030000  0.56010000  1.0 0.1186418158
H  H201  1  0.23030000  0.90870000  0.21860000  1.0 0.320784116
H  H202  1  0.19810000  0.89410000  0.28530000  1.0 0.0997751961
H  H203  1  0.36550000  0.89200000  0.28750000  1.0 0.0997751961
H  H204  1  0.21260000  0.98020000  0.27510000  1.0 0.1093431139
H  H205  1  0.38010000  0.97630000  0.28140000  1.0 0.0997751961
H  H206  1  0.34740000  0.94540000  0.34820000  1.0 0.0903591016
H  H207  1  0.28750000  0.00020000  0.34300000  1.0 0.0817104118
H  H208  1  0.15700000  0.96080000  0.39010000  1.0 0.1186418158
H  H209  1  0.12690000  0.91470000  0.35990000  1.0 0.1418201935
H  H210  1  0.05820000  0.96820000  0.35050000  1.0 0.1186418158
H  H211  1  0.26970000  0.09130000  0.71860000  1.0 0.320784116
H  H212  1  0.30190000  0.10590000  0.78530000  1.0 0.0997751961
H  H213  1  0.13450000  0.10800000  0.78750000  1.0 0.0997751961
H  H214  1  0.28740000  0.01980000  0.77510000  1.0 0.1093431139
H  H215  1  0.11990000  0.02370000  0.78140000  1.0 0.0997751961
H  H216  1  0.15260000  0.05460000  0.84820000  1.0 0.0903591016
H  H217  1  0.21250000  0.99980000  0.84300000  1.0 0.0817104118
H  H218  1  0.34300000  0.03920000  0.89010000  1.0 0.1186418158
H  H219  1  0.37310000  0.08530000  0.85990000  1.0 0.1418201935
H  H220  1  0.44180000  0.03180000  0.85050000  1.0 0.1093431139
H  H221  1  0.76970000  0.40870000  0.28140000  1.0 0.320784116
H  H222  1  0.80190000  0.39410000  0.21470000  1.0 0.0997751961
H  H223  1  0.63450000  0.39200000  0.21250000  1.0 0.0997751961
H  H224  1  0.78740000  0.48020000  0.22490000  1.0 0.1093431139
H  H225  1  0.61990000  0.47630000  0.21860000  1.0 0.0997751961
H  H226  1  0.65260000  0.44540000  0.15180000  1.0 0.0903591016
H  H227  1  0.71250000  0.50020000  0.15700000  1.0 0.0817104118
H  H228  1  0.84300000  0.46080000  0.10990000  1.0 0.1186418158
H  H229  1  0.87310000  0.41470000  0.14010000  1.0 0.1418201935
H  H230  1  0.94180000  0.46820000  0.14950000  1.0 0.1093431139
H  H231  1  0.73030000  0.59130000  0.78140000  1.0 0.320784116
H  H232  1  0.69810000  0.60590000  0.71470000  1.0 0.0997751961
H  H233  1  0.86550000  0.60800000  0.71250000  1.0 0.0997751961
H  H234  1  0.71260000  0.51980000  0.72490000  1.0 0.1093431139
H  H235  1  0.88010000  0.52370000  0.71860000  1.0 0.0997751961
H  H236  1  0.84740000  0.55460000  0.65180000  1.0 0.0903591016
H  H237  1  0.78750000  0.49980000  0.65700000  1.0 0.0817104118
H  H238  1  0.65700000  0.53920000  0.60990000  1.0 0.1186418158
H  H239  1  0.62690000  0.58530000  0.64010000  1.0 0.1418201935
H  H240  1  0.55820000  0.53180000  0.64950000  1.0 0.1186418158
H  H241  1  0.72730000  0.61250000  0.32560000  1.0 0.3089258464
H  H242  1  0.70810000  0.56830000  0.25330000  1.0 0.0903591016
H  H243  1  0.58460000  0.60240000  0.27180000  1.0 0.0997751961
H  H244  1  0.74420000  0.67040000  0.27010000  1.0 0.1093431139
H  H245  1  0.69450000  0.65020000  0.22590000  1.0 0.1093431139
H  H246  1  0.93240000  0.66610000  0.22390000  1.0 0.0903591016
H  H247  1  0.95950000  0.63390000  0.26420000  1.0 0.0997751961
H  H248  1  0.06090000  0.59860000  0.20590000  1.0 0.1186418158
H  H249  1  0.90730000  0.59100000  0.18610000  1.0 0.1186418158
H  H250  1  0.95080000  0.56110000  0.22700000  1.0 0.1186418158
H  H251  1  0.77270000  0.38750000  0.82560000  1.0 0.3089258464
H  H252  1  0.79190000  0.43170000  0.75330000  1.0 0.0903591016
H  H253  1  0.91540000  0.39760000  0.77180000  1.0 0.0997751961
H  H254  1  0.75580000  0.32960000  0.77010000  1.0 0.1093431139
H  H255  1  0.80550000  0.34980000  0.72590000  1.0 0.1093431139
H  H256  1  0.56760000  0.33390000  0.72390000  1.0 0.0903591016
H  H257  1  0.54050000  0.36610000  0.76420000  1.0 0.0997751961
H  H258  1  0.43910000  0.40140000  0.70590000  1.0 0.1186418158
H  H259  1  0.59270000  0.40900000  0.68610000  1.0 0.1186418158
H  H260  1  0.54920000  0.43890000  0.72700000  1.0 0.1186418158
H  H261  1  0.27270000  0.11250000  0.17440000  1.0 0.3089258464
H  H262  1  0.29190000  0.06830000  0.24670000  1.0 0.0903591016
H  H263  1  0.41540000  0.10240000  0.22820000  1.0 0.0997751961
H  H264  1  0.25580000  0.17040000  0.22990000  1.0 0.1093431139
H  H265  1  0.30550000  0.15020000  0.27410000  1.0 0.1093431139
H  H266  1  0.06760000  0.16610000  0.27610000  1.0 0.0903591016
H  H267  1  0.04050000  0.13390000  0.23580000  1.0 0.0997751961
H  H268  1  0.93910000  0.09860000  0.29410000  1.0 0.1186418158
H  H269  1  0.09270000  0.09100000  0.31390000  1.0 0.1186418158
H  H270  1  0.04920000  0.06110000  0.27300000  1.0 0.1186418158
H  H271  1  0.22730000  0.88750000  0.67440000  1.0 0.3089258464
H  H272  1  0.20810000  0.93170000  0.74670000  1.0 0.0903591016
H  H273  1  0.08460000  0.89760000  0.72820000  1.0 0.0997751961
H  H274  1  0.24420000  0.82960000  0.72990000  1.0 0.1093431139
H  H275  1  0.19450000  0.84980000  0.77410000  1.0 0.1093431139
H  H276  1  0.43240000  0.83390000  0.77610000  1.0 0.0903591016
H  H277  1  0.45950000  0.86610000  0.73580000  1.0 0.0997751961
H  H278  1  0.56090000  0.90140000  0.79410000  1.0 0.1186418158
H  H279  1  0.40730000  0.90900000  0.81390000  1.0 0.1186418158
H  H280  1  0.45080000  0.93890000  0.77300000  1.0 0.1186418158
H  H281  1  0.75910000  0.69040000  0.45590000  1.0 0.3089258464
H  H282  1  0.79120000  0.62260000  0.49560000  1.0 0.0817104118
H  H283  1  0.92520000  0.62990000  0.46590000  1.0 0.0903591016
H  H284  1  0.82660000  0.57340000  0.41690000  1.0 0.1186418158
H  H285  1  0.84500000  0.54630000  0.46040000  1.0 0.0903591016
H  H286  1  0.57670000  0.58150000  0.42940000  1.0 0.1093431139
H  H287  1  0.62410000  0.52390000  0.42970000  1.0 0.0997751961
H  H288  1  0.48360000  0.53890000  0.48730000  1.0 0.1186418158
H  H289  1  0.58470000  0.58370000  0.50120000  1.0 0.1277068934
H  H290  1  0.64110000  0.52740000  0.50260000  1.0 0.1093431139
H  H291  1  0.74090000  0.30960000  0.95590000  1.0 0.3089258464
H  H292  1  0.70880000  0.37740000  0.99560000  1.0 0.0817104118
H  H293  1  0.57480000  0.37010000  0.96590000  1.0 0.0903591016
H  H294  1  0.67340000  0.42660000  0.91690000  1.0 0.1186418158
H  H295  1  0.65500000  0.45370000  0.96040000  1.0 0.0903591016
H  H296  1  0.92330000  0.41850000  0.92940000  1.0 0.1093431139
H  H297  1  0.87590000  0.47610000  0.92970000  1.0 0.0997751961
H  H298  1  0.01640000  0.46110000  0.98730000  1.0 0.1186418158
H  H299  1  0.91530000  0.41630000  0.00120000  1.0 0.1277068934
H  H300  1  0.85890000  0.47260000  0.00260000  1.0 0.1093431139
H  H301  1  0.24090000  0.19040000  0.04410000  1.0 0.3089258464
H  H302  1  0.20880000  0.12260000  0.00440000  1.0 0.0817104118
H  H303  1  0.07480000  0.12990000  0.03410000  1.0 0.0903591016
H  H304  1  0.17340000  0.07340000  0.08310000  1.0 0.1186418158
H  H305  1  0.15500000  0.04630000  0.03960000  1.0 0.0903591016
H  H306  1  0.42330000  0.08150000  0.07060000  1.0 0.1093431139
H  H307  1  0.37590000  0.02390000  0.07030000  1.0 0.0997751961
H  H308  1  0.51640000  0.03890000  0.01270000  1.0 0.1186418158
H  H309  1  0.41530000  0.08370000  0.99880000  1.0 0.1277068934
H  H310  1  0.35890000  0.02740000  0.99740000  1.0 0.1093431139
H  H311  1  0.25910000  0.80960000  0.54410000  1.0 0.3089258464
H  H312  1  0.29120000  0.87740000  0.50440000  1.0 0.0817104118
H  H313  1  0.42520000  0.87010000  0.53410000  1.0 0.0903591016
H  H314  1  0.32660000  0.92660000  0.58310000  1.0 0.1186418158
H  H315  1  0.34500000  0.95370000  0.53960000  1.0 0.0903591016
H  H316  1  0.07670000  0.91850000  0.57060000  1.0 0.1093431139
H  H317  1  0.12410000  0.97610000  0.57030000  1.0 0.0997751961
H  H318  1  0.98360000  0.96110000  0.51270000  1.0 0.1186418158
H  H319  1  0.08470000  0.91630000  0.49880000  1.0 0.1277068934
H  H320  1  0.14110000  0.97260000  0.49740000  1.0 0.1093431139
C  C1  1  0.22400000  0.82000000  0.96820000  1.0 -0.0495983924
C  C2  1  0.36200000  0.84250000  0.96000000  1.0 -0.1684720175
C  C3  1  0.34800000  0.89510000  0.94000000  1.0 -0.0671951467
C  C4  1  0.21200000  0.90400000  0.91770000  1.0 -0.389142218
C  C5  1  0.27600000  0.18000000  0.46820000  1.0 -0.0495983924
C  C6  1  0.13800000  0.15750000  0.46000000  1.0 -0.1684720175
C  C7  1  0.15200000  0.10490000  0.44000000  1.0 -0.0671951467
C  C8  1  0.28800000  0.09600000  0.41770000  1.0 -0.389142218
C  C9  1  0.77600000  0.32000000  0.53180000  1.0 -0.0495983924
C  C10  1  0.63800000  0.34250000  0.54000000  1.0 -0.1684720175
C  C11  1  0.65200000  0.39510000  0.56000000  1.0 -0.0671951467
C  C12  1  0.78800000  0.40400000  0.58230000  1.0 -0.389142218
C  C13  1  0.72400000  0.68000000  0.03180000  1.0 -0.0495983924
C  C14  1  0.86200000  0.65750000  0.04000000  1.0 -0.1684720175
C  C15  1  0.84800000  0.60490000  0.06000000  1.0 -0.0671951467
C  C16  1  0.71200000  0.59600000  0.08230000  1.0 -0.389142218
C  C17  1  0.74600000  0.93790000  0.26510000  1.0 -0.0384518251
C  C18  1  0.85200000  0.94190000  0.29710000  1.0 -0.1684720175
C  C19  1  0.77600000  0.97720000  0.32840000  1.0 -0.0888858823
C  C20  1  0.64200000  0.00700000  0.33400000  1.0 -0.3831944479
C  C21  1  0.75400000  0.06210000  0.76510000  1.0 -0.0384518251
C  C22  1  0.64800000  0.05810000  0.79710000  1.0 -0.1684720175
C  C23  1  0.72400000  0.02280000  0.82840000  1.0 -0.0888858823
C  C24  1  0.85800000  0.99300000  0.83400000  1.0 -0.3831944479
C  C25  1  0.25400000  0.43790000  0.23490000  1.0 -0.0384518251
C  C26  1  0.14800000  0.44190000  0.20290000  1.0 -0.1684720175
C  C27  1  0.22400000  0.47720000  0.17160000  1.0 -0.0888858823
C  C28  1  0.35800000  0.50700000  0.16600000  1.0 -0.3831944479
C  C29  1  0.24600000  0.56210000  0.73490000  1.0 -0.0384518251
C  C30  1  0.35200000  0.55810000  0.70290000  1.0 -0.1684720175
C  C31  1  0.27600000  0.52280000  0.67160000  1.0 -0.0888858823
C  C32  1  0.14200000  0.49300000  0.66600000  1.0 -0.3831944479
C  C33  1  0.22300000  0.69560000  0.16070000  1.0 -0.0384518251
C  C34  1  0.17700000  0.65650000  0.13160000  1.0 -0.1595667167
C  C35  1  0.30700000  0.66580000  0.10410000  1.0 -0.0888858823
C  C36  1  0.31000000  0.64200000  0.06360000  1.0 -0.389142218
C  C37  1  0.27700000  0.30440000  0.66070000  1.0 -0.0384518251
C  C38  1  0.32300000  0.34350000  0.63160000  1.0 -0.1595667167
C  C39  1  0.19300000  0.33420000  0.60410000  1.0 -0.0888858823
C  C40  1  0.19000000  0.35800000  0.56360000  1.0 -0.389142218
C  C41  1  0.77700000  0.19560000  0.33930000  1.0 -0.0384518251
C  C42  1  0.82300000  0.15650000  0.36840000  1.0 -0.1595667167
C  C43  1  0.69300000  0.16580000  0.39590000  1.0 -0.0888858823
C  C44  1  0.69000000  0.14200000  0.43640000  1.0 -0.389142218
C  C45  1  0.72300000  0.80440000  0.83930000  1.0 -0.0384518251
C  C46  1  0.67700000  0.84350000  0.86840000  1.0 -0.1595667167
C  C47  1  0.80700000  0.83420000  0.89590000  1.0 -0.0888858823
C  C48  1  0.81000000  0.85800000  0.93640000  1.0 -0.389142218
C  C49  1  0.70070000  0.94440000  0.05020000  1.0 -0.0384518251
C  C50  1  0.82700000  0.95900000  0.02690000  1.0 -0.1595667167
C  C51  1  0.80100000  0.99160000  0.98830000  1.0 -0.0977232785
C  C52  1  0.93700000  0.99500000  0.96500000  1.0 -0.389142218
C  C53  1  0.79930000  0.05560000  0.55020000  1.0 -0.0384518251
C  C54  1  0.67300000  0.04100000  0.52690000  1.0 -0.1595667167
C  C55  1  0.69900000  0.00840000  0.48830000  1.0 -0.0977232785
C  C56  1  0.56300000  0.00500000  0.46500000  1.0 -0.389142218
C  C57  1  0.29930000  0.44440000  0.44980000  1.0 -0.0384518251
C  C58  1  0.17300000  0.45900000  0.47310000  1.0 -0.1595667167
C  C59  1  0.19900000  0.49160000  0.51170000  1.0 -0.0977232785
C  C60  1  0.06300000  0.49500000  0.53500000  1.0 -0.389142218
C  C61  1  0.20070000  0.55560000  0.94980000  1.0 -0.0384518251
C  C62  1  0.32700000  0.54100000  0.97310000  1.0 -0.1595667167
C  C63  1  0.30100000  0.50840000  0.01170000  1.0 -0.0977232785
C  C64  1  0.43700000  0.50500000  0.03500000  1.0 -0.389142218
C  C65  1  0.67300000  0.78670000  0.37590000  1.0 -0.0122275121
C  C66  1  0.60800000  0.83520000  0.36340000  1.0 -0.1595667167
C  C67  1  0.53200000  0.85160000  0.40190000  1.0 -0.0384518251
C  C68  1  0.49000000  0.88680000  0.43420000  1.0 -0.4003657935
C  C69  1  0.82700000  0.21330000  0.87590000  1.0 -0.0122275121
C  C70  1  0.89200000  0.16480000  0.86340000  1.0 -0.1595667167
C  C71  1  0.96800000  0.14840000  0.90190000  1.0 -0.0348670943
C  C72  1  0.01000000  0.11320000  0.93420000  1.0 -0.4003657935
C  C73  1  0.32700000  0.28670000  0.12410000  1.0 -0.0122275121
C  C74  1  0.39200000  0.33520000  0.13660000  1.0 -0.1595667167
C  C75  1  0.46800000  0.35160000  0.09810000  1.0 -0.0348670943
C  C76  1  0.51000000  0.38680000  0.06580000  1.0 -0.4003657935
C  C77  1  0.17300000  0.71330000  0.62410000  1.0 -0.0122275121
C  C78  1  0.10800000  0.66480000  0.63660000  1.0 -0.1595667167
C  C79  1  0.03200000  0.64840000  0.59810000  1.0 -0.0384518251
C  C80  1  0.99000000  0.61320000  0.56580000  1.0 -0.4003657935
C  C81  1  0.28500000  0.90930000  0.27400000  1.0 -0.0384518251
C  C82  1  0.28800000  0.96100000  0.28900000  1.0 -0.1595667167
C  C83  1  0.26800000  0.96480000  0.33610000  1.0 -0.1060984595
C  C84  1  0.14200000  0.95100000  0.36100000  1.0 -0.389142218
C  C85  1  0.21500000  0.09070000  0.77400000  1.0 -0.0348670943
C  C86  1  0.21200000  0.03900000  0.78900000  1.0 -0.1595667167
C  C87  1  0.23200000  0.03520000  0.83610000  1.0 -0.1060984595
C  C88  1  0.35800000  0.04900000  0.86100000  1.0 -0.389142218
C  C89  1  0.71500000  0.40930000  0.22600000  1.0 -0.0348670943
C  C90  1  0.71200000  0.46100000  0.21100000  1.0 -0.1595667167
C  C91  1  0.73200000  0.46480000  0.16390000  1.0 -0.1060984595
C  C92  1  0.85800000  0.45100000  0.13900000  1.0 -0.389142218
C  C93  1  0.78500000  0.59070000  0.72600000  1.0 -0.0384518251
C  C94  1  0.78800000  0.53900000  0.71100000  1.0 -0.1595667167
C  C95  1  0.76800000  0.53520000  0.66390000  1.0 -0.1060984595
C  C96  1  0.64200000  0.54900000  0.63900000  1.0 -0.389142218
C  C97  1  0.68800000  0.59810000  0.27050000  1.0 -0.019839499
C  C98  1  0.75100000  0.64180000  0.25080000  1.0 -0.1482682792
C  C99  1  0.90500000  0.63490000  0.23820000  1.0 -0.0846167592
C  C100  1  0.96100000  0.59270000  0.21200000  1.0 -0.389142218
C  C101  1  0.81200000  0.40190000  0.77050000  1.0 -0.019839499
C  C102  1  0.74900000  0.35820000  0.75080000  1.0 -0.1482682792
C  C103  1  0.59500000  0.36510000  0.73820000  1.0 -0.0888858823
C  C104  1  0.53900000  0.40730000  0.71200000  1.0 -0.389142218
C  C105  1  0.31200000  0.09810000  0.22950000  1.0 -0.019839499
C  C106  1  0.24900000  0.14180000  0.24920000  1.0 -0.1482682792
C  C107  1  0.09500000  0.13490000  0.26180000  1.0 -0.0888858823
C  C108  1  0.03900000  0.09270000  0.28800000  1.0 -0.389142218
C  C109  1  0.18800000  0.90190000  0.72950000  1.0 -0.019839499
C  C110  1  0.25100000  0.85820000  0.74920000  1.0 -0.1482682792
C  C111  1  0.40500000  0.86510000  0.76180000  1.0 -0.0888858823
C  C112  1  0.46100000  0.90730000  0.78800000  1.0 -0.389142218
C  C113  1  0.82200000  0.62360000  0.46640000  1.0 -0.0384518251
C  C114  1  0.79100000  0.57230000  0.44560000  1.0 -0.1441052395
C  C115  1  0.63300000  0.55620000  0.44440000  1.0 -0.0888858823
C  C116  1  0.58100000  0.55110000  0.48750000  1.0 -0.3831944479
C  C117  1  0.67800000  0.37640000  0.96640000  1.0 -0.0384518251
C  C118  1  0.70900000  0.42770000  0.94560000  1.0 -0.1482682792
C  C119  1  0.86700000  0.44380000  0.94440000  1.0 -0.0888858823
C  C120  1  0.91900000  0.44890000  0.98750000  1.0 -0.3831944479
C  C121  1  0.17800000  0.12360000  0.03360000  1.0 -0.0384518251
C  C122  1  0.20900000  0.07230000  0.05440000  1.0 -0.1441052395
C  C123  1  0.36700000  0.05620000  0.05560000  1.0 -0.0888858823
C  C124  1  0.41900000  0.05110000  0.01250000  1.0 -0.3831944479
C  C125  1  0.32200000  0.87640000  0.53360000  1.0 -0.0384518251
C  C126  1  0.29100000  0.92770000  0.55440000  1.0 -0.1441052395
C  C127  1  0.13300000  0.94380000  0.55560000  1.0 -0.0888858823
C  C128  1  0.08100000  0.94890000  0.51250000  1.0 -0.3831944479
S  S1  1  0.47460000  0.71278000  0.76708000  1.0 1.4262018265
S  S2  1  0.02540000  0.28722000  0.26708000  1.0 1.4262018265
S  S3  1  0.52540000  0.21278000  0.73292000  1.0 1.4262018265
S  S4  1  0.97460000  0.78722000  0.23292000  1.0 1.4262018265
S  S5  1  0.01410000  0.71523000  0.76107000  1.0 1.4213907482
S  S6  1  0.48590000  0.28477000  0.26107000  1.0 1.4213907482
S  S7  1  0.98590000  0.21523000  0.73893000  1.0 1.4213907482
S  S8  1  0.51410000  0.78477000  0.23893000  1.0 1.4213907482
S  S9  1  0.95740000  0.84024000  0.63385000  1.0 1.4889621498
S  S10  1  0.54260000  0.15976000  0.13385000  1.0 1.4889621498
S  S11  1  0.04260000  0.34024000  0.86615000  1.0 1.4889621498
S  S12  1  0.45740000  0.65976000  0.36615000  1.0 1.4889621498
S  S13  1  0.54060000  0.82888000  0.64097000  1.0 1.5013945164
S  S14  1  0.95940000  0.17112000  0.14097000  1.0 1.5013945164
S  S15  1  0.45940000  0.32888000  0.85903000  1.0 1.5013945164
S  S16  1  0.04060000  0.67112000  0.35903000  1.0 1.5013945164
S  S17  1  0.01360000  0.70195000  0.91923000  1.0 1.4027003196
S  S18  1  0.48640000  0.29805000  0.41923000  1.0 1.4027003196
S  S19  1  0.98640000  0.20195000  0.58077000  1.0 1.4120530786
S  S20  1  0.51360000  0.79805000  0.08077000  1.0 1.4027003196
S  S21  1  0.51220000  0.52631000  0.84142000  1.0 1.4120530786
S  S22  1  0.98780000  0.47369000  0.34142000  1.0 1.4120530786
S  S23  1  0.48780000  0.02631000  0.65858000  1.0 1.4120530786
S  S24  1  0.01220000  0.97369000  0.15858000  1.0 1.4120530786
S  S25  1  0.51120000  0.68911000  0.92531000  1.0 1.4027003196
S  S26  1  0.98880000  0.31089000  0.42531000  1.0 1.4027003196
S  S27  1  0.48880000  0.18911000  0.57469000  1.0 1.4027003196
S  S28  1  0.01120000  0.81089000  0.07469000  1.0 1.4027003196
S  S29  1  0.95750000  0.77665000  0.47441000  1.0 1.3797364893
S  S30  1  0.54250000  0.22335000  0.97441000  1.0 1.3797364893
S  S31  1  0.04250000  0.27665000  0.02559000  1.0 1.3797364893
S  S32  1  0.45750000  0.72335000  0.52559000  1.0 1.3797364893
S  S33  1  0.97440000  0.53172000  0.84389000  1.0 1.4422606887
S  S34  1  0.52560000  0.46828000  0.34389000  1.0 1.4422606887
S  S35  1  0.02560000  0.03172000  0.65611000  1.0 1.4422606887
S  S36  1  0.47440000  0.96828000  0.15611000  1.0 1.4422606887
N  N1  1  0.23110000  0.77100000  0.99090000  1.0 -0.2983166812
N  N2  1  0.26890000  0.22900000  0.49090000  1.0 -0.2983166812
N  N3  1  0.76890000  0.27100000  0.50910000  1.0 -0.2983166812
N  N4  1  0.73110000  0.72900000  0.00910000  1.0 -0.2983166812
N  N5  1  0.79090000  0.90250000  0.23040000  1.0 -0.2902986942
N  N6  1  0.70910000  0.09750000  0.73040000  1.0 -0.2902986942
N  N7  1  0.20910000  0.40250000  0.26960000  1.0 -0.2902986942
N  N8  1  0.29090000  0.59750000  0.76960000  1.0 -0.2902986942
N  N9  1  0.21530000  0.75000000  0.15660000  1.0 -0.2902986942
N  N10  1  0.28470000  0.25000000  0.65660000  1.0 -0.2902986942
N  N11  1  0.78470000  0.25000000  0.34340000  1.0 -0.2902986942
N  N12  1  0.71530000  0.75000000  0.84340000  1.0 -0.2902986942
N  N13  1  0.71250000  0.91380000  0.08660000  1.0 -0.3170450566
N  N14  1  0.78750000  0.08620000  0.58660000  1.0 -0.3170450566
N  N15  1  0.28750000  0.41380000  0.41340000  1.0 -0.3170450566
N  N16  1  0.21250000  0.58620000  0.91340000  1.0 -0.3170450566
N  N17  1  0.75760000  0.76700000  0.33910000  1.0 -0.2656254707
N  N18  1  0.74240000  0.23300000  0.83910000  1.0 -0.2656254707
N  N19  1  0.24240000  0.26700000  0.16090000  1.0 -0.2656254707
N  N20  1  0.25760000  0.73300000  0.66090000  1.0 -0.264587873
N  N21  1  0.29090000  0.89560000  0.23020000  1.0 -0.2902986942
N  N22  1  0.20910000  0.10440000  0.73020000  1.0 -0.2902986942
N  N23  1  0.70910000  0.39560000  0.26980000  1.0 -0.2902986942
N  N24  1  0.79090000  0.60440000  0.76980000  1.0 -0.2902986942
N  N25  1  0.74270000  0.58950000  0.31200000  1.0 -0.2902986942
N  N26  1  0.75730000  0.41050000  0.81200000  1.0 -0.2902986942
N  N27  1  0.25730000  0.08950000  0.18800000  1.0 -0.2902986942
N  N28  1  0.24270000  0.91050000  0.68800000  1.0 -0.2902986942
N  N29  1  0.74630000  0.66570000  0.44430000  1.0 -0.283009364
N  N30  1  0.75370000  0.33430000  0.94430000  1.0 -0.283009364
N  N31  1  0.25370000  0.16570000  0.05570000  1.0 -0.283009364
N  N32  1  0.24630000  0.83430000  0.55570000  1.0 -0.2902986942
O  O1  1  0.09510000  0.74030000  0.79460000  1.0 -0.6797506931
O  O2  1  0.40490000  0.25970000  0.29460000  1.0 -0.6797506931
O  O3  1  0.90490000  0.24030000  0.70540000  1.0 -0.6797506931
O  O4  1  0.59510000  0.75970000  0.20540000  1.0 -0.6797506931
O  O5  1  0.74480000  0.63540000  0.85270000  1.0 -0.5199219374
O  O6  1  0.75520000  0.36460000  0.35270000  1.0 -0.5199219374
O  O7  1  0.25520000  0.13540000  0.64730000  1.0 -0.5199219374
O  O8  1  0.24480000  0.86460000  0.14730000  1.0 -0.5199219374
O  O9  1  0.24080000  0.66200000  0.84040000  1.0 -0.5086936181
O  O10  1  0.25920000  0.33800000  0.34040000  1.0 -0.5086936181
O  O11  1  0.75920000  0.16200000  0.65960000  1.0 -0.5086936181
O  O12  1  0.74080000  0.83800000  0.15960000  1.0 -0.5086936181
O  O13  1  0.41680000  0.73850000  0.80410000  1.0 -0.6927922041
O  O14  1  0.08320000  0.26150000  0.30410000  1.0 -0.6797506931
O  O15  1  0.58320000  0.23850000  0.69590000  1.0 -0.6797506931
O  O16  1  0.91680000  0.76150000  0.19590000  1.0 -0.6927922041
O  O17  1  0.73380000  0.58390000  0.95180000  1.0 -0.6315334195
O  O18  1  0.76620000  0.41610000  0.45180000  1.0 -0.6315334195
O  O19  1  0.26620000  0.08390000  0.54820000  1.0 -0.6315334195
O  O20  1  0.23380000  0.91610000  0.04820000  1.0 -0.6315334195
O  O21  1  0.59160000  0.54320000  0.87830000  1.0 -0.6670741899
O  O22  1  0.90840000  0.45680000  0.37830000  1.0 -0.6670741899
O  O23  1  0.40840000  0.04320000  0.62170000  1.0 -0.6670741899
O  O24  1  0.09160000  0.95680000  0.12170000  1.0 -0.6670741899
O  O25  1  0.48800000  0.63610000  0.91500000  1.0 -0.6397763592
O  O26  1  0.01200000  0.36390000  0.41500000  1.0 -0.6397763592
O  O27  1  0.51200000  0.13610000  0.58500000  1.0 -0.6397763592
O  O28  1  0.98800000  0.86390000  0.08500000  1.0 -0.6397763592
O  O29  1  0.90370000  0.88590000  0.65730000  1.0 -0.7077871797
O  O30  1  0.59630000  0.11410000  0.15730000  1.0 -0.7077871797
O  O31  1  0.09630000  0.38590000  0.84270000  1.0 -0.7077871797
O  O32  1  0.40370000  0.61410000  0.34270000  1.0 -0.7077871797
O  O33  1  0.99090000  0.72130000  0.87650000  1.0 -0.6511329086
O  O34  1  0.50910000  0.27870000  0.37650000  1.0 -0.6511329086
O  O35  1  0.00910000  0.22130000  0.62350000  1.0 -0.6511329086
O  O36  1  0.49090000  0.77870000  0.12350000  1.0 -0.6511329086
O  O37  1  0.75830000  0.70250000  0.68550000  1.0 -0.5916188521
O  O38  1  0.74170000  0.29750000  0.18550000  1.0 -0.5916188521
O  O39  1  0.24170000  0.20250000  0.81450000  1.0 -0.5916188521
O  O40  1  0.25830000  0.79750000  0.31450000  1.0 -0.5916188521
O  O41  1  0.38890000  0.82750000  0.63660000  1.0 -0.4544905959
O  O42  1  0.11110000  0.17250000  0.13660000  1.0 -0.4544905959
O  O43  1  0.61110000  0.32750000  0.86340000  1.0 -0.4544905959
O  O44  1  0.88890000  0.67250000  0.36340000  1.0 -0.4544905959
O  O45  1  0.70140000  0.94060000  0.60190000  1.0 -0.5806227041
O  O46  1  0.79860000  0.05940000  0.10190000  1.0 -0.5806227041
O  O47  1  0.29860000  0.44060000  0.89810000  1.0 -0.5806227041
O  O48  1  0.20140000  0.55940000  0.39810000  1.0 -0.5806227041
O  O49  1  0.78940000  0.81970000  0.73220000  1.0 -0.5970657034
O  O50  1  0.71060000  0.18030000  0.23220000  1.0 -0.5916188521
O  O51  1  0.21060000  0.31970000  0.76780000  1.0 -0.5970657034
O  O52  1  0.28940000  0.68030000  0.26780000  1.0 -0.5970657034
O  O53  1  0.92110000  0.84330000  0.59020000  1.0 -0.6670741899
O  O54  1  0.57890000  0.15670000  0.09020000  1.0 -0.6585288582
O  O55  1  0.07890000  0.34330000  0.90980000  1.0 -0.6670741899
O  O56  1  0.42110000  0.65670000  0.40980000  1.0 -0.6670741899
O  O57  1  0.58410000  0.87390000  0.66300000  1.0 -0.6966296439
O  O58  1  0.91590000  0.12610000  0.16300000  1.0 -0.6927922041
O  O59  1  0.41590000  0.37390000  0.83700000  1.0 -0.6966296439
O  O60  1  0.08410000  0.62610000  0.33700000  1.0 -0.6927922041
O  O61  1  0.89510000  0.79410000  0.65160000  1.0 -0.7198352082
O  O62  1  0.60490000  0.20590000  0.15160000  1.0 -0.7198352082
O  O63  1  0.10490000  0.29410000  0.84840000  1.0 -0.7198352082
O  O64  1  0.39510000  0.70590000  0.34840000  1.0 -0.7198352082
O  O65  1  0.74410000  0.95240000  0.70800000  1.0 -0.5970657034
O  O66  1  0.75590000  0.04760000  0.20800000  1.0 -0.5970657034
O  O67  1  0.25590000  0.45240000  0.79200000  1.0 -0.5970657034
O  O68  1  0.24410000  0.54760000  0.29200000  1.0 -0.5970657034
O  O69  1  0.23420000  0.78890000  0.86320000  1.0 -0.6315334195
O  O70  1  0.26580000  0.21110000  0.36320000  1.0 -0.6315334195
O  O71  1  0.76580000  0.28890000  0.63680000  1.0 -0.6315334195
O  O72  1  0.73420000  0.71110000  0.13680000  1.0 -0.6315334195
O  O73  1  0.45860000  0.70290000  0.96520000  1.0 -0.4685506163
O  O74  1  0.04140000  0.29710000  0.46520000  1.0 -0.4685506163
O  O75  1  0.54140000  0.20290000  0.53480000  1.0 -0.4685506163
O  O76  1  0.95860000  0.79710000  0.03480000  1.0 -0.4685506163
O  O77  1  0.17280000  0.69740000  0.92220000  1.0 -0.6511329086
O  O78  1  0.32720000  0.30260000  0.42220000  1.0 -0.6511329086
O  O79  1  0.82720000  0.19740000  0.57780000  1.0 -0.6511329086
O  O80  1  0.67280000  0.80260000  0.07780000  1.0 -0.6511329086
O  O81  1  0.79130000  0.74720000  0.56930000  1.0 -0.5806227041
O  O82  1  0.70870000  0.25280000  0.06930000  1.0 -0.5806227041
O  O83  1  0.20870000  0.24720000  0.93070000  1.0 -0.5806227041
O  O84  1  0.29130000  0.75280000  0.43070000  1.0 -0.5806227041
O  O85  1  0.59170000  0.78430000  0.66450000  1.0 -0.6797506931
O  O86  1  0.90830000  0.21570000  0.16450000  1.0 -0.6797506931
O  O87  1  0.40830000  0.28430000  0.83550000  1.0 -0.6797506931
O  O88  1  0.09170000  0.71570000  0.33550000  1.0 -0.6797506931
O  O89  1  0.71680000  0.86020000  0.52120000  1.0 -0.5916188521
O  O90  1  0.78320000  0.13980000  0.02120000  1.0 -0.5916188521
O  O91  1  0.28320000  0.36020000  0.97880000  1.0 -0.5916188521
O  O92  1  0.21680000  0.63980000  0.47880000  1.0 -0.5916188521
O  O93  1  0.45220000  0.72200000  0.89270000  1.0 -0.6511329086
O  O94  1  0.04780000  0.27800000  0.39270000  1.0 -0.6511329086
O  O95  1  0.54780000  0.22200000  0.60730000  1.0 -0.6511329086
O  O96  1  0.95220000  0.77800000  0.10730000  1.0 -0.6511329086
O  O97  1  0.80470000  0.76480000  0.47890000  1.0 -0.6397763592
O  O98  1  0.69530000  0.23520000  0.97890000  1.0 -0.6397763592
O  O99  1  0.19530000  0.26480000  0.02110000  1.0 -0.6315334195
O  O100  1  0.30470000  0.73520000  0.52110000  1.0 -0.6397763592
O  O101  1  0.85780000  0.71870000  0.77090000  1.0 -0.6315334195
O  O102  1  0.64220000  0.28130000  0.27090000  1.0 -0.6315334195
O  O103  1  0.14220000  0.21870000  0.72910000  1.0 -0.6315334195
O  O104  1  0.35780000  0.78130000  0.22910000  1.0 -0.6315334195
O  O105  1  0.35830000  0.53380000  0.84910000  1.0 -0.6511329086
O  O106  1  0.14170000  0.46620000  0.34910000  1.0 -0.6511329086
O  O107  1  0.64170000  0.03380000  0.65090000  1.0 -0.6511329086
O  O108  1  0.85830000  0.96620000  0.15090000  1.0 -0.6511329086
O  O109  1  0.05880000  0.66300000  0.75620000  1.0 -0.4605132298
O  O110  1  0.44120000  0.33700000  0.25620000  1.0 -0.4605132298
O  O111  1  0.94120000  0.16300000  0.74380000  1.0 -0.4605132298
O  O112  1  0.55880000  0.83700000  0.24380000  1.0 -0.4605132298
O  O113  1  0.07850000  0.49530000  0.85940000  1.0 -0.6966296439
O  O114  1  0.42150000  0.50470000  0.35940000  1.0 -0.6966296439
O  O115  1  0.92150000  0.99530000  0.64060000  1.0 -0.6966296439
O  O116  1  0.57850000  0.00470000  0.14060000  1.0 -0.6927922041
O  O117  1  0.02640000  0.74470000  0.72190000  1.0 -0.6397763592
O  O118  1  0.47360000  0.25530000  0.22190000  1.0 -0.6397763592
O  O119  1  0.97360000  0.24470000  0.77810000  1.0 -0.6397763592
O  O120  1  0.52640000  0.75530000  0.27810000  1.0 -0.6397763592
O  O121  1  0.66750000  0.69420000  0.92400000  1.0 -0.6113195357
O  O122  1  0.83250000  0.30580000  0.42400000  1.0 -0.6113195357
O  O123  1  0.33250000  0.19420000  0.57600000  1.0 -0.6113195357
O  O124  1  0.16750000  0.80580000  0.07600000  1.0 -0.6113195357
O  O125  1  0.98970000  0.80450000  0.51210000  1.0 -0.5970657034
O  O126  1  0.51030000  0.19550000  0.01210000  1.0 -0.5916188521
O  O127  1  0.01030000  0.30450000  0.98790000  1.0 -0.5916188521
O  O128  1  0.48970000  0.69550000  0.48790000  1.0 -0.5916188521
O  O129  1  0.96180000  0.73440000  0.95140000  1.0 -0.4605132298
O  O130  1  0.53820000  0.26560000  0.45140000  1.0 -0.4605132298
O  O131  1  0.03820000  0.23440000  0.54860000  1.0 -0.4605132298
O  O132  1  0.46180000  0.76560000  0.04860000  1.0 -0.4605132298
O  O133  1  0.57910000  0.74880000  0.75020000  1.0 -0.6927922041
O  O134  1  0.92090000  0.25120000  0.25020000  1.0 -0.6927922041
O  O135  1  0.42090000  0.24880000  0.74980000  1.0 -0.6927922041
O  O136  1  0.07910000  0.75120000  0.24980000  1.0 -0.6927922041
O  O137  1  0.36280000  0.70430000  0.73750000  1.0 -0.4786273701
O  O138  1  0.13720000  0.29570000  0.23750000  1.0 -0.4786273701
O  O139  1  0.63720000  0.20430000  0.76250000  1.0 -0.4786273701
O  O140  1  0.86280000  0.79570000  0.26250000  1.0 -0.4786273701
O  O141  1  0.91210000  0.55490000  0.88310000  1.0 -0.6966296439
O  O142  1  0.58790000  0.44510000  0.38310000  1.0 -0.6966296439
O  O143  1  0.08790000  0.05490000  0.61690000  1.0 -0.6966296439
O  O144  1  0.41210000  0.94510000  0.11690000  1.0 -0.6966296439
O  O145  1  0.61130000  0.82920000  0.60030000  1.0 -0.7198352082
O  O146  1  0.88870000  0.17080000  0.10030000  1.0 -0.7198352082
O  O147  1  0.38870000  0.32920000  0.89970000  1.0 -0.7198352082
O  O148  1  0.11130000  0.67080000  0.39970000  1.0 -0.7198352082
O  O149  1  0.55460000  0.55270000  0.80470000  1.0 -0.4605132298
O  O150  1  0.94540000  0.44730000  0.30470000  1.0 -0.4605132298
O  O151  1  0.44540000  0.05270000  0.69530000  1.0 -0.4605132298
O  O152  1  0.05460000  0.94730000  0.19530000  1.0 -0.4605132298
O  O153  1  0.03610000  0.72820000  0.47530000  1.0 -0.6797506931
O  O154  1  0.46390000  0.27180000  0.97530000  1.0 -0.6670741899
O  O155  1  0.96390000  0.22820000  0.02470000  1.0 -0.6797506931
O  O156  1  0.53610000  0.77180000  0.52470000  1.0 -0.6797506931
O  O157  1  0.94920000  0.65100000  0.92360000  1.0 -0.6585288582
O  O158  1  0.55080000  0.34900000  0.42360000  1.0 -0.6511329086
O  O159  1  0.05080000  0.15100000  0.57640000  1.0 -0.6511329086
O  O160  1  0.44920000  0.84900000  0.07640000  1.0 -0.6585288582
O  O161  1  0.85970000  0.50600000  0.82190000  1.0 -0.5086936181
O  O162  1  0.64030000  0.49400000  0.32190000  1.0 -0.5086936181
O  O163  1  0.14030000  0.00600000  0.67810000  1.0 -0.5086936181
O  O164  1  0.35970000  0.99400000  0.17810000  1.0 -0.5086936181
O  O165  1  0.04490000  0.56980000  0.82020000  1.0 -0.4904337166
O  O166  1  0.45510000  0.43020000  0.32020000  1.0 -0.4904337166
O  O167  1  0.95510000  0.06980000  0.67980000  1.0 -0.4904337166
O  O168  1  0.54490000  0.93020000  0.17980000  1.0 -0.4904337166
O  O169  1  0.99220000  0.80480000  0.43840000  1.0 -0.4904337166
O  O170  1  0.50780000  0.19520000  0.93840000  1.0 -0.4904337166
O  O171  1  0.00780000  0.30480000  0.06160000  1.0 -0.4904337166
O  O172  1  0.49220000  0.69520000  0.56160000  1.0 -0.4904337166
O  O173  1  0.54200000  0.66770000  0.77890000  1.0 -0.4605132298
O  O174  1  0.95800000  0.33230000  0.27890000  1.0 -0.4605132298
O  O175  1  0.45800000  0.16770000  0.72110000  1.0 -0.4605132298
O  O176  1  0.04200000  0.83230000  0.22110000  1.0 -0.4605132298
O  O177  1  0.52730000  0.47130000  0.83880000  1.0 -0.5916188521
O  O178  1  0.97270000  0.52870000  0.33880000  1.0 -0.5916188521
O  O179  1  0.47270000  0.97130000  0.66120000  1.0 -0.5916188521
O  O180  1  0.02730000  0.02870000  0.16120000  1.0 -0.5916188521
O  O181  1  0.10910000  0.83810000  0.63760000  1.0 -0.439144784
O  O182  1  0.39090000  0.16190000  0.13760000  1.0 -0.439144784
O  O183  1  0.89090000  0.33810000  0.86240000  1.0 -0.439144784
O  O184  1  0.60910000  0.66190000  0.36240000  1.0 -0.439144784
