# DDEC6 charges by PACMAN v1.1 (https://github.com/mtap-research/PACMAN-charge/)
data_KAHYEY_FSR_pacman
_symmetry_space_group_name_H-M   'P 1'
_cell_length_a   7.74400000
_cell_length_b   8.01400000
_cell_length_c   9.74000000
_cell_angle_alpha   75.90000000
_cell_angle_beta   77.68000000
_cell_angle_gamma   86.62000000
_symmetry_Int_Tables_number   1
_chemical_formula_structural   Mn2PC3O11
_chemical_formula_sum   'Mn4 P2 C6 O22'
_cell_volume   572.74068309
_cell_formula_units_Z   2
loop_
 _symmetry_equiv_pos_site_id
 _symmetry_equiv_pos_as_xyz
  1  'x, y, z'
loop_
 _atom_site_type_symbol
 _atom_site_label
 _atom_site_symmetry_multiplicity
 _atom_site_fract_x
 _atom_site_fract_y
 _atom_site_fract_z
 _atom_site_occupancy
 _atom_site_charge
Mn  Mn1  1  0.15892000  0.96804000  0.74874000  1.0 1.0920828555
Mn  Mn2  1  0.84108000  0.03196000  0.25126000  1.0 1.0952644322
Mn  Mn3  1  0.81271000  0.69078000  0.88045000  1.0 1.1158047292
Mn  Mn4  1  0.18729000  0.30922000  0.11955000  1.0 1.1158047292
P  P1  1  0.07318000  0.73268000  0.08984000  1.0 1.5291905376
P  P2  1  0.92682000  0.26732000  0.91016000  1.0 1.5291905376
C  C1  1  0.06250000  0.07660000  0.45820000  1.0 0.497131047
C  C2  1  0.93750000  0.92340000  0.54180000  1.0 0.497131047
C  C3  1  0.52040000  0.93470000  0.80080000  1.0 0.4622110698
C  C4  1  0.47960000  0.06530000  0.19920000  1.0 0.4622110698
C  C5  1  0.48170000  0.76290000  0.76670000  1.0 0.4656974647
C  C6  1  0.51830000  0.23710000  0.23330000  1.0 0.4656974647
O  O1  1  0.18350000  0.10600000  0.51440000  1.0 -0.3997190025
O  O2  1  0.81650000  0.89400000  0.48560000  1.0 -0.3997190025
O  O3  1  0.41040000  0.05460000  0.78010000  1.0 -0.3891915258
O  O4  1  0.58960000  0.94540000  0.21990000  1.0 -0.3891915258
O  O5  1  0.34660000  0.75970000  0.71700000  1.0 -0.4418721821
O  O6  1  0.65340000  0.24030000  0.28300000  1.0 -0.4418721821
O  O7  1  0.01520000  0.80470000  0.94590000  1.0 -0.7960203018
O  O8  1  0.98480000  0.19530000  0.05410000  1.0 -0.7960203018
O  O9  1  0.02830000  0.15950000  0.33910000  1.0 -0.4823352572
O  O10  1  0.97170000  0.84050000  0.66090000  1.0 -0.4823352572
O  O11  1  0.96250000  0.80610000  0.21060000  1.0 -0.752945396
O  O12  1  0.03750000  0.19390000  0.78940000  1.0 -0.752945396
O  O13  1  0.65930000  0.93950000  0.84630000  1.0 -0.3891915258
O  O14  1  0.34070000  0.06050000  0.15370000  1.0 -0.3891915258
O  O15  1  0.58670000  0.63990000  0.79290000  1.0 -0.4194142993
O  O16  1  0.41330000  0.36010000  0.20710000  1.0 -0.4194142993
O  O17  1  0.64720000  0.64710000  0.10030000  1.0 0.3184132252
O  O18  1  0.35280000  0.35290000  0.89970000  1.0 0.3011852477
O  O19  1  0.06980000  0.53940000  0.13350000  1.0 -0.7612274912
O  O20  1  0.93020000  0.46060000  0.86650000  1.0 -0.7612274912
O  O21  1  0.27250000  0.78830000  0.06670000  1.0 -0.6415907469
O  O22  1  0.72750000  0.21170000  0.93330000  1.0 -0.6415907469
