# DDEC6 charges by PACMAN v1.1 (https://github.com/mtap-research/PACMAN-charge/)
data_KAJGEL_ASR_pacman
_chemical_formula_sum              "K6 C336 H140 In16 N16 O128"
_cell_length_a       34.6918
_cell_length_b       15.1244
_cell_length_c       30.5358
_cell_angle_alpha    90
_cell_angle_beta     115.904
_cell_angle_gamma    90

_symmetry_space_group_name_H-M    "P 1"
_symmetry_Int_Tables_number       1

loop_
  _symmetry_equiv_pos_as_xyz
  'x, y, z'

loop_
  _atom_site_type_symbol
  _atom_site_label
  _atom_site_symmetry_multiplicity
  _atom_site_fract_x
  _atom_site_fract_y
  _atom_site_fract_z
  _atom_site_occupancy
 _atom_site_charge
K   K1        1.0  0.75758  0.97000  0.79446  1.0000 0.9051039515
C   C1        1.0  0.35130  0.82070  0.80910  1.0000 0.5503404909
C   C2        1.0  0.38530  0.89130  0.83060  1.0000 0.0106738489
C   C3        1.0  0.39090  0.94360  0.79760  1.0000 -0.0999868748
H   H1        1.0  0.37400  0.93700  0.76430  1.0000 0.1395974956
C   C4        1.0  0.42350  0.00840  0.81590  1.0000 -0.10807433
H   H2        1.0  0.42680  0.04790  0.79440  1.0000 0.1395974956
C   C5        1.0  0.45080  0.01410  0.86540  1.0000 -0.0413612353
C   C6        1.0  0.44450  0.95960  0.89870  1.0000 0.0706546429
C   C7        1.0  0.41080  0.89700  0.87950  1.0000 -0.1570989119
H   H3        1.0  0.40600  0.85910  0.90060  1.0000 0.1308058275
C   C8        1.0  0.48570  0.08140  0.88020  1.0000 0.5354794126
C   C9        1.0  0.47320  0.96190  0.95120  1.0000 -0.0235715051
C   C10       1.0  0.54230  0.96290  0.01280  1.0000 -0.1673788976
H   H4        1.0  0.57170  0.96250  0.02260  1.0000 0.1578101415
C   C11       1.0  0.60350  0.24330  0.86380  1.0000 0.5276971582
C   C12       1.0  0.63840  0.24520  0.84630  1.0000 0.0106738489
C   C13       1.0  0.64790  0.16930  0.82800  1.0000 -0.10807433
H   H5        1.0  0.63170  0.11860  0.82500  1.0000 0.1395974956
C   C14       1.0  0.68080  0.16670  0.81400  1.0000 -0.1190760869
H   H6        1.0  0.68620  0.11560  0.80070  1.0000 0.1213049536
C   C15       1.0  0.70520  0.24060  0.82000  1.0000 -0.0413612353
C   C16       1.0  0.69690  0.32030  0.83990  1.0000 0.052334043
C   C17       1.0  0.66260  0.31940  0.85250  1.0000 -0.1476644582
H   H7        1.0  0.65630  0.37010  0.86530  1.0000 0.1308058275
C   C18       1.0  0.73960  0.23480  0.80380  1.0000 0.5609205562
C   C19       1.0  0.72620  0.39960  0.85020  1.0000 0.1841646369
C   C20       1.0  0.71050  0.48400  0.84110  1.0000 -0.1418137726
H   H8        1.0  0.68110  0.49300  0.82590  1.0000 0.1308058275
C   C21       1.0  0.73700  0.55430  0.85370  1.0000 -0.0701023786
H   H9        1.0  0.72610  0.61140  0.84710  1.0000 0.1213049536
C   C22       1.0  0.78140  0.53970  0.87700  1.0000 0.0208466555
C   C23       1.0  0.79500  0.45320  0.88720  1.0000 0.052334043
H   H10       1.0  0.82410  0.44310  0.90570  1.0000 0.1085330656
C   C24       1.0  0.81100  0.61500  0.89510  1.0000 0.0609983381
C   C25       1.0  0.84320  0.61340  0.94270  1.0000 -0.1476644582
H   H11       1.0  0.84670  0.56250  0.96110  1.0000 0.1213049536
C   C26       1.0  0.87000  0.68420  0.96360  1.0000 -0.0105112837
C   C27       1.0  0.86530  0.76140  0.93630  1.0000 -0.0916426123
H   H12       1.0  0.88400  0.80870  0.94920  1.0000 0.1395974956
C   C28       1.0  0.83200  0.76550  0.88960  1.0000 -0.1300161917
H   H13       1.0  0.82700  0.81800  0.87210  1.0000 0.1213049536
C   C29       1.0  0.80580  0.69180  0.86840  1.0000 -0.0454285246
C   C30       1.0  0.77270  0.70730  0.81800  1.0000 0.5609205562
C   C31       1.0  0.90230  0.68420  0.01440  1.0000 0.5354794126
C   C32       1.0  0.48000  0.30940  0.82920  1.0000 0.5503404909
C   C33       1.0  0.44530  0.37230  0.80870  1.0000 -0.0701023786
C   C34       1.0  0.41300  0.36700  0.82420  1.0000 -0.0916426123
H   H14       1.0  0.41370  0.32080  0.84460  1.0000 0.1395974956
C   C35       1.0  0.38080  0.42640  0.81070  1.0000 -0.0999868748
H   H15       1.0  0.35950  0.41990  0.82120  1.0000 0.1213049536
C   C36       1.0  0.37970  0.49750  0.78120  1.0000 0.0106738489
C   C37       1.0  0.41050  0.50270  0.76390  1.0000 -0.1476644582
H   H16       1.0  0.40940  0.54820  0.74290  1.0000 0.1308058275
C   C38       1.0  0.44330  0.44000  0.77810  1.0000 0.0609983381
C   C39       1.0  0.34850  0.57170  0.77100  1.0000 0.5503404909
C   C40       1.0  0.47660  0.45140  0.76020  1.0000 0.0279665252
C   C41       1.0  0.52070  0.44590  0.79090  1.0000 -0.084400839
H   H17       1.0  0.53040  0.43480  0.82400  1.0000 0.1308058275
C   C42       1.0  0.54930  0.45700  0.77140  1.0000 -0.1476644582
H   H18       1.0  0.57850  0.45280  0.79150  1.0000 0.1308058275
C   C43       1.0  0.53520  0.47430  0.72240  1.0000 0.1897194458
C   C44       1.0  0.46460  0.47310  0.71200  1.0000 0.052334043
H   H19       1.0  0.43570  0.48370  0.69200  1.0000 0.1085330656
C   C45       1.0  0.56390  0.48540  0.69860  1.0000 0.0279665252
C   C46       1.0  0.59850  0.54550  0.71710  1.0000 -0.1570989119
H   H20       1.0  0.60420  0.57690  0.74540  1.0000 0.1308058275
C   C47       1.0  0.62440  0.55800  0.69240  1.0000 0.0106738489
C   C48       1.0  0.61630  0.51150  0.65060  1.0000 -0.0999868748
H   H21       1.0  0.63400  0.51860  0.63510  1.0000 0.1395974956
C   C49       1.0  0.58190  0.45430  0.63140  1.0000 -0.1190760869
H   H22       1.0  0.57520  0.42600  0.60200  1.0000 0.1213049536
C   C50       1.0  0.55710  0.43910  0.65630  1.0000 -0.0279862583
C   C51       1.0  0.52230  0.37110  0.63530  1.0000 0.5609205562
C   C52       1.0  0.65990  0.62720  0.71040  1.0000 0.5354794126
C   C53       1.0  0.66610  0.87460  0.68030  1.0000 0.5503404909
C   C54       1.0  0.63420  0.94610  0.65970  1.0000 -0.0105112837
C   C55       1.0  0.60190  0.93920  0.61220  1.0000 -0.1418137726
H   H23       1.0  0.60220  0.89350  0.59200  1.0000 0.1308058275
C   C56       1.0  0.56940  0.00130  0.59570  1.0000 0.0208466555
C   C57       1.0  0.56980  0.07160  0.62500  1.0000 -0.0105112837
C   C58       1.0  0.60260  0.08020  0.67100  1.0000 -0.0999868748
H   H24       1.0  0.60310  0.12760  0.69060  1.0000 0.1395974956
C   C59       1.0  0.63480  0.01780  0.68780  1.0000 -0.0999868748
H   H25       1.0  0.65730  0.02430  0.71870  1.0000 0.1213049536
C   C60       1.0  0.53310  0.13830  0.60680  1.0000 0.5609205562
C   C61       1.0  0.53390  0.99420  0.54560  1.0000 0.1897194458
C   C62       1.0  0.54050  0.99190  0.50360  1.0000 -0.1570989119
H   H26       1.0  0.56830  0.98880  0.50670  1.0000 0.1578101415
C   C63       1.0  0.41420  0.26940  0.63700  1.0000 0.5503404909
C   C64       1.0  0.38220  0.27550  0.65670  1.0000 -0.0105112837
C   C65       1.0  0.38340  0.21560  0.69150  1.0000 -0.084400839
H   H27       1.0  0.40530  0.17400  0.70420  1.0000 0.1395974956
C   C66       1.0  0.35110  0.21900  0.70710  1.0000 -0.10807433
H   H28       1.0  0.35110  0.17870  0.73010  1.0000 0.1395974956
C   C67       1.0  0.31940  0.28170  0.68850  1.0000 -0.0235715051
C   C68       1.0  0.31820  0.34450  0.65530  1.0000 0.0279665252
C   C69       1.0  0.35110  0.34230  0.63970  1.0000 -0.1300161917
H   H29       1.0  0.35200  0.38490  0.61820  1.0000 0.1308058275
C   C70       1.0  0.28330  0.27900  0.70410  1.0000 0.5276971582
C   C71       1.0  0.28370  0.41090  0.63660  1.0000 0.1699643332
C   C72       1.0  0.24240  0.38810  0.61470  1.0000 -0.1476644582
H   H30       1.0  0.23510  0.32860  0.60910  1.0000 0.1395974956
C   C73       1.0  0.21070  0.44940  0.60030  1.0000 -0.0916426123
H   H31       1.0  0.18200  0.43250  0.58600  1.0000 0.1213049536
C   C74       1.0  0.22200  0.53820  0.60760  1.0000 0.0279665252
C   C75       1.0  0.26290  0.56160  0.62730  1.0000 0.0208466555
H   H32       1.0  0.27000  0.62130  0.63120  1.0000 0.1213049536
C   C76       1.0  0.18790  0.60740  0.59640  1.0000 0.0609983381
C   C77       1.0  0.15420  0.61250  0.55090  1.0000 -0.1570989119
H   H33       1.0  0.15150  0.57090  0.52730  1.0000 0.1308058275
C   C78       1.0  0.12370  0.68020  0.53990  1.0000 0.0019739478
C   C79       1.0  0.12660  0.73800  0.57570  1.0000 -0.0999868748
H   H34       1.0  0.10600  0.78180  0.56890  1.0000 0.1213049536
C   C80       1.0  0.16020  0.73140  0.62200  1.0000 -0.0999868748
H   H35       1.0  0.16180  0.76960  0.64670  1.0000 0.1395974956
C   C81       1.0  0.19110  0.66730  0.63100  1.0000 -0.0279862583
C   C82       1.0  0.22920  0.66840  0.68170  1.0000 0.5354794126
C   C83       1.0  0.08990  0.69210  0.48850  1.0000 0.5503404909
In  In1       1.0  0.54470  0.20153  0.89381  1.0000 1.3500418115
In  In2       1.0  0.29447  0.69761  0.76679  1.0000 1.3500418115
In  In3       1.0  0.71897  0.74573  0.72691  1.0000 1.3428921002
In  In4       1.0  0.46706  0.24300  0.59808  1.0000 1.3668931324
N   N1        1.0  0.50810  0.99390  0.45980  1.0000 -0.0105112837
N   N2        1.0  0.49220  0.47950  0.69310  1.0000 -0.2047530265
N   N3        1.0  0.29520  0.49940  0.64240  1.0000 -0.2614792984
N   N4        1.0  0.76970  0.38430  0.87250  1.0000 -0.242687824
N   N5        1.0  0.51660  0.96440  0.96620  1.0000 0.0106738489
O   O1        1.0  0.35010  0.75850  0.83600  1.0000 -0.522625975
O   O2        1.0  0.32708  0.82270  0.76490  1.0000 -0.4907376028
O   O3        1.0  0.51060  0.08010  0.85940  1.0000 -0.4986192398
O   O4        1.0  0.48980  0.13840  0.90930  1.0000 -0.4735009324
O   O5        1.0  0.58210  0.17360  0.85610  1.0000 -0.4907376028
O   O6        1.0  0.59750  0.30520  0.88370  1.0000 -0.479422358
O   O7        1.0  0.76320  0.16460  0.81480  1.0000 -0.5946331721
O   O8        1.0  0.74370  0.28960  0.77680  1.0000 -0.479422358
O   O9        1.0  0.90596  0.62140  0.04160  1.0000 -0.4986192398
O   O10       1.0  0.92579  0.75110  0.03220  1.0000 -0.4986192398
O   O11       1.0  0.76800  0.64740  0.78630  1.0000 -0.522625975
O   O12       1.0  0.75020  0.77480  0.80530  1.0000 -0.5588532787
O   O13       1.0  0.68508  0.62580  0.69140  1.0000 -0.4907376028
O   O14       1.0  0.66326  0.68240  0.74140  1.0000 -0.5105124396
O   O15       1.0  0.49779  0.36930  0.59020  1.0000 -0.5793973681
O   O16       1.0  0.51848  0.31350  0.66300  1.0000 -0.5105124396
O   O17       1.0  0.48390  0.24740  0.80430  1.0000 -0.4986192398
O   O18       1.0  0.50340  0.31150  0.87370  1.0000 -0.4907376028
O   O19       1.0  0.32290  0.56830  0.79250  1.0000 -0.6248407465
O   O20       1.0  0.34549  0.63190  0.74320  1.0000 -0.479422358
O   O21       1.0  0.23360  0.61340  0.71130  1.0000 -0.4986192398
O   O22       1.0  0.25589  0.73430  0.69080  1.0000 -0.5105124396
O   O23       1.0  0.06398  0.75800  0.48085  1.0000 -0.6060708266
O   O24       1.0  0.08784  0.64520  0.45460  1.0000 -0.4986192398
O   O25       1.0  0.27850  0.33320  0.72940  1.0000 -0.4907376028
O   O26       1.0  0.25800  0.21570  0.68940  1.0000 -0.4598275598
O   O27       1.0  0.41447  0.32110  0.60490  1.0000 -0.522625975
O   O28       1.0  0.44026  0.20490  0.65000  1.0000 -0.5105124396
O   O29       1.0  0.69129  0.87570  0.72510  1.0000 -0.5793973681
O   O30       1.0  0.66799  0.81140  0.65490  1.0000 -0.5105124396
O   O31       1.0  0.53000  0.19880  0.57840  1.0000 -0.5746563178
O   O32       1.0  0.50790  0.12990  0.62590  1.0000 -0.4907376028
C   C84       1.0  0.48340  0.96440  0.03380  1.0000 -0.1786793571
C   C85       1.0  0.49190  0.99390  0.54020  1.0000 -0.242687824
K   K2        1.0  0.25758  0.47000  0.79446  1.0000 0.9051039515
C   C86       1.0  0.85130  0.32070  0.80910  1.0000 0.5503404909
C   C87       1.0  0.88530  0.39130  0.83060  1.0000 0.0106738489
C   C88       1.0  0.89090  0.44360  0.79760  1.0000 -0.0999868748
H   H36       1.0  0.87400  0.43700  0.76430  1.0000 0.1395974956
C   C89       1.0  0.92350  0.50840  0.81590  1.0000 -0.10807433
H   H37       1.0  0.92680  0.54790  0.79440  1.0000 0.1395974956
C   C90       1.0  0.95080  0.51410  0.86540  1.0000 -0.0413612353
C   C91       1.0  0.94450  0.45960  0.89870  1.0000 0.0706546429
C   C92       1.0  0.91080  0.39700  0.87950  1.0000 -0.1570989119
H   H38       1.0  0.90600  0.35910  0.90060  1.0000 0.1308058275
C   C93       1.0  0.98570  0.58140  0.88020  1.0000 0.5354794126
C   C94       1.0  0.97320  0.46190  0.95120  1.0000 -0.0235715051
C   C95       1.0  0.04230  0.46290  0.01280  1.0000 -0.1673788976
H   H39       1.0  0.07170  0.46250  0.02260  1.0000 0.1578101415
C   C96       1.0  0.10350  0.74330  0.86380  1.0000 0.5276971582
C   C97       1.0  0.13840  0.74520  0.84630  1.0000 0.0106738489
C   C98       1.0  0.14790  0.66930  0.82800  1.0000 -0.10807433
H   H40       1.0  0.13170  0.61860  0.82500  1.0000 0.1395974956
C   C99       1.0  0.18080  0.66670  0.81400  1.0000 -0.1190760869
H   H41       1.0  0.18620  0.61560  0.80070  1.0000 0.1213049536
C   C100      1.0  0.20520  0.74060  0.82000  1.0000 -0.0413612353
C   C101      1.0  0.19690  0.82030  0.83990  1.0000 0.052334043
C   C102      1.0  0.16260  0.81940  0.85250  1.0000 -0.1476644582
H   H42       1.0  0.15630  0.87010  0.86530  1.0000 0.1308058275
C   C103      1.0  0.23960  0.73480  0.80380  1.0000 0.5609205562
C   C104      1.0  0.22620  0.89960  0.85020  1.0000 0.1841646369
C   C105      1.0  0.21050  0.98400  0.84110  1.0000 -0.1418137726
H   H43       1.0  0.18110  0.99300  0.82590  1.0000 0.1308058275
C   C106      1.0  0.23700  0.05430  0.85370  1.0000 -0.0701023786
H   H44       1.0  0.22610  0.11140  0.84710  1.0000 0.1213049536
C   C107      1.0  0.28140  0.03970  0.87700  1.0000 0.0208466555
C   C108      1.0  0.29500  0.95320  0.88720  1.0000 0.052334043
H   H45       1.0  0.32410  0.94310  0.90570  1.0000 0.1085330656
C   C109      1.0  0.31100  0.11500  0.89510  1.0000 0.0609983381
C   C110      1.0  0.34320  0.11340  0.94270  1.0000 -0.1476644582
H   H46       1.0  0.34670  0.06250  0.96110  1.0000 0.1213049536
C   C111      1.0  0.37000  0.18420  0.96360  1.0000 -0.0105112837
C   C112      1.0  0.36530  0.26140  0.93630  1.0000 -0.0916426123
H   H47       1.0  0.38400  0.30870  0.94920  1.0000 0.1395974956
C   C113      1.0  0.33200  0.26550  0.88960  1.0000 -0.1300161917
H   H48       1.0  0.32700  0.31800  0.87210  1.0000 0.1213049536
C   C114      1.0  0.30580  0.19180  0.86840  1.0000 -0.0454285246
C   C115      1.0  0.27270  0.20730  0.81800  1.0000 0.5609205562
C   C116      1.0  0.40230  0.18420  0.01440  1.0000 0.5354794126
C   C117      1.0  0.98000  0.80940  0.82920  1.0000 0.5503404909
C   C118      1.0  0.94530  0.87230  0.80870  1.0000 -0.0701023786
C   C119      1.0  0.91300  0.86700  0.82420  1.0000 -0.0916426123
H   H49       1.0  0.91370  0.82080  0.84460  1.0000 0.1395974956
C   C120      1.0  0.88080  0.92640  0.81070  1.0000 -0.0999868748
H   H50       1.0  0.85950  0.91990  0.82120  1.0000 0.1213049536
C   C121      1.0  0.87970  0.99750  0.78120  1.0000 0.0106738489
C   C122      1.0  0.91050  0.00270  0.76390  1.0000 -0.1476644582
H   H51       1.0  0.90940  0.04820  0.74290  1.0000 0.1308058275
C   C123      1.0  0.94330  0.94000  0.77810  1.0000 0.0609983381
C   C124      1.0  0.84850  0.07170  0.77100  1.0000 0.5503404909
C   C125      1.0  0.97660  0.95140  0.76020  1.0000 0.0279665252
C   C126      1.0  0.02070  0.94590  0.79090  1.0000 -0.084400839
H   H52       1.0  0.03040  0.93480  0.82400  1.0000 0.1308058275
C   C127      1.0  0.04930  0.95700  0.77140  1.0000 -0.1476644582
H   H53       1.0  0.07850  0.95280  0.79150  1.0000 0.1308058275
C   C128      1.0  0.03520  0.97430  0.72240  1.0000 0.1897194458
C   C129      1.0  0.96460  0.97310  0.71200  1.0000 0.052334043
H   H54       1.0  0.93570  0.98370  0.69200  1.0000 0.1085330656
C   C130      1.0  0.06390  0.98540  0.69860  1.0000 0.0279665252
C   C131      1.0  0.09850  0.04550  0.71710  1.0000 -0.1570989119
H   H55       1.0  0.10420  0.07690  0.74540  1.0000 0.1308058275
C   C132      1.0  0.12440  0.05800  0.69240  1.0000 0.0106738489
C   C133      1.0  0.11630  0.01150  0.65060  1.0000 -0.0999868748
H   H56       1.0  0.13400  0.01860  0.63510  1.0000 0.1395974956
C   C134      1.0  0.08190  0.95430  0.63140  1.0000 -0.1190760869
H   H57       1.0  0.07520  0.92600  0.60200  1.0000 0.1213049536
C   C135      1.0  0.05710  0.93910  0.65630  1.0000 -0.0279862583
C   C136      1.0  0.02230  0.87110  0.63530  1.0000 0.5609205562
C   C137      1.0  0.15990  0.12720  0.71040  1.0000 0.5354794126
C   C138      1.0  0.16610  0.37460  0.68030  1.0000 0.5503404909
C   C139      1.0  0.13420  0.44610  0.65970  1.0000 -0.0105112837
C   C140      1.0  0.10190  0.43920  0.61220  1.0000 -0.1418137726
H   H58       1.0  0.10220  0.39350  0.59200  1.0000 0.1308058275
C   C141      1.0  0.06940  0.50130  0.59570  1.0000 0.0208466555
C   C142      1.0  0.06980  0.57160  0.62500  1.0000 -0.0105112837
C   C143      1.0  0.10260  0.58020  0.67100  1.0000 -0.0999868748
H   H59       1.0  0.10310  0.62760  0.69060  1.0000 0.1395974956
C   C144      1.0  0.13480  0.51780  0.68780  1.0000 -0.0999868748
H   H60       1.0  0.15730  0.52430  0.71870  1.0000 0.1213049536
C   C145      1.0  0.03310  0.63830  0.60680  1.0000 0.5609205562
C   C146      1.0  0.03390  0.49420  0.54560  1.0000 0.1897194458
C   C147      1.0  0.04050  0.49190  0.50360  1.0000 -0.1570989119
H   H61       1.0  0.06830  0.48880  0.50670  1.0000 0.1578101415
C   C148      1.0  0.91420  0.76940  0.63700  1.0000 0.5503404909
C   C149      1.0  0.88220  0.77550  0.65670  1.0000 -0.0105112837
C   C150      1.0  0.88340  0.71560  0.69150  1.0000 -0.084400839
H   H62       1.0  0.90530  0.67400  0.70420  1.0000 0.1395974956
C   C151      1.0  0.85110  0.71900  0.70710  1.0000 -0.10807433
H   H63       1.0  0.85110  0.67870  0.73010  1.0000 0.1395974956
C   C152      1.0  0.81940  0.78170  0.68850  1.0000 -0.0235715051
C   C153      1.0  0.81820  0.84450  0.65530  1.0000 0.0279665252
C   C154      1.0  0.85110  0.84230  0.63970  1.0000 -0.1300161917
H   H64       1.0  0.85200  0.88490  0.61820  1.0000 0.1308058275
C   C155      1.0  0.78330  0.77900  0.70410  1.0000 0.5276971582
C   C156      1.0  0.78370  0.91090  0.63660  1.0000 0.1699643332
C   C157      1.0  0.74240  0.88810  0.61470  1.0000 -0.1476644582
H   H65       1.0  0.73510  0.82860  0.60910  1.0000 0.1395974956
C   C158      1.0  0.71070  0.94940  0.60030  1.0000 -0.0916426123
H   H66       1.0  0.68200  0.93250  0.58600  1.0000 0.1213049536
C   C159      1.0  0.72200  0.03820  0.60760  1.0000 0.0279665252
C   C160      1.0  0.76290  0.06160  0.62730  1.0000 0.0208466555
H   H67       1.0  0.77000  0.12130  0.63120  1.0000 0.1213049536
C   C161      1.0  0.68790  0.10740  0.59640  1.0000 0.0609983381
C   C162      1.0  0.65420  0.11250  0.55090  1.0000 -0.1570989119
H   H68       1.0  0.65150  0.07090  0.52730  1.0000 0.1308058275
C   C163      1.0  0.62370  0.18020  0.53990  1.0000 0.0019739478
C   C164      1.0  0.62660  0.23800  0.57570  1.0000 -0.0999868748
H   H69       1.0  0.60600  0.28180  0.56890  1.0000 0.1213049536
C   C165      1.0  0.66020  0.23140  0.62200  1.0000 -0.0999868748
H   H70       1.0  0.66180  0.26960  0.64670  1.0000 0.1395974956
C   C166      1.0  0.69110  0.16730  0.63100  1.0000 -0.0279862583
C   C167      1.0  0.72920  0.16840  0.68170  1.0000 0.5354794126
C   C168      1.0  0.58990  0.19210  0.48850  1.0000 0.5503404909
In  In5       1.0  0.04470  0.70153  0.89381  1.0000 1.3500418115
In  In6       1.0  0.79447  0.19761  0.76679  1.0000 1.3500418115
In  In7       1.0  0.21897  0.24573  0.72691  1.0000 1.3428921002
In  In8       1.0  0.96706  0.74300  0.59808  1.0000 1.3668931324
N   N6        1.0  0.00810  0.49390  0.45980  1.0000 -0.0105112837
N   N7        1.0  0.99220  0.97950  0.69310  1.0000 -0.2066984278
N   N8        1.0  0.79520  0.99940  0.64240  1.0000 -0.2614792984
N   N9        1.0  0.26970  0.88430  0.87250  1.0000 -0.242687824
N   N10       1.0  0.01660  0.46440  0.96620  1.0000 0.0106738489
O   O33       1.0  0.85010  0.25850  0.83600  1.0000 -0.522625975
O   O34       1.0  0.82708  0.32270  0.76490  1.0000 -0.4907376028
O   O35       1.0  0.01060  0.58010  0.85940  1.0000 -0.4986192398
O   O36       1.0  0.98980  0.63840  0.90930  1.0000 -0.4735009324
O   O37       1.0  0.08210  0.67360  0.85610  1.0000 -0.4907376028
O   O38       1.0  0.09750  0.80520  0.88370  1.0000 -0.479422358
O   O39       1.0  0.26320  0.66460  0.81480  1.0000 -0.5946331721
O   O40       1.0  0.24370  0.78960  0.77680  1.0000 -0.479422358
O   O41       1.0  0.40596  0.12140  0.04160  1.0000 -0.4986192398
O   O42       1.0  0.42579  0.25110  0.03220  1.0000 -0.4986192398
O   O43       1.0  0.26800  0.14740  0.78630  1.0000 -0.522625975
O   O44       1.0  0.25020  0.27480  0.80530  1.0000 -0.5588532787
O   O45       1.0  0.18508  0.12580  0.69140  1.0000 -0.4907376028
O   O46       1.0  0.16326  0.18240  0.74140  1.0000 -0.5105124396
O   O47       1.0  0.99779  0.86930  0.59020  1.0000 -0.5793973681
O   O48       1.0  0.01848  0.81350  0.66300  1.0000 -0.5105124396
O   O49       1.0  0.98390  0.74740  0.80430  1.0000 -0.4986192398
O   O50       1.0  0.00340  0.81150  0.87370  1.0000 -0.4907376028
O   O51       1.0  0.82290  0.06830  0.79250  1.0000 -0.6248407465
O   O52       1.0  0.84549  0.13190  0.74320  1.0000 -0.479422358
O   O53       1.0  0.73360  0.11340  0.71130  1.0000 -0.4986192398
O   O54       1.0  0.75589  0.23430  0.69080  1.0000 -0.5105124396
O   O55       1.0  0.56398  0.25800  0.48085  1.0000 -0.6060708266
O   O56       1.0  0.58784  0.14520  0.45460  1.0000 -0.4986192398
O   O57       1.0  0.77850  0.83320  0.72940  1.0000 -0.4907376028
O   O58       1.0  0.75800  0.71570  0.68940  1.0000 -0.4598275598
O   O59       1.0  0.91447  0.82110  0.60490  1.0000 -0.522625975
O   O60       1.0  0.94026  0.70490  0.65000  1.0000 -0.5105124396
O   O61       1.0  0.19129  0.37570  0.72510  1.0000 -0.5793973681
O   O62       1.0  0.16799  0.31140  0.65490  1.0000 -0.5105124396
O   O63       1.0  0.03000  0.69880  0.57840  1.0000 -0.5746563178
O   O64       1.0  0.00790  0.62990  0.62590  1.0000 -0.4907376028
C   C169      1.0  0.98340  0.46440  0.03380  1.0000 -0.1786793571
C   C170      1.0  0.99190  0.49390  0.54020  1.0000 -0.242687824
K   K3        1.0  0.24242  0.97000  0.20554  1.0000 0.9051039515
C   C171      1.0  0.64870  0.82070  0.19090  1.0000 0.5503404909
C   C172      1.0  0.61470  0.89130  0.16940  1.0000 0.0106738489
C   C173      1.0  0.60910  0.94360  0.20240  1.0000 -0.0916426123
H   H71       1.0  0.62600  0.93700  0.23570  1.0000 0.1395974956
C   C174      1.0  0.57650  0.00840  0.18410  1.0000 -0.10807433
H   H72       1.0  0.57320  0.04790  0.20560  1.0000 0.1395974956
C   C175      1.0  0.54920  0.01410  0.13460  1.0000 -0.0105112837
C   C176      1.0  0.55550  0.95960  0.10130  1.0000 0.0106738489
C   C177      1.0  0.58920  0.89700  0.12050  1.0000 -0.1476644582
H   H73       1.0  0.59400  0.85910  0.09940  1.0000 0.1308058275
C   C178      1.0  0.51430  0.08140  0.11980  1.0000 0.5354794126
C   C179      1.0  0.52680  0.96190  0.04880  1.0000 0.2047794956
C   C180      1.0  0.45770  0.96290  0.98720  1.0000 0.0706546429
H   H74       1.0  0.42830  0.96250  0.97740  1.0000 0.1085330656
C   C181      1.0  0.39650  0.24330  0.13620  1.0000 0.5276971582
C   C182      1.0  0.36160  0.24520  0.15370  1.0000 0.0106738489
C   C183      1.0  0.35210  0.16930  0.17200  1.0000 -0.10807433
H   H75       1.0  0.36830  0.11860  0.17500  1.0000 0.1395974956
C   C184      1.0  0.31920  0.16670  0.18600  1.0000 -0.1190760869
H   H76       1.0  0.31380  0.11560  0.19930  1.0000 0.1213049536
C   C185      1.0  0.29480  0.24060  0.18000  1.0000 -0.0413612353
C   C186      1.0  0.30310  0.32030  0.16010  1.0000 0.052334043
C   C187      1.0  0.33740  0.31940  0.14750  1.0000 -0.1476644582
H   H77       1.0  0.34370  0.37010  0.13470  1.0000 0.1308058275
C   C188      1.0  0.26040  0.23480  0.19620  1.0000 0.5609205562
C   C189      1.0  0.27380  0.39960  0.14980  1.0000 0.1841646369
C   C190      1.0  0.28950  0.48400  0.15890  1.0000 -0.1418137726
H   H78       1.0  0.31890  0.49300  0.17410  1.0000 0.1308058275
C   C191      1.0  0.26300  0.55430  0.14630  1.0000 -0.0701023786
H   H79       1.0  0.27390  0.61140  0.15290  1.0000 0.1308058275
C   C192      1.0  0.21860  0.53970  0.12300  1.0000 0.0208466555
C   C193      1.0  0.20500  0.45320  0.11280  1.0000 0.052334043
H   H80       1.0  0.17590  0.44310  0.09430  1.0000 0.1085330656
C   C194      1.0  0.18900  0.61500  0.10490  1.0000 0.0609983381
C   C195      1.0  0.15680  0.61340  0.05730  1.0000 -0.1418137726
H   H81       1.0  0.15330  0.56250  0.03890  1.0000 0.1213049536
C   C196      1.0  0.13000  0.68420  0.03640  1.0000 -0.0105112837
C   C197      1.0  0.13470  0.76140  0.06370  1.0000 -0.0916426123
H   H82       1.0  0.11600  0.80870  0.05080  1.0000 0.1395974956
C   C198      1.0  0.16800  0.76550  0.11040  1.0000 -0.1300161917
H   H83       1.0  0.17300  0.81800  0.12790  1.0000 0.1213049536
C   C199      1.0  0.19420  0.69180  0.13160  1.0000 -0.0454285246
C   C200      1.0  0.22730  0.70730  0.18200  1.0000 0.5609205562
C   C201      1.0  0.09770  0.68420  0.98560  1.0000 0.5354794126
C   C202      1.0  0.52000  0.30940  0.17080  1.0000 0.5503404909
C   C203      1.0  0.55470  0.37230  0.19130  1.0000 -0.0701023786
C   C204      1.0  0.58700  0.36700  0.17580  1.0000 -0.0916426123
H   H84       1.0  0.58630  0.32080  0.15540  1.0000 0.1395974956
C   C205      1.0  0.61920  0.42640  0.18930  1.0000 -0.0999868748
H   H85       1.0  0.64050  0.41990  0.17880  1.0000 0.1213049536
C   C206      1.0  0.62030  0.49750  0.21880  1.0000 0.0106738489
C   C207      1.0  0.58950  0.50270  0.23610  1.0000 -0.1476644582
H   H86       1.0  0.59060  0.54820  0.25710  1.0000 0.1308058275
C   C208      1.0  0.55670  0.44000  0.22190  1.0000 0.0609983381
C   C209      1.0  0.65150  0.57170  0.22900  1.0000 0.5503404909
C   C210      1.0  0.52340  0.45140  0.23980  1.0000 0.0279665252
C   C211      1.0  0.47930  0.44590  0.20910  1.0000 -0.084400839
H   H87       1.0  0.46960  0.43480  0.17600  1.0000 0.1308058275
C   C212      1.0  0.45070  0.45700  0.22860  1.0000 -0.1476644582
H   H88       1.0  0.42150  0.45280  0.20850  1.0000 0.1308058275
C   C213      1.0  0.46480  0.47430  0.27760  1.0000 0.1897194458
C   C214      1.0  0.53540  0.47310  0.28800  1.0000 0.052334043
H   H89       1.0  0.56430  0.48370  0.30800  1.0000 0.1085330656
C   C215      1.0  0.43610  0.48540  0.30140  1.0000 0.0279665252
C   C216      1.0  0.40150  0.54550  0.28290  1.0000 -0.1570989119
H   H90       1.0  0.39580  0.57690  0.25460  1.0000 0.1308058275
C   C217      1.0  0.37560  0.55800  0.30760  1.0000 0.0106738489
C   C218      1.0  0.38370  0.51150  0.34940  1.0000 -0.0999868748
H   H91       1.0  0.36600  0.51860  0.36490  1.0000 0.1395974956
C   C219      1.0  0.41810  0.45430  0.36860  1.0000 -0.1190760869
H   H92       1.0  0.42480  0.42600  0.39800  1.0000 0.1213049536
C   C220      1.0  0.44290  0.43910  0.34370  1.0000 -0.0279862583
C   C221      1.0  0.47770  0.37110  0.36470  1.0000 0.5609205562
C   C222      1.0  0.34010  0.62720  0.28960  1.0000 0.5354794126
C   C223      1.0  0.33390  0.87460  0.31970  1.0000 0.5503404909
C   C224      1.0  0.36580  0.94610  0.34030  1.0000 -0.0105112837
C   C225      1.0  0.39810  0.93920  0.38780  1.0000 -0.1476644582
H   H93       1.0  0.39780  0.89350  0.40800  1.0000 0.1308058275
C   C226      1.0  0.43060  0.00130  0.40430  1.0000 0.0609983381
C   C227      1.0  0.43020  0.07160  0.37500  1.0000 -0.0279862583
C   C228      1.0  0.39740  0.08020  0.32900  1.0000 -0.0999868748
H   H94       1.0  0.39690  0.12760  0.30940  1.0000 0.1395974956
C   C229      1.0  0.36520  0.01780  0.31220  1.0000 -0.0999868748
H   H95       1.0  0.34270  0.02430  0.28130  1.0000 0.1213049536
C   C230      1.0  0.46690  0.13830  0.39320  1.0000 0.5609205562
C   C231      1.0  0.46610  0.99420  0.45440  1.0000 -0.0105112837
C   C232      1.0  0.45950  0.99190  0.49640  1.0000 0.0706546429
H   H96       1.0  0.43170  0.98880  0.49330  1.0000 0.1085330656
C   C233      1.0  0.58580  0.26940  0.36300  1.0000 0.5503404909
C   C234      1.0  0.61780  0.27550  0.34330  1.0000 -0.0105112837
C   C235      1.0  0.61660  0.21560  0.30850  1.0000 -0.084400839
H   H97       1.0  0.59470  0.17400  0.29580  1.0000 0.1395974956
C   C236      1.0  0.64890  0.21900  0.29290  1.0000 -0.10807433
H   H98       1.0  0.64890  0.17870  0.26990  1.0000 0.1395974956
C   C237      1.0  0.68060  0.28170  0.31150  1.0000 -0.0235715051
C   C238      1.0  0.68180  0.34450  0.34470  1.0000 0.0279665252
C   C239      1.0  0.64890  0.34230  0.36030  1.0000 -0.1300161917
H   H99       1.0  0.64800  0.38490  0.38180  1.0000 0.1308058275
C   C240      1.0  0.71670  0.27900  0.29590  1.0000 0.5276971582
C   C241      1.0  0.71630  0.41090  0.36340  1.0000 0.1699643332
C   C242      1.0  0.75760  0.38810  0.38530  1.0000 -0.1476644582
H   H100      1.0  0.76490  0.32860  0.39090  1.0000 0.1395974956
C   C243      1.0  0.78930  0.44940  0.39970  1.0000 -0.0916426123
H   H101      1.0  0.81800  0.43250  0.41400  1.0000 0.1213049536
C   C244      1.0  0.77800  0.53820  0.39240  1.0000 0.0279665252
C   C245      1.0  0.73710  0.56160  0.37270  1.0000 0.0208466555
H   H102      1.0  0.73000  0.62130  0.36880  1.0000 0.1213049536
C   C246      1.0  0.81210  0.60740  0.40360  1.0000 0.0609983381
C   C247      1.0  0.84580  0.61250  0.44910  1.0000 -0.1570989119
H   H103      1.0  0.84850  0.57090  0.47270  1.0000 0.1308058275
C   C248      1.0  0.87630  0.68020  0.46010  1.0000 0.0019739478
C   C249      1.0  0.87340  0.73800  0.42430  1.0000 -0.0999868748
H   H104      1.0  0.89400  0.78180  0.43110  1.0000 0.1213049536
C   C250      1.0  0.83980  0.73140  0.37800  1.0000 -0.0999868748
H   H105      1.0  0.83820  0.76960  0.35330  1.0000 0.1395974956
C   C251      1.0  0.80890  0.66730  0.36900  1.0000 -0.0279862583
C   C252      1.0  0.77080  0.66840  0.31830  1.0000 0.5354794126
C   C253      1.0  0.91010  0.69210  0.51150  1.0000 0.5503404909
In  In9       1.0  0.45530  0.20153  0.10619  1.0000 1.3500418115
In  In10      1.0  0.70553  0.69761  0.23321  1.0000 1.3500418115
In  In11      1.0  0.28103  0.74573  0.27309  1.0000 1.3428921002
In  In12      1.0  0.53294  0.24300  0.40192  1.0000 1.3668931324
N   N11       1.0  0.50780  0.47950  0.30690  1.0000 -0.2047530265
N   N12       1.0  0.70480  0.49940  0.35760  1.0000 -0.2614792984
N   N13       1.0  0.23030  0.38430  0.12750  1.0000 -0.242687824
O   O65       1.0  0.64990  0.75850  0.16400  1.0000 -0.526051889
O   O66       1.0  0.67292  0.82270  0.23510  1.0000 -0.4907376028
O   O67       1.0  0.48940  0.08010  0.14060  1.0000 -0.4986192398
O   O68       1.0  0.51020  0.13840  0.09070  1.0000 -0.479422358
O   O69       1.0  0.41790  0.17360  0.14390  1.0000 -0.4907376028
O   O70       1.0  0.40250  0.30520  0.11630  1.0000 -0.479422358
O   O71       1.0  0.23680  0.16460  0.18520  1.0000 -0.5946331721
O   O72       1.0  0.25630  0.28960  0.22320  1.0000 -0.479422358
O   O73       1.0  0.09404  0.62140  0.95840  1.0000 -0.4986192398
O   O74       1.0  0.07421  0.75110  0.96780  1.0000 -0.4986192398
O   O75       1.0  0.23200  0.64740  0.21370  1.0000 -0.522625975
O   O76       1.0  0.24980  0.77480  0.19470  1.0000 -0.5588532787
O   O77       1.0  0.31492  0.62580  0.30860  1.0000 -0.4907376028
O   O78       1.0  0.33674  0.68240  0.25860  1.0000 -0.5105124396
O   O79       1.0  0.50221  0.36930  0.40980  1.0000 -0.5793973681
O   O80       1.0  0.48152  0.31350  0.33700  1.0000 -0.5105124396
O   O81       1.0  0.51610  0.24740  0.19570  1.0000 -0.4986192398
O   O82       1.0  0.49660  0.31150  0.12630  1.0000 -0.4907376028
O   O83       1.0  0.67710  0.56830  0.20750  1.0000 -0.6255970102
O   O84       1.0  0.65451  0.63190  0.25680  1.0000 -0.479422358
O   O85       1.0  0.76640  0.61340  0.28870  1.0000 -0.4986192398
O   O86       1.0  0.74411  0.73430  0.30920  1.0000 -0.5105124396
O   O87       1.0  0.93602  0.75800  0.51915  1.0000 -0.6044484776
O   O88       1.0  0.91216  0.64520  0.54540  1.0000 -0.4986192398
O   O89       1.0  0.72150  0.33320  0.27060  1.0000 -0.4907376028
O   O90       1.0  0.74200  0.21570  0.31060  1.0000 -0.4598275598
O   O91       1.0  0.58553  0.32110  0.39510  1.0000 -0.522625975
O   O92       1.0  0.55974  0.20490  0.35000  1.0000 -0.5105124396
O   O93       1.0  0.30871  0.87570  0.27490  1.0000 -0.5793973681
O   O94       1.0  0.33201  0.81140  0.34510  1.0000 -0.5105124396
O   O95       1.0  0.47000  0.19880  0.42160  1.0000 -0.5746563178
O   O96       1.0  0.49210  0.12990  0.37410  1.0000 -0.4986192398
K   K4        1.0  0.74242  0.47000  0.20554  1.0000 0.9051039515
C   C254      1.0  0.14870  0.32070  0.19090  1.0000 0.5503404909
C   C255      1.0  0.11470  0.39130  0.16940  1.0000 0.0106738489
C   C256      1.0  0.10910  0.44360  0.20240  1.0000 -0.0916426123
H   H106      1.0  0.12600  0.43700  0.23570  1.0000 0.1395974956
C   C257      1.0  0.07650  0.50840  0.18410  1.0000 -0.10807433
H   H107      1.0  0.07320  0.54790  0.20560  1.0000 0.1395974956
C   C258      1.0  0.04920  0.51410  0.13460  1.0000 -0.0105112837
C   C259      1.0  0.05550  0.45960  0.10130  1.0000 0.0106738489
C   C260      1.0  0.08920  0.39700  0.12050  1.0000 -0.1476644582
H   H108      1.0  0.09400  0.35910  0.09940  1.0000 0.1308058275
C   C261      1.0  0.01430  0.58140  0.11980  1.0000 0.5354794126
C   C262      1.0  0.02680  0.46190  0.04880  1.0000 0.2047794956
C   C263      1.0  0.95770  0.46290  0.98720  1.0000 0.0706546429
H   H109      1.0  0.92830  0.46250  0.97740  1.0000 0.1085330656
C   C264      1.0  0.89650  0.74330  0.13620  1.0000 0.5276971582
C   C265      1.0  0.86160  0.74520  0.15370  1.0000 0.0106738489
C   C266      1.0  0.85210  0.66930  0.17200  1.0000 -0.10807433
H   H110      1.0  0.86830  0.61860  0.17500  1.0000 0.1395974956
C   C267      1.0  0.81920  0.66670  0.18600  1.0000 -0.1190760869
H   H111      1.0  0.81380  0.61560  0.19930  1.0000 0.1213049536
C   C268      1.0  0.79480  0.74060  0.18000  1.0000 -0.0413612353
C   C269      1.0  0.80310  0.82030  0.16010  1.0000 0.052334043
C   C270      1.0  0.83740  0.81940  0.14750  1.0000 -0.1476644582
H   H112      1.0  0.84370  0.87010  0.13470  1.0000 0.1308058275
C   C271      1.0  0.76040  0.73480  0.19620  1.0000 0.5609205562
C   C272      1.0  0.77380  0.89960  0.14980  1.0000 0.1841646369
C   C273      1.0  0.78950  0.98400  0.15890  1.0000 -0.1418137726
H   H113      1.0  0.81890  0.99300  0.17410  1.0000 0.1308058275
C   C274      1.0  0.76300  0.05430  0.14630  1.0000 -0.0701023786
H   H114      1.0  0.77390  0.11140  0.15290  1.0000 0.1308058275
C   C275      1.0  0.71860  0.03970  0.12300  1.0000 0.0208466555
C   C276      1.0  0.70500  0.95320  0.11280  1.0000 0.052334043
H   H115      1.0  0.67590  0.94310  0.09430  1.0000 0.1085330656
C   C277      1.0  0.68900  0.11500  0.10490  1.0000 0.0609983381
C   C278      1.0  0.65680  0.11340  0.05730  1.0000 -0.1418137726
H   H116      1.0  0.65330  0.06250  0.03890  1.0000 0.1213049536
C   C279      1.0  0.63000  0.18420  0.03640  1.0000 -0.0105112837
C   C280      1.0  0.63470  0.26140  0.06370  1.0000 -0.0916426123
H   H117      1.0  0.61600  0.30870  0.05080  1.0000 0.1395974956
C   C281      1.0  0.66800  0.26550  0.11040  1.0000 -0.1300161917
H   H118      1.0  0.67300  0.31800  0.12790  1.0000 0.1213049536
C   C282      1.0  0.69420  0.19180  0.13160  1.0000 -0.0454285246
C   C283      1.0  0.72730  0.20730  0.18200  1.0000 0.5609205562
C   C284      1.0  0.59770  0.18420  0.98560  1.0000 0.5354794126
C   C285      1.0  0.02000  0.80940  0.17080  1.0000 0.5503404909
C   C286      1.0  0.05470  0.87230  0.19130  1.0000 -0.0701023786
C   C287      1.0  0.08700  0.86700  0.17580  1.0000 -0.0916426123
H   H119      1.0  0.08630  0.82080  0.15540  1.0000 0.1395974956
C   C288      1.0  0.11920  0.92640  0.18930  1.0000 -0.0999868748
H   H120      1.0  0.14050  0.91990  0.17880  1.0000 0.1213049536
C   C289      1.0  0.12030  0.99750  0.21880  1.0000 0.0106738489
C   C290      1.0  0.08950  0.00270  0.23610  1.0000 -0.1476644582
H   H121      1.0  0.09060  0.04820  0.25710  1.0000 0.1308058275
C   C291      1.0  0.05670  0.94000  0.22190  1.0000 0.0609983381
C   C292      1.0  0.15150  0.07170  0.22900  1.0000 0.5503404909
C   C293      1.0  0.02340  0.95140  0.23980  1.0000 0.0279665252
C   C294      1.0  0.97930  0.94590  0.20910  1.0000 -0.084400839
H   H122      1.0  0.96960  0.93480  0.17600  1.0000 0.1308058275
C   C295      1.0  0.95070  0.95700  0.22860  1.0000 -0.1476644582
H   H123      1.0  0.92150  0.95280  0.20850  1.0000 0.1308058275
C   C296      1.0  0.96480  0.97430  0.27760  1.0000 0.1897194458
C   C297      1.0  0.03540  0.97310  0.28800  1.0000 0.052334043
H   H124      1.0  0.06430  0.98370  0.30800  1.0000 0.1085330656
C   C298      1.0  0.93610  0.98540  0.30140  1.0000 0.0279665252
C   C299      1.0  0.90150  0.04550  0.28290  1.0000 -0.1570989119
H   H125      1.0  0.89580  0.07690  0.25460  1.0000 0.1308058275
C   C300      1.0  0.87560  0.05800  0.30760  1.0000 0.0106738489
C   C301      1.0  0.88370  0.01150  0.34940  1.0000 -0.0999868748
H   H126      1.0  0.86600  0.01860  0.36490  1.0000 0.1395974956
C   C302      1.0  0.91810  0.95430  0.36860  1.0000 -0.1190760869
H   H127      1.0  0.92480  0.92600  0.39800  1.0000 0.1213049536
C   C303      1.0  0.94290  0.93910  0.34370  1.0000 -0.0279862583
C   C304      1.0  0.97770  0.87110  0.36470  1.0000 0.5609205562
C   C305      1.0  0.84010  0.12720  0.28960  1.0000 0.5354794126
C   C306      1.0  0.83390  0.37460  0.31970  1.0000 0.5503404909
C   C307      1.0  0.86580  0.44610  0.34030  1.0000 -0.0105112837
C   C308      1.0  0.89810  0.43920  0.38780  1.0000 -0.1476644582
H   H128      1.0  0.89780  0.39350  0.40800  1.0000 0.1308058275
C   C309      1.0  0.93060  0.50130  0.40430  1.0000 0.0609983381
C   C310      1.0  0.93020  0.57160  0.37500  1.0000 -0.0279862583
C   C311      1.0  0.89740  0.58020  0.32900  1.0000 -0.0999868748
H   H129      1.0  0.89690  0.62760  0.30940  1.0000 0.1395974956
C   C312      1.0  0.86520  0.51780  0.31220  1.0000 -0.0999868748
H   H130      1.0  0.84270  0.52430  0.28130  1.0000 0.1213049536
C   C313      1.0  0.96690  0.63830  0.39320  1.0000 0.5609205562
C   C314      1.0  0.96610  0.49420  0.45440  1.0000 -0.0105112837
C   C315      1.0  0.95950  0.49190  0.49640  1.0000 0.0706546429
H   H131      1.0  0.93170  0.48880  0.49330  1.0000 0.1085330656
C   C316      1.0  0.08580  0.76940  0.36300  1.0000 0.5503404909
C   C317      1.0  0.11780  0.77550  0.34330  1.0000 -0.0105112837
C   C318      1.0  0.11660  0.71560  0.30850  1.0000 -0.084400839
H   H132      1.0  0.09470  0.67400  0.29580  1.0000 0.1395974956
C   C319      1.0  0.14890  0.71900  0.29290  1.0000 -0.10807433
H   H133      1.0  0.14890  0.67870  0.26990  1.0000 0.1395974956
C   C320      1.0  0.18060  0.78170  0.31150  1.0000 -0.0235715051
C   C321      1.0  0.18180  0.84450  0.34470  1.0000 0.0279665252
C   C322      1.0  0.14890  0.84230  0.36030  1.0000 -0.1300161917
H   H134      1.0  0.14800  0.88490  0.38180  1.0000 0.1308058275
C   C323      1.0  0.21670  0.77900  0.29590  1.0000 0.5276971582
C   C324      1.0  0.21630  0.91090  0.36340  1.0000 0.1699643332
C   C325      1.0  0.25760  0.88810  0.38530  1.0000 -0.1476644582
H   H135      1.0  0.26490  0.82860  0.39090  1.0000 0.1395974956
C   C326      1.0  0.28930  0.94940  0.39970  1.0000 -0.0916426123
H   H136      1.0  0.31800  0.93250  0.41400  1.0000 0.1213049536
C   C327      1.0  0.27800  0.03820  0.39240  1.0000 0.0279665252
C   C328      1.0  0.23710  0.06160  0.37270  1.0000 0.0208466555
H   H137      1.0  0.23000  0.12130  0.36880  1.0000 0.1213049536
C   C329      1.0  0.31210  0.10740  0.40360  1.0000 0.0609983381
C   C330      1.0  0.34580  0.11250  0.44910  1.0000 -0.1570989119
H   H138      1.0  0.34850  0.07090  0.47270  1.0000 0.1308058275
C   C331      1.0  0.37630  0.18020  0.46010  1.0000 0.0019739478
C   C332      1.0  0.37340  0.23800  0.42430  1.0000 -0.0999868748
H   H139      1.0  0.39400  0.28180  0.43110  1.0000 0.1213049536
C   C333      1.0  0.33980  0.23140  0.37800  1.0000 -0.0999868748
H   H140      1.0  0.33820  0.26960  0.35330  1.0000 0.1395974956
C   C334      1.0  0.30890  0.16730  0.36900  1.0000 -0.0279862583
C   C335      1.0  0.27080  0.16840  0.31830  1.0000 0.5354794126
C   C336      1.0  0.41010  0.19210  0.51150  1.0000 0.5503404909
In  In13      1.0  0.95530  0.70153  0.10619  1.0000 1.3500418115
In  In14      1.0  0.20553  0.19761  0.23321  1.0000 1.3500418115
In  In15      1.0  0.78103  0.24573  0.27309  1.0000 1.3428921002
In  In16      1.0  0.03294  0.74300  0.40192  1.0000 1.3668931324
N   N14       1.0  0.00780  0.97950  0.30690  1.0000 -0.2047530265
N   N15       1.0  0.20480  0.99940  0.35760  1.0000 -0.2614792984
N   N16       1.0  0.73030  0.88430  0.12750  1.0000 -0.242687824
O   O97       1.0  0.14990  0.25850  0.16400  1.0000 -0.526051889
O   O98       1.0  0.17292  0.32270  0.23510  1.0000 -0.4907376028
O   O99       1.0  0.98940  0.58010  0.14060  1.0000 -0.4986192398
O   O100      1.0  0.01020  0.63840  0.09070  1.0000 -0.479422358
O   O101      1.0  0.91790  0.67360  0.14390  1.0000 -0.4907376028
O   O102      1.0  0.90250  0.80520  0.11630  1.0000 -0.479422358
O   O103      1.0  0.73680  0.66460  0.18520  1.0000 -0.5946331721
O   O104      1.0  0.75630  0.78960  0.22320  1.0000 -0.479422358
O   O105      1.0  0.59404  0.12140  0.95840  1.0000 -0.4986192398
O   O106      1.0  0.57421  0.25110  0.96780  1.0000 -0.4986192398
O   O107      1.0  0.73200  0.14740  0.21370  1.0000 -0.522625975
O   O108      1.0  0.74980  0.27480  0.19470  1.0000 -0.5588532787
O   O109      1.0  0.81492  0.12580  0.30860  1.0000 -0.4907376028
O   O110      1.0  0.83674  0.18240  0.25860  1.0000 -0.5105124396
O   O111      1.0  0.00221  0.86930  0.40980  1.0000 -0.5793973681
O   O112      1.0  0.98152  0.81350  0.33700  1.0000 -0.5105124396
O   O113      1.0  0.01610  0.74740  0.19570  1.0000 -0.4986192398
O   O114      1.0  0.99660  0.81150  0.12630  1.0000 -0.4907376028
O   O115      1.0  0.17710  0.06830  0.20750  1.0000 -0.6248407465
O   O116      1.0  0.15451  0.13190  0.25680  1.0000 -0.479422358
O   O117      1.0  0.26640  0.11340  0.28870  1.0000 -0.4986192398
O   O118      1.0  0.24411  0.23430  0.30920  1.0000 -0.5105124396
O   O119      1.0  0.43602  0.25800  0.51915  1.0000 -0.6044484776
O   O120      1.0  0.41216  0.14520  0.54540  1.0000 -0.4986192398
O   O121      1.0  0.22150  0.83320  0.27060  1.0000 -0.4907376028
O   O122      1.0  0.24200  0.71570  0.31060  1.0000 -0.4598275598
O   O123      1.0  0.08553  0.82110  0.39510  1.0000 -0.522625975
O   O124      1.0  0.05974  0.70490  0.35000  1.0000 -0.5105124396
O   O125      1.0  0.80871  0.37570  0.27490  1.0000 -0.5793973681
O   O126      1.0  0.83201  0.31140  0.34510  1.0000 -0.5105124396
O   O127      1.0  0.97000  0.69880  0.42160  1.0000 -0.5746563178
O   O128      1.0  0.99210  0.62990  0.37410  1.0000 -0.4986192398
K   K5        1.0  0.50000  0.32800  0.50000  1.0000 0.9051039515
K   K6        1.0  0.00000  0.82800  0.50000  1.0000 0.9051039515
  C   C337      1.0  0.50810  0.99390  0.45980  1.0000
  C   C338      1.0  0.51660  0.96440  0.96620  1.0000
  N   N17       1.0  0.48340  0.96440  0.03380  1.0000
  N   N18       1.0  0.49190  0.99390  0.54020  1.0000
  C   C339      1.0  0.00810  0.49390  0.45980  1.0000
  C   C340      1.0  0.01660  0.46440  0.96620  1.0000
  N   N19       1.0  0.98340  0.46440  0.03380  1.0000
  N   N20       1.0  0.99190  0.49390  0.54020  1.0000
