# DDEC6 charges by PACMAN v1.1 (https://github.com/mtap-research/PACMAN-charge/)
data_KAKCEH02_ASR_pacman
_symmetry_space_group_name_H-M   'P 1'
_cell_length_a   7.26520000
_cell_length_b   19.31520000
_cell_length_c   26.07230000
_cell_angle_alpha   90.00000000
_cell_angle_beta   90.00000000
_cell_angle_gamma   90.00000000
_symmetry_Int_Tables_number   1
_chemical_formula_structural   BaH15(C9O2)3
_chemical_formula_sum   'Ba4 H60 C108 O24'
_cell_volume   3658.69433863
_cell_formula_units_Z   4
loop_
 _symmetry_equiv_pos_site_id
 _symmetry_equiv_pos_as_xyz
  1  'x, y, z'
loop_
 _atom_site_type_symbol
 _atom_site_label
 _atom_site_symmetry_multiplicity
 _atom_site_fract_x
 _atom_site_fract_y
 _atom_site_fract_z
 _atom_site_occupancy
 _atom_site_charge
Ba  Ba1  1  0.36744000  0.30820000  0.41167000  1.0 1.4550061937
Ba  Ba2  1  0.63256000  0.69180000  0.91167000  1.0 1.4544854875
Ba  Ba3  1  0.13256000  0.80820000  0.91167000  1.0 1.4544854875
Ba  Ba4  1  0.86744000  0.19180000  0.41167000  1.0 1.4550061937
H  H1  1  0.22590000  0.09330000  0.52960000  1.0 0.139844429
H  H2  1  0.77410000  0.90670000  0.02960000  1.0 0.139844429
H  H3  1  0.27410000  0.59330000  0.02960000  1.0 0.139844429
H  H4  1  0.72590000  0.40670000  0.52960000  1.0 0.139844429
H  H5  1  0.51280000  0.04080000  0.40480000  1.0 0.139844429
H  H6  1  0.48720000  0.95920000  0.90480000  1.0 0.139844429
H  H7  1  0.98720000  0.54080000  0.90480000  1.0 0.139844429
H  H8  1  0.01280000  0.45920000  0.40480000  1.0 0.139844429
H  H9  1  0.29190000  0.98650000  0.56690000  1.0 0.1191291787
H  H10  1  0.70810000  0.01350000  0.06690000  1.0 0.1191291787
H  H11  1  0.20810000  0.48650000  0.06690000  1.0 0.1191291787
H  H12  1  0.79190000  0.51350000  0.56690000  1.0 0.1191291787
H  H13  1  0.56750000  0.93110000  0.43880000  1.0 0.1191291787
H  H14  1  0.43250000  0.06890000  0.93880000  1.0 0.1191291787
H  H15  1  0.93250000  0.43110000  0.93880000  1.0 0.1191291787
H  H16  1  0.06750000  0.56890000  0.43880000  1.0 0.1191291787
H  H17  1  0.53990000  0.91650000  0.60090000  1.0 0.1191291787
H  H18  1  0.46010000  0.08350000  0.10090000  1.0 0.1191291787
H  H19  1  0.96010000  0.41650000  0.10090000  1.0 0.1191291787
H  H20  1  0.03990000  0.58350000  0.60090000  1.0 0.1191291787
H  H21  1  0.45980000  0.81980000  0.46640000  1.0 0.1191291787
H  H22  1  0.54020000  0.18020000  0.96640000  1.0 0.1191291787
H  H23  1  0.04020000  0.31980000  0.96640000  1.0 0.1191291787
H  H24  1  0.95980000  0.68020000  0.46640000  1.0 0.1191291787
H  H25  1  0.63340000  0.71170000  0.58940000  1.0 0.1191291787
H  H26  1  0.36660000  0.28830000  0.08940000  1.0 0.1191291787
H  H27  1  0.86660000  0.21170000  0.08940000  1.0 0.1191291787
H  H28  1  0.13340000  0.78830000  0.58940000  1.0 0.1191291787
H  H29  1  0.58140000  0.71850000  0.67780000  1.0 0.1135764908
H  H30  1  0.41860000  0.28150000  0.17780000  1.0 0.1135764908
H  H31  1  0.91860000  0.21850000  0.17780000  1.0 0.1135764908
H  H32  1  0.08140000  0.78150000  0.67780000  1.0 0.1135764908
H  H33  1  0.77720000  0.90930000  0.65500000  1.0 0.1191291787
H  H34  1  0.22280000  0.09070000  0.15500000  1.0 0.1191291787
H  H35  1  0.72280000  0.40930000  0.15500000  1.0 0.1191291787
H  H36  1  0.27720000  0.59070000  0.65500000  1.0 0.1191291787
H  H37  1  0.60150000  0.73190000  0.42450000  1.0 0.1191291787
H  H38  1  0.39850000  0.26810000  0.92450000  1.0 0.1191291787
H  H39  1  0.89850000  0.23190000  0.92450000  1.0 0.1191291787
H  H40  1  0.10150000  0.76810000  0.42450000  1.0 0.1191291787
H  H41  1  0.43750000  0.62890000  0.55060000  1.0 0.1135764908
H  H42  1  0.56250000  0.37110000  0.05060000  1.0 0.1135764908
H  H43  1  0.06250000  0.12890000  0.05060000  1.0 0.1135764908
H  H44  1  0.93750000  0.87110000  0.55060000  1.0 0.1135764908
H  H45  1  0.68630000  0.72090000  0.76100000  1.0 0.1293260272
H  H46  1  0.31370000  0.27910000  0.26100000  1.0 0.1293260272
H  H47  1  0.81370000  0.22090000  0.26100000  1.0 0.1293260272
H  H48  1  0.18630000  0.77910000  0.76100000  1.0 0.1293260272
H  H49  1  0.87980000  0.91510000  0.73830000  1.0 0.1293260272
H  H50  1  0.12020000  0.08490000  0.23830000  1.0 0.1293260272
H  H51  1  0.62020000  0.41510000  0.23830000  1.0 0.1293260272
H  H52  1  0.37980000  0.58490000  0.73830000  1.0 0.1293260272
H  H53  1  0.59430000  0.62920000  0.37900000  1.0 0.1191291787
H  H54  1  0.40570000  0.37080000  0.87900000  1.0 0.1191291787
H  H55  1  0.90570000  0.12920000  0.87900000  1.0 0.1191291787
H  H56  1  0.09430000  0.87080000  0.37900000  1.0 0.1191291787
H  H57  1  0.40400000  0.52820000  0.50240000  1.0 0.1135764908
H  H58  1  0.59600000  0.47180000  0.00240000  1.0 0.1135764908
H  H59  1  0.09600000  0.02820000  0.00240000  1.0 0.1135764908
H  H60  1  0.90400000  0.97180000  0.50240000  1.0 0.1135764908
C  C1  1  0.36160000  0.15190000  0.44540000  1.0 0.6005187746
C  C2  1  0.63840000  0.84810000  0.94540000  1.0 0.6005187746
C  C3  1  0.13840000  0.65190000  0.94540000  1.0 0.6005187746
C  C4  1  0.86160000  0.34810000  0.44540000  1.0 0.6005187746
C  C5  1  0.37580000  0.07720000  0.46690000  1.0 0.0014687985
C  C6  1  0.62420000  0.92280000  0.96690000  1.0 0.0014687985
C  C7  1  0.12420000  0.57720000  0.96690000  1.0 0.0014687985
C  C8  1  0.87580000  0.42280000  0.46690000  1.0 0.0014687985
C  C9  1  0.30190000  0.06100000  0.51220000  1.0 -0.0883427673
C  C10  1  0.69810000  0.93900000  0.01220000  1.0 -0.0883427673
C  C11  1  0.19810000  0.56100000  0.01220000  1.0 -0.0883427673
C  C12  1  0.80190000  0.43900000  0.51220000  1.0 -0.0883427673
C  C13  1  0.46970000  0.02930000  0.43820000  1.0 -0.0712329817
C  C14  1  0.53030000  0.97070000  0.93820000  1.0 -0.0712329817
C  C15  1  0.03030000  0.52930000  0.93820000  1.0 -0.0712329817
C  C16  1  0.96970000  0.47070000  0.43820000  1.0 -0.0712329817
C  C17  1  0.33660000  0.99670000  0.53350000  1.0 -0.144237477
C  C18  1  0.66340000  0.00330000  0.03350000  1.0 -0.144237477
C  C19  1  0.16340000  0.49670000  0.03350000  1.0 -0.144237477
C  C20  1  0.83660000  0.50330000  0.53350000  1.0 -0.144237477
C  C21  1  0.50100000  0.96420000  0.45840000  1.0 -0.1274738346
C  C22  1  0.49900000  0.03580000  0.95840000  1.0 -0.1274738346
C  C23  1  0.99900000  0.46420000  0.95840000  1.0 -0.1274738346
C  C24  1  0.00100000  0.53580000  0.45840000  1.0 -0.1274738346
C  C25  1  0.43740000  0.94640000  0.50650000  1.0 0.0676315449
C  C26  1  0.56260000  0.05360000  0.00650000  1.0 0.0676315449
C  C27  1  0.06260000  0.44640000  0.00650000  1.0 0.0676315449
C  C28  1  0.93740000  0.55360000  0.50650000  1.0 0.0676315449
C  C29  1  0.48650000  0.87770000  0.52980000  1.0 0.0885639045
C  C30  1  0.51350000  0.12230000  0.02980000  1.0 0.0885639045
C  C31  1  0.01350000  0.37770000  0.02980000  1.0 0.0885639045
C  C32  1  0.98650000  0.62230000  0.52980000  1.0 0.0885639045
C  C33  1  0.54020000  0.87500000  0.58120000  1.0 -0.2026189451
C  C34  1  0.45980000  0.12500000  0.08120000  1.0 -0.2026189451
C  C35  1  0.95980000  0.37500000  0.08120000  1.0 -0.2026189451
C  C36  1  0.04020000  0.62500000  0.58120000  1.0 -0.2026189451
C  C37  1  0.49010000  0.81810000  0.50180000  1.0 -0.1823638265
C  C38  1  0.50990000  0.18190000  0.00180000  1.0 -0.1823638265
C  C39  1  0.00990000  0.31810000  0.00180000  1.0 -0.1823638265
C  C40  1  0.99010000  0.68190000  0.50180000  1.0 -0.1823638265
C  C41  1  0.59420000  0.81330000  0.60480000  1.0 0.0792056214
C  C42  1  0.40580000  0.18670000  0.10480000  1.0 0.0792056214
C  C43  1  0.90580000  0.31330000  0.10480000  1.0 0.0792056214
C  C44  1  0.09420000  0.68670000  0.60480000  1.0 0.0792056214
C  C45  1  0.53690000  0.75500000  0.52390000  1.0 0.0885639045
C  C46  1  0.46310000  0.24500000  0.02390000  1.0 0.0885639045
C  C47  1  0.96310000  0.25500000  0.02390000  1.0 0.0885639045
C  C48  1  0.03690000  0.74500000  0.52390000  1.0 0.0885639045
C  C49  1  0.66370000  0.81400000  0.65710000  1.0 0.0608190003
C  C50  1  0.33630000  0.18600000  0.15710000  1.0 0.0608190003
C  C51  1  0.83630000  0.31400000  0.15710000  1.0 0.0608190003
C  C52  1  0.16370000  0.68600000  0.65710000  1.0 0.0608190003
C  C53  1  0.59370000  0.75420000  0.57470000  1.0 -0.1853365597
C  C54  1  0.40630000  0.24580000  0.07470000  1.0 -0.1853365597
C  C55  1  0.90630000  0.25420000  0.07470000  1.0 -0.1853365597
C  C56  1  0.09370000  0.74580000  0.57470000  1.0 -0.1853365597
C  C57  1  0.52170000  0.69080000  0.49310000  1.0 0.0676315449
C  C58  1  0.47830000  0.30920000  0.99310000  1.0 0.0676315449
C  C59  1  0.97830000  0.19080000  0.99310000  1.0 0.0676315449
C  C60  1  0.02170000  0.80920000  0.49310000  1.0 0.0676315449
C  C61  1  0.64120000  0.75910000  0.69000000  1.0 -0.144237477
C  C62  1  0.35880000  0.24090000  0.19000000  1.0 -0.144237477
C  C63  1  0.85880000  0.25910000  0.19000000  1.0 -0.144237477
C  C64  1  0.14120000  0.74090000  0.69000000  1.0 -0.144237477
C  C65  1  0.75600000  0.87100000  0.67700000  1.0 -0.1564450522
C  C66  1  0.24400000  0.12900000  0.17700000  1.0 -0.1564450522
C  C67  1  0.74400000  0.37100000  0.17700000  1.0 -0.1564450522
C  C68  1  0.25600000  0.62900000  0.67700000  1.0 -0.1564450522
C  C69  1  0.56600000  0.69030000  0.44120000  1.0 -0.1564450522
C  C70  1  0.43400000  0.30970000  0.94120000  1.0 -0.1564450522
C  C71  1  0.93400000  0.19030000  0.94120000  1.0 -0.1564450522
C  C72  1  0.06600000  0.80970000  0.44120000  1.0 -0.1564450522
C  C73  1  0.46600000  0.62980000  0.51500000  1.0 -0.1509447132
C  C74  1  0.53400000  0.37020000  0.01500000  1.0 -0.1509447132
C  C75  1  0.03400000  0.12980000  0.01500000  1.0 -0.1509447132
C  C76  1  0.96600000  0.87020000  0.51500000  1.0 -0.1509447132
C  C77  1  0.70230000  0.76060000  0.73990000  1.0 -0.0883427673
C  C78  1  0.29770000  0.23940000  0.23990000  1.0 -0.0883427673
C  C79  1  0.79770000  0.26060000  0.23990000  1.0 -0.0883427673
C  C80  1  0.20230000  0.73940000  0.73990000  1.0 -0.0883427673
C  C81  1  0.81700000  0.87490000  0.72650000  1.0 -0.0883427673
C  C82  1  0.18300000  0.12510000  0.22650000  1.0 -0.0883427673
C  C83  1  0.68300000  0.37490000  0.22650000  1.0 -0.0883427673
C  C84  1  0.31700000  0.62510000  0.72650000  1.0 -0.0883427673
C  C85  1  0.55800000  0.62880000  0.41400000  1.0 -0.0883427673
C  C86  1  0.44200000  0.37120000  0.91400000  1.0 -0.0883427673
C  C87  1  0.94200000  0.12880000  0.91400000  1.0 -0.0883427673
C  C88  1  0.05800000  0.87120000  0.41400000  1.0 -0.0883427673
C  C89  1  0.45000000  0.56880000  0.48630000  1.0 -0.0955814083
C  C90  1  0.55000000  0.43120000  0.98630000  1.0 -0.0955814083
C  C91  1  0.05000000  0.06880000  0.98630000  1.0 -0.0955814083
C  C92  1  0.95000000  0.93120000  0.48630000  1.0 -0.0955814083
C  C93  1  0.78590000  0.81830000  0.75990000  1.0 -0.0121116859
C  C94  1  0.21410000  0.18170000  0.25990000  1.0 -0.0121116859
C  C95  1  0.71410000  0.31830000  0.25990000  1.0 -0.0121116859
C  C96  1  0.28590000  0.68170000  0.75990000  1.0 -0.0121116859
C  C97  1  0.49970000  0.56650000  0.43530000  1.0 -0.0302896194
C  C98  1  0.50030000  0.43350000  0.93530000  1.0 -0.0302896194
C  C99  1  0.00030000  0.06650000  0.93530000  1.0 -0.0302896194
C  C100  1  0.99970000  0.93350000  0.43530000  1.0 -0.0302896194
C  C101  1  0.85560000  0.82040000  0.81360000  1.0 0.5686543699
C  C102  1  0.14440000  0.17960000  0.31360000  1.0 0.5686543699
C  C103  1  0.64440000  0.32040000  0.31360000  1.0 0.5686543699
C  C104  1  0.35560000  0.67960000  0.81360000  1.0 0.5686543699
C  C105  1  0.49150000  0.50120000  0.40600000  1.0 0.559730139
C  C106  1  0.50850000  0.49880000  0.90600000  1.0 0.559730139
C  C107  1  0.00850000  0.00120000  0.90600000  1.0 0.559730139
C  C108  1  0.99150000  0.99880000  0.40600000  1.0 0.559730139
O  O1  1  0.66930000  0.26870000  0.34140000  1.0 -0.6146685366
O  O2  1  0.33070000  0.73130000  0.84140000  1.0 -0.6146685366
O  O3  1  0.83070000  0.76870000  0.84140000  1.0 -0.6146685366
O  O4  1  0.16930000  0.23130000  0.34140000  1.0 -0.6146685366
O  O5  1  0.54970000  0.37230000  0.32870000  1.0 -0.5428590063
O  O6  1  0.45030000  0.62770000  0.82870000  1.0 -0.5428590063
O  O7  1  0.95030000  0.87230000  0.82870000  1.0 -0.5428590063
O  O8  1  0.04970000  0.12770000  0.32870000  1.0 -0.5428590063
O  O9  1  0.99030000  0.32650000  0.42130000  1.0 -0.5761251335
O  O10  1  0.00970000  0.67350000  0.92130000  1.0 -0.5761251335
O  O11  1  0.50970000  0.82650000  0.92130000  1.0 -0.5761251335
O  O12  1  0.49030000  0.17350000  0.42130000  1.0 -0.5761251335
O  O13  1  0.71410000  0.31530000  0.45570000  1.0 -0.6416804079
O  O14  1  0.28590000  0.68470000  0.95570000  1.0 -0.6416804079
O  O15  1  0.78590000  0.81530000  0.95570000  1.0 -0.6416804079
O  O16  1  0.21410000  0.18470000  0.45570000  1.0 -0.6416804079
O  O17  1  0.42120000  0.45070000  0.42570000  1.0 -0.5726726536
O  O18  1  0.57880000  0.54930000  0.92570000  1.0 -0.5726726536
O  O19  1  0.07880000  0.95070000  0.92570000  1.0 -0.5726726536
O  O20  1  0.92120000  0.04930000  0.42570000  1.0 -0.5726726536
O  O21  1  0.56390000  0.50220000  0.36050000  1.0 -0.5089418177
O  O22  1  0.43610000  0.49780000  0.86050000  1.0 -0.5089418177
O  O23  1  0.93610000  0.00220000  0.86050000  1.0 -0.5089418177
O  O24  1  0.06390000  0.99780000  0.36050000  1.0 -0.5089418177
