# DDEC6 charges by PACMAN v1.1 (https://github.com/mtap-research/PACMAN-charge/)
data_KALHOY_FSR_pacman
_symmetry_space_group_name_H-M   'P 1'
_cell_length_a   6.61820000
_cell_length_b   9.45130000
_cell_length_c   9.47520000
_cell_angle_alpha   107.69100000
_cell_angle_beta   107.69400000
_cell_angle_gamma   93.22500000
_symmetry_Int_Tables_number   1
_chemical_formula_structural   AlC8O5
_chemical_formula_sum   'Al2 C16 O10'
_cell_volume   530.67901238
_cell_formula_units_Z   2
loop_
 _symmetry_equiv_pos_site_id
 _symmetry_equiv_pos_as_xyz
  1  'x, y, z'
loop_
 _atom_site_type_symbol
 _atom_site_label
 _atom_site_symmetry_multiplicity
 _atom_site_fract_x
 _atom_site_fract_y
 _atom_site_fract_z
 _atom_site_occupancy
 _atom_site_charge
Al  Al1  1  0.00000000  0.00000000  0.00000000  1.0 1.6638916671
Al  Al2  1  0.50000000  0.00000000  0.00000000  1.0 1.6673766315
C  C1  1  0.62600000  0.77300000  0.76400000  1.0 0.6532233894
C  C2  1  0.53600000  0.65200000  0.60400000  1.0 -0.1053027049
C  C3  1  0.35500000  0.53700000  0.60100000  1.0 0.0991965175
C  C4  1  0.71700000  0.57800000  0.56600000  1.0 0.0433593556
C  C5  1  0.17000000  0.11200000  0.77500000  1.0 0.6734291256
C  C6  1  0.11500000  0.15700000  0.63000000  1.0 -0.0910718314
C  C7  1  0.22700000  0.05300000  0.52900000  1.0 -0.0369727857
C  C8  1  0.87500000  0.11100000  0.54600000  1.0 0.0094386368
C  C9  1  0.37400000  0.22700000  0.23600000  1.0 0.6532233894
C  C10  1  0.46400000  0.34800000  0.39600000  1.0 -0.1053027049
C  C11  1  0.64500000  0.46300000  0.39900000  1.0 0.0991965175
C  C12  1  0.28300000  0.42200000  0.43400000  1.0 0.0433593556
C  C13  1  0.83000000  0.88800000  0.22500000  1.0 0.6734291256
C  C14  1  0.88500000  0.84300000  0.37000000  1.0 -0.0910718314
C  C15  1  0.77300000  0.94700000  0.47100000  1.0 -0.0369727857
C  C16  1  0.12500000  0.88900000  0.45400000  1.0 0.0094386368
O  O1  1  0.48500000  0.82600000  0.82450000  1.0 -0.4902065455
O  O2  1  0.82900000  0.82270000  0.83600000  1.0 -0.5059686363
O  O3  1  0.02600000  0.08290000  0.84070000  1.0 -0.483372575
O  O4  1  0.35700000  0.09550000  0.85920000  1.0 -0.4902065455
O  O5  1  0.76100000  0.09050000  0.00000000  1.0 -0.9411795497
O  O6  1  0.51500000  0.17400000  0.17550000  1.0 -0.4902065455
O  O7  1  0.17100000  0.17730000  0.16400000  1.0 -0.5059686363
O  O8  1  0.97400000  0.91710000  0.15930000  1.0 -0.483372575
O  O9  1  0.64300000  0.90450000  0.14080000  1.0 -0.4902065455
O  O10  1  0.23900000  0.90950000  0.00000000  1.0 -0.9411795497
