# DDEC6 charges by PACMAN v1.1 (https://github.com/mtap-research/PACMAN-charge/)
data_KALJAM_ASR_pacman
_symmetry_space_group_name_H-M   'P 1'
_cell_length_a   6.61770000
_cell_length_b   9.36510000
_cell_length_c   9.43710000
_cell_angle_alpha   107.09700000
_cell_angle_beta   107.91500000
_cell_angle_gamma   93.33600000
_symmetry_Int_Tables_number   1
_chemical_formula_structural   AlC8O5
_chemical_formula_sum   'Al2 C16 O10'
_cell_volume   524.76646084
_cell_formula_units_Z   2
loop_
 _symmetry_equiv_pos_site_id
 _symmetry_equiv_pos_as_xyz
  1  'x, y, z'
loop_
 _atom_site_type_symbol
 _atom_site_label
 _atom_site_symmetry_multiplicity
 _atom_site_fract_x
 _atom_site_fract_y
 _atom_site_fract_z
 _atom_site_occupancy
 _atom_site_charge
Al  Al1  1  0.00000000  0.00000000  0.00000000  1.0 1.6637882663
Al  Al2  1  0.50000000  0.00000000  0.00000000  1.0 1.6725046112
C  C1  1  0.62200000  0.77100000  0.76400000  1.0 0.6622636392
C  C2  1  0.54200000  0.65300000  0.60000000  1.0 -0.1070424804
C  C3  1  0.36400000  0.54200000  0.59800000  1.0 0.0516123621
C  C4  1  0.72700000  0.57800000  0.56600000  1.0 0.0587185173
C  C5  1  0.16700000  0.10600000  0.77600000  1.0 0.6741810216
C  C6  1  0.11700000  0.15100000  0.63200000  1.0 -0.122289952
C  C7  1  0.23200000  0.05440000  0.53500000  1.0 -0.010948891
C  C8  1  0.87000000  0.11460000  0.54100000  1.0 0.0425056329
C  C9  1  0.37800000  0.22900000  0.23600000  1.0 0.6622636392
C  C10  1  0.45800000  0.34700000  0.40000000  1.0 -0.1070424804
C  C11  1  0.63600000  0.45800000  0.40200000  1.0 0.0516123621
C  C12  1  0.27300000  0.42200000  0.43400000  1.0 0.0587185173
C  C13  1  0.83300000  0.89400000  0.22400000  1.0 0.6741810216
C  C14  1  0.88300000  0.84900000  0.36800000  1.0 -0.122289952
C  C15  1  0.76800000  0.94560000  0.46500000  1.0 -0.010948891
C  C16  1  0.13000000  0.88540000  0.45900000  1.0 0.0425056329
O  O1  1  0.48500000  0.83990000  0.81510000  1.0 -0.4926774727
O  O2  1  0.82400000  0.81980000  0.84180000  1.0 -0.4926774727
O  O3  1  0.01800000  0.07660000  0.83650000  1.0 -0.4996088074
O  O4  1  0.36290000  0.10220000  0.86340000  1.0 -0.5078126119
O  O5  1  0.76400000  0.09000000  0.00560000  1.0 -0.9243699239
O  O6  1  0.51500000  0.16010000  0.18490000  1.0 -0.4926774727
O  O7  1  0.17600000  0.18020000  0.15820000  1.0 -0.4926774727
O  O8  1  0.98200000  0.92340000  0.16350000  1.0 -0.4996088074
O  O9  1  0.63710000  0.89780000  0.13660000  1.0 -0.5078126119
O  O10  1  0.23600000  0.91000000  0.99440000  1.0 -0.9243699239
