# DDEC6 charges by PACMAN v1.1 (https://github.com/mtap-research/PACMAN-charge/)
data_KASRAZ_FSR_pacman
_symmetry_space_group_name_H-M   'P 1'
_cell_length_a   11.41370000
_cell_length_b   16.59200000
_cell_length_c   26.04100000
_cell_angle_alpha   90.00000000
_cell_angle_beta   95.29000000
_cell_angle_gamma   90.00000000
_symmetry_Int_Tables_number   1
_chemical_formula_structural   Cd2H32C39NO11
_chemical_formula_sum   'Cd8 H128 C156 N4 O44'
_cell_volume   4910.53888506
_cell_formula_units_Z   4
loop_
 _symmetry_equiv_pos_site_id
 _symmetry_equiv_pos_as_xyz
  1  'x, y, z'
loop_
 _atom_site_type_symbol
 _atom_site_label
 _atom_site_symmetry_multiplicity
 _atom_site_fract_x
 _atom_site_fract_y
 _atom_site_fract_z
 _atom_site_occupancy
 _atom_site_charge
Cd  Cd1  1  0.88591000  0.05887000  0.96078000  1.0 0.9610559816
Cd  Cd2  1  0.11409000  0.55887000  0.53922000  1.0 0.9610559816
Cd  Cd3  1  0.11409000  0.94113000  0.03922000  1.0 0.9610559816
Cd  Cd4  1  0.88591000  0.44113000  0.46078000  1.0 0.9610559816
Cd  Cd5  1  0.83183000  0.26612000  0.96306000  1.0 1.119754898
Cd  Cd6  1  0.16817000  0.76612000  0.53694000  1.0 1.119754898
Cd  Cd7  1  0.16817000  0.73388000  0.03694000  1.0 1.119754898
Cd  Cd8  1  0.83183000  0.23388000  0.46306000  1.0 1.119754898
H  H1  1  0.25040000  0.08830000  0.77860000  1.0 0.1214275558
H  H2  1  0.74960000  0.58830000  0.72140000  1.0 0.1214275558
H  H3  1  0.74960000  0.91170000  0.22140000  1.0 0.1214275558
H  H4  1  0.25040000  0.41170000  0.27860000  1.0 0.1214275558
H  H5  1  0.14320000  0.07810000  0.84990000  1.0 0.1214275558
H  H6  1  0.85680000  0.57810000  0.65010000  1.0 0.1214275558
H  H7  1  0.85680000  0.92190000  0.15010000  1.0 0.1214275558
H  H8  1  0.14320000  0.42190000  0.34990000  1.0 0.1214275558
H  H9  1  0.04840000  0.31160000  0.83260000  1.0 0.1408332164
H  H10  1  0.95160000  0.81160000  0.66740000  1.0 0.1408332164
H  H11  1  0.95160000  0.68840000  0.16740000  1.0 0.1408332164
H  H12  1  0.04840000  0.18840000  0.33260000  1.0 0.1408332164
H  H13  1  0.15570000  0.32090000  0.76120000  1.0 0.1214275558
H  H14  1  0.84430000  0.82090000  0.73880000  1.0 0.1214275558
H  H15  1  0.84430000  0.67910000  0.23880000  1.0 0.1214275558
H  H16  1  0.15570000  0.17910000  0.26120000  1.0 0.1214275558
H  H17  1  0.31800000  0.12510000  0.62130000  1.0 0.1271245474
H  H18  1  0.68200000  0.62510000  0.87870000  1.0 0.1271245474
H  H19  1  0.68200000  0.87490000  0.37870000  1.0 0.1271245474
H  H20  1  0.31800000  0.37490000  0.12130000  1.0 0.1271245474
H  H21  1  0.41030000  0.12030000  0.54530000  1.0 0.1271245474
H  H22  1  0.58970000  0.62030000  0.95470000  1.0 0.1271245474
H  H23  1  0.58970000  0.87970000  0.45470000  1.0 0.1271245474
H  H24  1  0.41030000  0.37970000  0.04530000  1.0 0.1271245474
H  H25  1  0.68300000  0.24730000  0.61450000  1.0 0.1214275558
H  H26  1  0.31700000  0.74730000  0.88550000  1.0 0.1214275558
H  H27  1  0.31700000  0.75270000  0.38550000  1.0 0.1214275558
H  H28  1  0.68300000  0.25270000  0.11450000  1.0 0.1214275558
H  H29  1  0.59300000  0.24680000  0.69050000  1.0 0.1214275558
H  H30  1  0.40700000  0.74680000  0.80950000  1.0 0.1214275558
H  H31  1  0.40700000  0.75320000  0.30950000  1.0 0.1214275558
H  H32  1  0.59300000  0.25320000  0.19050000  1.0 0.1214275558
H  H33  1  0.44490000  0.27010000  0.79880000  1.0 0.1271245474
H  H34  1  0.55510000  0.77010000  0.70120000  1.0 0.1271245474
H  H35  1  0.55510000  0.72990000  0.20120000  1.0 0.1271245474
H  H36  1  0.44490000  0.22990000  0.29880000  1.0 0.1271245474
H  H37  1  0.58090000  0.24070000  0.86880000  1.0 0.1408332164
H  H38  1  0.41910000  0.74070000  0.63120000  1.0 0.1408332164
H  H39  1  0.41910000  0.75930000  0.13120000  1.0 0.1408332164
H  H40  1  0.58090000  0.25930000  0.36880000  1.0 0.1408332164
H  H41  1  0.64570000  0.02600000  0.80380000  1.0 0.1214275558
H  H42  1  0.35430000  0.52600000  0.69620000  1.0 0.1214275558
H  H43  1  0.35430000  0.97400000  0.19620000  1.0 0.1214275558
H  H44  1  0.64570000  0.47400000  0.30380000  1.0 0.1214275558
H  H45  1  0.51270000  0.05860000  0.73380000  1.0 0.1271245474
H  H46  1  0.48730000  0.55860000  0.76620000  1.0 0.1271245474
H  H47  1  0.48730000  0.94140000  0.26620000  1.0 0.1271245474
H  H48  1  0.51270000  0.44140000  0.23380000  1.0 0.1271245474
H  H49  1  0.06400000  0.17300000  0.66810000  1.0 0.1408332164
H  H50  1  0.93600000  0.67300000  0.83190000  1.0 0.1408332164
H  H51  1  0.93600000  0.82700000  0.33190000  1.0 0.1408332164
H  H52  1  0.06400000  0.32700000  0.16810000  1.0 0.1408332164
H  H53  1  0.95320000  0.23380000  0.59950000  1.0 0.1408332164
H  H54  1  0.04680000  0.73380000  0.90050000  1.0 0.1408332164
H  H55  1  0.04680000  0.76620000  0.40050000  1.0 0.1408332164
H  H56  1  0.95320000  0.26620000  0.09950000  1.0 0.1408332164
H  H57  1  0.20720000  0.40130000  0.59040000  1.0 0.1271245474
H  H58  1  0.79280000  0.90130000  0.90960000  1.0 0.1271245474
H  H59  1  0.79280000  0.59870000  0.40960000  1.0 0.1271245474
H  H60  1  0.20720000  0.09870000  0.09040000  1.0 0.1271245474
H  H61  1  0.32120000  0.33900000  0.65830000  1.0 0.1214275558
H  H62  1  0.67880000  0.83900000  0.84170000  1.0 0.1214275558
H  H63  1  0.67880000  0.66100000  0.34170000  1.0 0.1214275558
H  H64  1  0.32120000  0.16100000  0.15830000  1.0 0.1214275558
H  H65  1  0.05280000  0.39080000  0.94380000  1.0 0.0888974785
H  H66  1  0.94720000  0.89080000  0.55620000  1.0 0.0888974785
H  H67  1  0.94720000  0.60920000  0.05620000  1.0 0.0888974785
H  H68  1  0.05280000  0.10920000  0.44380000  1.0 0.0888974785
H  H69  1  0.07960000  0.44460000  0.99450000  1.0 0.0998965452
H  H70  1  0.92040000  0.94460000  0.50550000  1.0 0.0998965452
H  H71  1  0.92040000  0.55540000  0.00550000  1.0 0.0998965452
H  H72  1  0.07960000  0.05540000  0.49450000  1.0 0.0998965452
H  H73  1  0.12650000  0.27970000  0.99630000  1.0 0.1214275558
H  H74  1  0.87350000  0.77970000  0.50370000  1.0 0.1214275558
H  H75  1  0.87350000  0.72030000  0.00370000  1.0 0.1214275558
H  H76  1  0.12650000  0.22030000  0.49630000  1.0 0.1214275558
H  H77  1  0.22060000  0.34340000  0.97920000  1.0 0.1214275558
H  H78  1  0.77940000  0.84340000  0.52080000  1.0 0.1214275558
H  H79  1  0.77940000  0.65660000  0.02080000  1.0 0.1214275558
H  H80  1  0.22060000  0.15660000  0.47920000  1.0 0.1214275558
H  H81  1  0.17890000  0.34680000  0.03610000  1.0 0.1214275558
H  H82  1  0.82110000  0.84680000  0.46390000  1.0 0.1214275558
H  H83  1  0.82110000  0.65320000  0.96390000  1.0 0.1214275558
H  H84  1  0.17890000  0.15320000  0.53610000  1.0 0.1214275558
H  H85  1  0.76540000  0.04600000  0.05590000  1.0 0.1408332164
H  H86  1  0.23460000  0.54600000  0.44410000  1.0 0.1408332164
H  H87  1  0.23460000  0.95400000  0.94410000  1.0 0.1408332164
H  H88  1  0.76540000  0.45400000  0.55590000  1.0 0.1408332164
H  H89  1  0.49780000  0.90740000  0.04850000  1.0 0.0998965452
H  H90  1  0.50220000  0.40740000  0.45150000  1.0 0.0998965452
H  H91  1  0.50220000  0.09260000  0.95150000  1.0 0.0998965452
H  H92  1  0.49780000  0.59260000  0.54850000  1.0 0.0998965452
H  H93  1  0.58170000  0.91190000  0.00330000  1.0 0.0998965452
H  H94  1  0.41830000  0.41190000  0.49670000  1.0 0.0998965452
H  H95  1  0.41830000  0.08810000  0.99670000  1.0 0.0998965452
H  H96  1  0.58170000  0.58810000  0.50330000  1.0 0.0998965452
H  H97  1  0.63630000  0.81660000  0.08960000  1.0 0.1408332164
H  H98  1  0.36370000  0.31660000  0.41040000  1.0 0.1408332164
H  H99  1  0.36370000  0.18340000  0.91040000  1.0 0.1408332164
H  H100  1  0.63630000  0.68340000  0.58960000  1.0 0.1408332164
H  H101  1  0.55840000  0.78550000  0.03930000  1.0 0.1572331364
H  H102  1  0.44160000  0.28550000  0.46070000  1.0 0.1572331364
H  H103  1  0.44160000  0.21450000  0.96070000  1.0 0.1572331364
H  H104  1  0.55840000  0.71450000  0.53930000  1.0 0.1572331364
H  H105  1  0.69190000  0.81250000  0.03550000  1.0 0.1497275122
H  H106  1  0.30810000  0.31250000  0.46450000  1.0 0.1497275122
H  H107  1  0.30810000  0.18750000  0.96450000  1.0 0.1497275122
H  H108  1  0.69190000  0.68750000  0.53550000  1.0 0.1497275122
H  H109  1  0.67580000  0.03160000  0.13090000  1.0 0.0998965452
H  H110  1  0.32420000  0.53160000  0.36910000  1.0 0.0998965452
H  H111  1  0.32420000  0.96840000  0.86910000  1.0 0.0998965452
H  H112  1  0.67580000  0.46840000  0.63090000  1.0 0.0998965452
H  H113  1  0.58960000  0.95680000  0.13680000  1.0 0.0998965452
H  H114  1  0.41040000  0.45680000  0.36320000  1.0 0.0998965452
H  H115  1  0.41040000  0.04320000  0.86320000  1.0 0.0998965452
H  H116  1  0.58960000  0.54320000  0.63680000  1.0 0.0998965452
H  H117  1  0.45180000  0.03280000  0.08500000  1.0 0.1497275122
H  H118  1  0.54820000  0.53280000  0.41500000  1.0 0.1497275122
H  H119  1  0.54820000  0.96720000  0.91500000  1.0 0.1497275122
H  H120  1  0.45180000  0.46720000  0.58500000  1.0 0.1497275122
H  H121  1  0.48030000  0.05740000  0.14420000  1.0 0.1408332164
H  H122  1  0.51970000  0.55740000  0.35580000  1.0 0.1408332164
H  H123  1  0.51970000  0.94260000  0.85580000  1.0 0.1408332164
H  H124  1  0.48030000  0.44260000  0.64420000  1.0 0.1408332164
H  H125  1  0.53750000  0.10710000  0.10020000  1.0 0.1497275122
H  H126  1  0.46250000  0.60710000  0.39980000  1.0 0.1497275122
H  H127  1  0.46250000  0.89290000  0.89980000  1.0 0.1497275122
H  H128  1  0.53750000  0.39290000  0.60020000  1.0 0.1497275122
C  C1  1  0.38750000  0.18970000  0.71240000  1.0 -0.0081993587
C  C2  1  0.61250000  0.68970000  0.78760000  1.0 -0.0081993587
C  C3  1  0.61250000  0.81030000  0.28760000  1.0 -0.0081993587
C  C4  1  0.38750000  0.31030000  0.21240000  1.0 -0.0081993587
C  C5  1  0.27490000  0.21210000  0.71450000  1.0 -0.0081993587
C  C6  1  0.72510000  0.71210000  0.78550000  1.0 -0.0081993587
C  C7  1  0.72510000  0.78790000  0.28550000  1.0 -0.0081993587
C  C8  1  0.27490000  0.28790000  0.21450000  1.0 -0.0081993587
C  C9  1  0.21170000  0.20550000  0.76190000  1.0 0.082429337
C  C10  1  0.78830000  0.70550000  0.73810000  1.0 0.082429337
C  C11  1  0.78830000  0.79450000  0.23810000  1.0 0.082429337
C  C12  1  0.21170000  0.29450000  0.26190000  1.0 0.082429337
C  C13  1  0.20860000  0.13390000  0.78940000  1.0 -0.1474660139
C  C14  1  0.79140000  0.63390000  0.71060000  1.0 -0.1474660139
C  C15  1  0.79140000  0.86610000  0.21060000  1.0 -0.1474660139
C  C16  1  0.20860000  0.36610000  0.28940000  1.0 -0.1474660139
C  C17  1  0.14590000  0.12790000  0.83210000  1.0 -0.0988315195
C  C18  1  0.85410000  0.62790000  0.66790000  1.0 -0.0988315195
C  C19  1  0.85410000  0.87210000  0.16790000  1.0 -0.0988315195
C  C20  1  0.14590000  0.37210000  0.33210000  1.0 -0.0988315195
C  C21  1  0.08680000  0.19420000  0.84910000  1.0 -0.0169036406
C  C22  1  0.91320000  0.69420000  0.65090000  1.0 -0.0169036406
C  C23  1  0.91320000  0.80580000  0.15090000  1.0 -0.0169036406
C  C24  1  0.08680000  0.30580000  0.34910000  1.0 -0.0169036406
C  C25  1  0.08990000  0.26590000  0.82190000  1.0 -0.0810970085
C  C26  1  0.91010000  0.76590000  0.67810000  1.0 -0.0810970085
C  C27  1  0.91010000  0.73410000  0.17810000  1.0 -0.0810970085
C  C28  1  0.08990000  0.23410000  0.32190000  1.0 -0.0810970085
C  C29  1  0.15300000  0.27110000  0.77910000  1.0 -0.1432768939
C  C30  1  0.84700000  0.77110000  0.72090000  1.0 -0.1432768939
C  C31  1  0.84700000  0.72890000  0.22090000  1.0 -0.1432768939
C  C32  1  0.15300000  0.22890000  0.27910000  1.0 -0.1432768939
C  C33  1  0.44500000  0.18800000  0.66330000  1.0 0.0743577803
C  C34  1  0.55500000  0.68800000  0.83670000  1.0 0.0743577803
C  C35  1  0.55500000  0.81200000  0.33670000  1.0 0.0743577803
C  C36  1  0.44500000  0.31200000  0.16330000  1.0 0.0743577803
C  C37  1  0.39280000  0.14990000  0.62000000  1.0 -0.1300623709
C  C38  1  0.60720000  0.64990000  0.88000000  1.0 -0.1300623709
C  C39  1  0.60720000  0.85010000  0.38000000  1.0 -0.1300623709
C  C40  1  0.39280000  0.35010000  0.12000000  1.0 -0.1300623709
C  C41  1  0.44750000  0.14710000  0.57470000  1.0 -0.0810970085
C  C42  1  0.55250000  0.64710000  0.92530000  1.0 -0.0810970085
C  C43  1  0.55250000  0.85290000  0.42530000  1.0 -0.0810970085
C  C44  1  0.44750000  0.35290000  0.07470000  1.0 -0.0810970085
C  C45  1  0.55640000  0.18330000  0.57200000  1.0 -0.0169036406
C  C46  1  0.44360000  0.68330000  0.92800000  1.0 -0.0169036406
C  C47  1  0.44360000  0.81670000  0.42800000  1.0 -0.0169036406
C  C48  1  0.55640000  0.31670000  0.07200000  1.0 -0.0169036406
C  C49  1  0.60900000  0.22150000  0.61570000  1.0 -0.0988315195
C  C50  1  0.39100000  0.72150000  0.88430000  1.0 -0.0988315195
C  C51  1  0.39100000  0.77850000  0.38430000  1.0 -0.0988315195
C  C52  1  0.60900000  0.27850000  0.11570000  1.0 -0.0988315195
C  C53  1  0.55440000  0.22220000  0.66060000  1.0 -0.1560521399
C  C54  1  0.44560000  0.72220000  0.83940000  1.0 -0.1560521399
C  C55  1  0.44560000  0.77780000  0.33940000  1.0 -0.1560521399
C  C56  1  0.55440000  0.27780000  0.16060000  1.0 -0.1560521399
C  C57  1  0.46670000  0.16740000  0.75910000  1.0 0.082429337
C  C58  1  0.53330000  0.66740000  0.74090000  1.0 0.082429337
C  C59  1  0.53330000  0.83260000  0.24090000  1.0 0.082429337
C  C60  1  0.46670000  0.33260000  0.25910000  1.0 0.082429337
C  C61  1  0.48680000  0.22060000  0.79950000  1.0 -0.1432768939
C  C62  1  0.51320000  0.72060000  0.70050000  1.0 -0.1432768939
C  C63  1  0.51320000  0.77940000  0.20050000  1.0 -0.1432768939
C  C64  1  0.48680000  0.27940000  0.29950000  1.0 -0.1432768939
C  C65  1  0.56760000  0.20300000  0.84140000  1.0 -0.0660032987
C  C66  1  0.43240000  0.70300000  0.65860000  1.0 -0.0660032987
C  C67  1  0.43240000  0.79700000  0.15860000  1.0 -0.0660032987
C  C68  1  0.56760000  0.29700000  0.34140000  1.0 -0.0660032987
C  C69  1  0.62810000  0.13160000  0.84340000  1.0 -0.0302627455
C  C70  1  0.37190000  0.63160000  0.65660000  1.0 -0.0302627455
C  C71  1  0.37190000  0.86840000  0.15660000  1.0 -0.0302627455
C  C72  1  0.62810000  0.36840000  0.34340000  1.0 -0.0302627455
C  C73  1  0.60610000  0.07640000  0.80280000  1.0 -0.0988315195
C  C74  1  0.39390000  0.57640000  0.69720000  1.0 -0.0988315195
C  C75  1  0.39390000  0.92360000  0.19720000  1.0 -0.0988315195
C  C76  1  0.60610000  0.42360000  0.30280000  1.0 -0.0988315195
C  C77  1  0.52630000  0.09590000  0.76140000  1.0 -0.1474660139
C  C78  1  0.47370000  0.59590000  0.73860000  1.0 -0.1474660139
C  C79  1  0.47370000  0.90410000  0.23860000  1.0 -0.1474660139
C  C80  1  0.52630000  0.40410000  0.26140000  1.0 -0.1474660139
C  C81  1  0.20400000  0.24950000  0.66960000  1.0 0.0888974785
C  C82  1  0.79600000  0.74950000  0.83040000  1.0 0.0888974785
C  C83  1  0.79600000  0.75050000  0.33040000  1.0 0.0888974785
C  C84  1  0.20400000  0.25050000  0.16960000  1.0 0.0888974785
C  C85  1  0.09370000  0.21920000  0.65210000  1.0 -0.1300623709
C  C86  1  0.90630000  0.71920000  0.84790000  1.0 -0.1300623709
C  C87  1  0.90630000  0.78080000  0.34790000  1.0 -0.1300623709
C  C88  1  0.09370000  0.28080000  0.15210000  1.0 -0.1300623709
C  C89  1  0.02750000  0.25570000  0.61170000  1.0 -0.0660032987
C  C90  1  0.97250000  0.75570000  0.88830000  1.0 -0.0660032987
C  C91  1  0.97250000  0.74430000  0.38830000  1.0 -0.0660032987
C  C92  1  0.02750000  0.24430000  0.11170000  1.0 -0.0660032987
C  C93  1  0.06830000  0.32410000  0.58870000  1.0 -0.0302627455
C  C94  1  0.93170000  0.82410000  0.91130000  1.0 -0.0302627455
C  C95  1  0.93170000  0.67590000  0.41130000  1.0 -0.0302627455
C  C96  1  0.06830000  0.17590000  0.08870000  1.0 -0.0302627455
C  C97  1  0.17830000  0.35470000  0.60620000  1.0 -0.0810970085
C  C98  1  0.82170000  0.85470000  0.89380000  1.0 -0.0810970085
C  C99  1  0.82170000  0.64530000  0.39380000  1.0 -0.0810970085
C  C100  1  0.17830000  0.14530000  0.10620000  1.0 -0.0810970085
C  C101  1  0.24620000  0.31770000  0.64660000  1.0 -0.1474660139
C  C102  1  0.75380000  0.81770000  0.85340000  1.0 -0.1474660139
C  C103  1  0.75380000  0.68230000  0.35340000  1.0 -0.1474660139
C  C104  1  0.24620000  0.18230000  0.14660000  1.0 -0.1474660139
C  C105  1  0.99630000  0.36550000  0.54610000  1.0 0.5838927204
C  C106  1  0.00370000  0.86550000  0.95390000  1.0 0.5838927204
C  C107  1  0.00370000  0.63450000  0.45390000  1.0 0.5838927204
C  C108  1  0.99630000  0.13450000  0.04610000  1.0 0.5838927204
C  C109  1  0.71610000  0.11130000  0.88700000  1.0 0.5717007989
C  C110  1  0.28390000  0.61130000  0.61300000  1.0 0.5717007989
C  C111  1  0.28390000  0.88870000  0.11300000  1.0 0.5717007989
C  C112  1  0.71610000  0.38870000  0.38700000  1.0 0.5717007989
C  C113  1  0.01620000  0.18670000  0.89470000  1.0 0.5838927204
C  C114  1  0.98380000  0.68670000  0.60530000  1.0 0.5838927204
C  C115  1  0.98380000  0.81330000  0.10530000  1.0 0.5838927204
C  C116  1  0.01620000  0.31330000  0.39470000  1.0 0.5838927204
C  C117  1  0.61860000  0.17960000  0.52360000  1.0 0.5593812341
C  C118  1  0.38140000  0.67960000  0.97640000  1.0 0.5593812341
C  C119  1  0.38140000  0.82040000  0.47640000  1.0 0.5593812341
C  C120  1  0.61860000  0.32040000  0.02360000  1.0 0.5593812341
C  C121  1  0.74780000  0.43810000  0.90290000  1.0 0.4152531425
C  C122  1  0.25220000  0.93810000  0.59710000  1.0 0.4152531425
C  C123  1  0.25220000  0.56190000  0.09710000  1.0 0.4152531425
C  C124  1  0.74780000  0.06190000  0.40290000  1.0 0.4152531425
C  C125  1  0.05960000  0.38950000  0.98200000  1.0 0.0589707965
C  C126  1  0.94040000  0.88950000  0.51800000  1.0 0.0589707965
C  C127  1  0.94040000  0.61050000  0.01800000  1.0 0.0589707965
C  C128  1  0.05960000  0.11050000  0.48200000  1.0 0.0589707965
C  C129  1  0.15400000  0.33550000  0.99980000  1.0 -0.4097403338
C  C130  1  0.84600000  0.83550000  0.50020000  1.0 -0.4097403338
C  C131  1  0.84600000  0.66450000  0.00020000  1.0 -0.4097403338
C  C132  1  0.15400000  0.16450000  0.49980000  1.0 -0.4097403338
C  C133  1  0.71970000  0.00700000  0.03620000  1.0 0.2006562973
C  C134  1  0.28030000  0.50700000  0.46380000  1.0 0.2006562973
C  C135  1  0.28030000  0.99300000  0.96380000  1.0 0.2006562973
C  C136  1  0.71970000  0.49300000  0.53620000  1.0 0.2006562973
C  C137  1  0.58130000  0.90510000  0.04110000  1.0 -0.0169036406
C  C138  1  0.41870000  0.40510000  0.45890000  1.0 -0.0169036406
C  C139  1  0.41870000  0.09490000  0.95890000  1.0 -0.0169036406
C  C140  1  0.58130000  0.59490000  0.54110000  1.0 -0.0169036406
C  C141  1  0.62010000  0.82330000  0.05230000  1.0 -0.3996435826
C  C142  1  0.37990000  0.32330000  0.44770000  1.0 -0.3996435826
C  C143  1  0.37990000  0.17670000  0.94770000  1.0 -0.3996435826
C  C144  1  0.62010000  0.67670000  0.55230000  1.0 -0.3996435826
C  C145  1  0.60620000  0.00290000  0.11450000  1.0 -0.0618266793
C  C146  1  0.39380000  0.50290000  0.38550000  1.0 -0.0618266793
C  C147  1  0.39380000  0.99710000  0.88550000  1.0 -0.0618266793
C  C148  1  0.60620000  0.49710000  0.61450000  1.0 -0.0618266793
C  C149  1  0.51240000  0.05360000  0.11070000  1.0 -0.390192849
C  C150  1  0.48760000  0.55360000  0.38930000  1.0 -0.390192849
C  C151  1  0.48760000  0.94640000  0.88930000  1.0 -0.390192849
C  C152  1  0.51240000  0.44640000  0.61070000  1.0 -0.390192849
C  C153  1  0.83000000  0.45390000  0.87080000  1.0 -0.59630279
C  C154  1  0.17000000  0.95390000  0.62920000  1.0 -0.59630279
C  C155  1  0.17000000  0.54610000  0.12920000  1.0 -0.59630279
C  C156  1  0.83000000  0.04610000  0.37080000  1.0 -0.59630279
N  N1  1  0.63330000  0.97200000  0.06280000  1.0 -0.0810970085
N  N2  1  0.36670000  0.47200000  0.43720000  1.0 -0.0810970085
N  N3  1  0.36670000  0.02800000  0.93720000  1.0 -0.0810970085
N  N4  1  0.63330000  0.52800000  0.56280000  1.0 -0.0810970085
O  O1  1  0.72790000  0.15790000  0.92542000  1.0 -0.5805803513
O  O2  1  0.27210000  0.65790000  0.57458000  1.0 -0.5805803513
O  O3  1  0.27210000  0.84210000  0.07458000  1.0 -0.5805803513
O  O4  1  0.72790000  0.34210000  0.42542000  1.0 -0.5805803513
O  O5  1  0.77580000  0.04810000  0.88401000  1.0 -0.5312349921
O  O6  1  0.22420000  0.54810000  0.61599000  1.0 -0.5312349921
O  O7  1  0.22420000  0.95190000  0.11599000  1.0 -0.5312349921
O  O8  1  0.77580000  0.45190000  0.38401000  1.0 -0.5312349921
O  O9  1  0.02160000  0.12190000  0.91878000  1.0 -0.5526177909
O  O10  1  0.97840000  0.62190000  0.58122000  1.0 -0.5526177909
O  O11  1  0.97840000  0.87810000  0.08122000  1.0 -0.5526177909
O  O12  1  0.02160000  0.37810000  0.41878000  1.0 -0.5526177909
O  O13  1  0.95540000  0.24850000  0.90458000  1.0 -0.5312349921
O  O14  1  0.04460000  0.74850000  0.59542000  1.0 -0.5312349921
O  O15  1  0.04460000  0.75150000  0.09542000  1.0 -0.5312349921
O  O16  1  0.95540000  0.25150000  0.40458000  1.0 -0.5312349921
O  O17  1  0.71070000  0.21920000  0.52338000  1.0 -0.5526177909
O  O18  1  0.28930000  0.71920000  0.97662000  1.0 -0.5526177909
O  O19  1  0.28930000  0.78080000  0.47662000  1.0 -0.5526177909
O  O20  1  0.71070000  0.28080000  0.02338000  1.0 -0.5526177909
O  O21  1  0.57400000  0.13720000  0.48750000  1.0 -0.4492628028
O  O22  1  0.42600000  0.63720000  0.01250000  1.0 -0.4492628028
O  O23  1  0.42600000  0.86280000  0.51250000  1.0 -0.4492628028
O  O24  1  0.57400000  0.36280000  0.98750000  1.0 -0.4492628028
O  O25  1  0.01980000  0.43650000  0.53498000  1.0 -0.5357182746
O  O26  1  0.98020000  0.93650000  0.96502000  1.0 -0.5357182746
O  O27  1  0.98020000  0.56350000  0.46502000  1.0 -0.5357182746
O  O28  1  0.01980000  0.06350000  0.03498000  1.0 -0.5357182746
O  O29  1  0.91180000  0.32950000  0.52229000  1.0 -0.5526177909
O  O30  1  0.08820000  0.82950000  0.97771000  1.0 -0.5526177909
O  O31  1  0.08820000  0.67050000  0.47771000  1.0 -0.5526177909
O  O32  1  0.91180000  0.17050000  0.02229000  1.0 -0.5526177909
O  O33  1  0.71390000  0.35840000  0.91478000  1.0 -0.4598003415
O  O34  1  0.28610000  0.85840000  0.58522000  1.0 -0.4598003415
O  O35  1  0.28610000  0.64160000  0.08522000  1.0 -0.4598003415
O  O36  1  0.71390000  0.14160000  0.41478000  1.0 -0.4598003415
O  O37  1  0.94860000  0.36720000  0.99880000  1.0 -0.4598003415
O  O38  1  0.05140000  0.86720000  0.50120000  1.0 -0.4598003415
O  O39  1  0.05140000  0.63280000  0.00120000  1.0 -0.4598003415
O  O40  1  0.94860000  0.13280000  0.49880000  1.0 -0.4598003415
O  O41  1  0.74440000  0.99970000  0.00010000  1.0 -0.3243544747
O  O42  1  0.25560000  0.49970000  0.49990000  1.0 -0.3243544747
O  O43  1  0.25560000  0.00030000  0.99990000  1.0 -0.3243544747
O  O44  1  0.74440000  0.50030000  0.50010000  1.0 -0.3243544747
