# DDEC6 charges by PACMAN v1.1 (https://github.com/mtap-research/PACMAN-charge/)
data_KATHOG_ASR_pacman
_symmetry_space_group_name_H-M   'P 1'
_cell_length_a   38.11540000
_cell_length_b   38.11540000
_cell_length_c   38.31950000
_cell_angle_alpha   70.63900000
_cell_angle_beta   109.36100000
_cell_angle_gamma   70.76500000
_symmetry_Int_Tables_number   1
_chemical_formula_structural   U6H98C145O36
_chemical_formula_sum   'U12 H196 C290 O72'
_cell_volume   43094.52143359
_cell_formula_units_Z   2
loop_
 _symmetry_equiv_pos_site_id
 _symmetry_equiv_pos_as_xyz
  1  'x, y, z'
loop_
 _atom_site_type_symbol
 _atom_site_label
 _atom_site_symmetry_multiplicity
 _atom_site_fract_x
 _atom_site_fract_y
 _atom_site_fract_z
 _atom_site_occupancy
 _atom_site_charge
U  U1  1  0.36736000  0.12070000  0.01855000  1.0 2.0692371576
U  U2  1  0.59340000  0.17560000  0.74521000  1.0 2.0638953893
U  U3  1  0.32874000  0.39646000  0.24628000  1.0 2.1693391054
U  U4  1  0.09132000  0.89524000  0.96065000  1.0 2.1039559095
U  U5  1  0.12070000  0.36736000  0.98145000  1.0 2.0638953893
U  U6  1  0.17560000  0.59340000  0.25479000  1.0 2.0638953893
U  U7  1  0.39646000  0.32874000  0.75372000  1.0 2.1693391054
U  U8  1  0.89524000  0.09132000  0.03935000  1.0 2.1114120929
U  U9  1  0.14637000  0.39763000  0.24969000  1.0 2.0039570778
U  U10  1  0.39763000  0.14637000  0.75031000  1.0 2.0039570778
U  U11  1  0.89583000  0.89583000  0.00000000  1.0 2.1540824621
U  U12  1  0.14676000  0.14676000  0.00000000  1.0 2.1114120929
H  H1  1  0.44820000  0.18040000  0.96380000  1.0 0.1202695725
H  H2  1  0.44200000  0.08940000  0.93460000  1.0 0.1101946971
H  H3  1  0.31410000  0.17730000  0.10410000  1.0 0.1202695725
H  H4  1  0.40680000  0.20040000  0.08980000  1.0 0.1202695725
H  H5  1  0.26700000  0.06760000  0.03180000  1.0 0.1202695725
H  H6  1  0.31280000  0.04160000  0.95700000  1.0 0.1288057461
H  H7  1  0.47520000  0.10340000  0.89450000  1.0 0.1202695725
H  H8  1  0.39590000  0.24230000  0.12550000  1.0 0.1101946971
H  H9  1  0.22630000  0.03470000  0.01820000  1.0 0.1202695725
H  H10  1  0.47860000  0.22540000  0.89390000  1.0 0.1378672867
H  H11  1  0.47250000  0.22510000  0.93300000  1.0 0.1288057461
H  H12  1  0.51750000  0.19390000  0.94100000  1.0 0.1288057461
H  H13  1  0.29710000  0.19590000  0.16390000  1.0 0.1378672867
H  H14  1  0.29360000  0.24100000  0.15460000  1.0 0.1202695725
H  H15  1  0.26640000  0.23560000  0.11730000  1.0 0.1288057461
H  H16  1  0.24070000  0.01170000  0.91140000  1.0 0.1202695725
H  H17  1  0.28500000  0.00840000  0.91710000  1.0 0.1288057461
H  H18  1  0.28420000  0.97000000  0.94890000  1.0 0.1202695725
H  H19  1  0.44800000  0.19260000  0.82950000  1.0 0.1101946971
H  H20  1  0.31430000  0.31890000  0.10170000  1.0 0.1202695725
H  H21  1  0.16450000  0.05090000  0.93240000  1.0 0.1202695725
H  H22  1  0.59500000  0.12760000  0.88090000  1.0 0.1202695725
H  H23  1  0.47430000  0.20390000  0.78230000  1.0 0.1202695725
H  H24  1  0.38650000  0.25610000  0.24960000  1.0 0.1288057461
H  H25  1  0.39250000  0.18510000  0.25090000  1.0 0.1202695725
H  H26  1  0.37370000  0.18710000  0.20630000  1.0 0.1029458138
H  H27  1  0.42040000  0.18040000  0.22820000  1.0 0.1202695725
H  H28  1  0.31210000  0.36170000  0.13340000  1.0 0.1202695725
H  H29  1  0.12020000  0.02080000  0.92500000  1.0 0.1202695725
H  H30  1  0.22320000  0.90300000  0.00640000  1.0 0.1288057461
H  H31  1  0.29180000  0.91380000  0.05510000  1.0 0.1202695725
H  H32  1  0.29580000  0.89720000  0.02300000  1.0 0.1202695725
H  H33  1  0.30020000  0.93820000  0.01890000  1.0 0.1101946971
H  H34  1  0.45640000  0.26620000  0.60590000  1.0 0.1288057461
H  H35  1  0.56200000  0.24340000  0.59420000  1.0 0.1202695725
H  H36  1  0.74350000  0.05830000  0.85720000  1.0 0.1101946971
H  H37  1  0.73520000  0.12700000  0.74600000  1.0 0.1202695725
H  H38  1  0.25900000  0.55160000  0.20640000  1.0 0.1202695725
H  H39  1  0.25290000  0.53150000  0.10940000  1.0 0.1202695725
H  H40  1  0.51950000  0.28030000  0.52050000  1.0 0.1202695725
H  H41  1  0.81700000  0.01620000  0.88670000  1.0 0.1288057461
H  H42  1  0.21310000  0.62950000  0.15690000  1.0 0.1101946971
H  H43  1  0.38340000  0.33160000  0.53170000  1.0 0.1202695725
H  H44  1  0.38210000  0.32290000  0.49370000  1.0 0.1202695725
H  H45  1  0.38860000  0.28740000  0.53520000  1.0 0.1288057461
H  H46  1  0.84790000  0.06930000  0.78280000  1.0 0.1029458138
H  H47  1  0.81000000  0.07220000  0.74630000  1.0 0.1202695725
H  H48  1  0.80710000  0.11430000  0.74700000  1.0 0.1202695725
H  H49  1  0.23060000  0.61500000  0.04220000  1.0 0.1202695725
H  H50  1  0.20520000  0.58960000  0.03860000  1.0 0.1202695725
H  H51  1  0.18180000  0.63720000  0.02940000  1.0 0.1202695725
H  H52  1  0.45250000  0.25730000  0.47140000  1.0 0.1202695725
H  H53  1  0.86830000  0.96790000  0.86690000  1.0 0.1101946971
H  H54  1  0.24730000  0.67210000  0.09390000  1.0 0.1101946971
H  H55  1  0.38280000  0.40480000  0.38280000  1.0 0.1202695725
H  H56  1  0.43970000  0.39910000  0.45410000  1.0 0.1378672867
H  H57  1  0.39620000  0.40820000  0.45460000  1.0 0.1288057461
H  H58  1  0.44010000  0.36890000  0.49450000  1.0 0.1202695725
H  H59  1  0.41470000  0.28670000  0.39780000  1.0 0.1029458138
H  H60  1  0.95620000  0.02880000  0.88300000  1.0 0.1288057461
H  H61  1  0.86420000  0.10640000  0.81450000  1.0 0.1101946971
H  H62  1  0.86290000  0.09910000  0.85710000  1.0 0.1202695725
H  H63  1  0.90560000  0.09240000  0.85570000  1.0 0.1202695725
H  H64  1  0.94220000  0.92480000  0.90190000  1.0 0.1202695725
H  H65  1  0.21420000  0.74600000  0.05160000  1.0 0.1101946971
H  H66  1  0.09870000  0.75390000  0.01970000  1.0 0.1202695725
H  H67  1  0.12270000  0.66590000  0.09250000  1.0 0.1378672867
H  H68  1  0.09150000  0.69250000  0.04250000  1.0 0.1378672867
H  H69  1  0.13140000  0.64680000  0.06330000  1.0 0.1288057461
H  H70  1  0.18040000  0.44820000  0.03620000  1.0 0.1202695725
H  H71  1  0.08940000  0.44200000  0.06540000  1.0 0.1101946971
H  H72  1  0.17730000  0.31410000  0.89590000  1.0 0.1202695725
H  H73  1  0.20040000  0.40680000  0.91020000  1.0 0.1202695725
H  H74  1  0.06760000  0.26700000  0.96820000  1.0 0.1202695725
H  H75  1  0.04160000  0.31280000  0.04300000  1.0 0.1288057461
H  H76  1  0.10340000  0.47520000  0.10550000  1.0 0.1202695725
H  H77  1  0.24230000  0.39590000  0.87450000  1.0 0.1101946971
H  H78  1  0.03470000  0.22630000  0.98180000  1.0 0.1202695725
H  H79  1  0.22540000  0.47860000  0.10610000  1.0 0.1378672867
H  H80  1  0.22510000  0.47250000  0.06700000  1.0 0.1288057461
H  H81  1  0.19390000  0.51750000  0.05900000  1.0 0.1288057461
H  H82  1  0.19590000  0.29710000  0.83610000  1.0 0.1378672867
H  H83  1  0.24100000  0.29360000  0.84540000  1.0 0.1202695725
H  H84  1  0.23560000  0.26640000  0.88270000  1.0 0.1288057461
H  H85  1  0.01170000  0.24070000  0.08860000  1.0 0.1202695725
H  H86  1  0.00840000  0.28500000  0.08290000  1.0 0.1202695725
H  H87  1  0.97000000  0.28420000  0.05110000  1.0 0.1202695725
H  H88  1  0.19260000  0.44800000  0.17050000  1.0 0.1101946971
H  H89  1  0.31890000  0.31430000  0.89830000  1.0 0.1202695725
H  H90  1  0.05090000  0.16450000  0.06760000  1.0 0.1202695725
H  H91  1  0.12760000  0.59500000  0.11910000  1.0 0.1202695725
H  H92  1  0.20390000  0.47430000  0.21770000  1.0 0.1202695725
H  H93  1  0.25610000  0.38650000  0.75040000  1.0 0.1288057461
H  H94  1  0.18510000  0.39250000  0.74910000  1.0 0.1202695725
H  H95  1  0.18710000  0.37370000  0.79370000  1.0 0.1029458138
H  H96  1  0.18040000  0.42040000  0.77180000  1.0 0.1202695725
H  H97  1  0.36170000  0.31210000  0.86660000  1.0 0.1202695725
H  H98  1  0.02080000  0.12020000  0.07500000  1.0 0.1202695725
H  H99  1  0.90300000  0.22320000  0.99360000  1.0 0.1288057461
H  H100  1  0.91380000  0.29180000  0.94490000  1.0 0.1202695725
H  H101  1  0.89720000  0.29580000  0.97700000  1.0 0.1202695725
H  H102  1  0.93820000  0.30020000  0.98110000  1.0 0.1101946971
H  H103  1  0.26620000  0.45640000  0.39410000  1.0 0.1288057461
H  H104  1  0.24340000  0.56200000  0.40580000  1.0 0.1202695725
H  H105  1  0.05830000  0.74350000  0.14280000  1.0 0.1101946971
H  H106  1  0.12700000  0.73520000  0.25400000  1.0 0.1202695725
H  H107  1  0.55160000  0.25900000  0.79360000  1.0 0.1202695725
H  H108  1  0.53150000  0.25290000  0.89060000  1.0 0.1202695725
H  H109  1  0.28030000  0.51950000  0.47950000  1.0 0.1202695725
H  H110  1  0.01620000  0.81700000  0.11330000  1.0 0.1288057461
H  H111  1  0.62950000  0.21310000  0.84310000  1.0 0.1101946971
H  H112  1  0.33160000  0.38340000  0.46830000  1.0 0.1202695725
H  H113  1  0.32290000  0.38210000  0.50630000  1.0 0.1202695725
H  H114  1  0.28740000  0.38860000  0.46480000  1.0 0.1288057461
H  H115  1  0.06930000  0.84790000  0.21720000  1.0 0.1029458138
H  H116  1  0.07220000  0.81000000  0.25370000  1.0 0.1202695725
H  H117  1  0.11430000  0.80710000  0.25300000  1.0 0.1202695725
H  H118  1  0.61500000  0.23060000  0.95780000  1.0 0.1202695725
H  H119  1  0.58960000  0.20520000  0.96140000  1.0 0.1202695725
H  H120  1  0.63720000  0.18180000  0.97060000  1.0 0.1202695725
H  H121  1  0.25730000  0.45250000  0.52860000  1.0 0.1202695725
H  H122  1  0.96790000  0.86830000  0.13310000  1.0 0.1101946971
H  H123  1  0.67210000  0.24730000  0.90610000  1.0 0.1101946971
H  H124  1  0.40480000  0.38280000  0.61720000  1.0 0.1202695725
H  H125  1  0.39910000  0.43970000  0.54590000  1.0 0.1378672867
H  H126  1  0.40820000  0.39620000  0.54540000  1.0 0.1288057461
H  H127  1  0.36890000  0.44010000  0.50550000  1.0 0.1202695725
H  H128  1  0.28670000  0.41470000  0.60220000  1.0 0.1029458138
H  H129  1  0.02880000  0.95620000  0.11700000  1.0 0.1288057461
H  H130  1  0.10640000  0.86420000  0.18550000  1.0 0.1101946971
H  H131  1  0.09910000  0.86290000  0.14290000  1.0 0.1202695725
H  H132  1  0.09240000  0.90560000  0.14430000  1.0 0.1202695725
H  H133  1  0.92480000  0.94220000  0.09810000  1.0 0.1202695725
H  H134  1  0.74600000  0.21420000  0.94840000  1.0 0.1101946971
H  H135  1  0.75390000  0.09870000  0.98030000  1.0 0.1202695725
H  H136  1  0.66590000  0.12270000  0.90750000  1.0 0.1378672867
H  H137  1  0.69250000  0.09150000  0.95750000  1.0 0.1378672867
H  H138  1  0.64680000  0.13140000  0.93670000  1.0 0.1288057461
H  H139  1  0.11330000  0.32570000  0.09920000  1.0 0.1288057461
H  H140  1  0.10920000  0.37020000  0.12890000  1.0 0.1202695725
H  H141  1  0.19820000  0.26780000  0.24510000  1.0 0.1288057461
H  H142  1  0.19420000  0.26640000  0.10690000  1.0 0.1101946971
H  H143  1  0.19690000  0.23050000  0.06820000  1.0 0.1202695725
H  H144  1  0.13610000  0.17570000  0.11420000  1.0 0.1288057461
H  H145  1  0.20910000  0.38770000  0.39560000  1.0 0.1288057461
H  H146  1  0.28000000  0.23880000  0.46930000  1.0 0.1101946971
H  H147  1  0.24070000  0.27590000  0.39520000  1.0 0.1101946971
H  H148  1  0.05120000  0.53700000  0.11610000  1.0 0.1288057461
H  H149  1  0.05740000  0.62300000  0.17790000  1.0 0.1202695725
H  H150  1  0.09650000  0.54890000  0.22030000  1.0 0.1101946971
H  H151  1  0.05900000  0.68000000  0.10580000  1.0 0.1288057461
H  H152  1  0.02170000  0.75450000  0.06900000  1.0 0.1202695725
H  H153  1  0.91060000  0.75340000  0.04300000  1.0 0.1202695725
H  H154  1  0.21330000  0.19230000  0.20750000  1.0 0.1101946971
H  H155  1  0.24530000  0.20350000  0.23420000  1.0 0.1202695725
H  H156  1  0.21410000  0.19270000  0.24900000  1.0 0.1202695725
H  H157  1  0.09270000  0.21730000  0.14020000  1.0 0.1202695725
H  H158  1  0.13590000  0.18030000  0.18220000  1.0 0.1288057461
H  H159  1  0.11910000  0.22830000  0.17230000  1.0 0.1202695725
H  H160  1  0.22770000  0.39050000  0.45940000  1.0 0.1378672867
H  H161  1  0.23030000  0.35230000  0.49540000  1.0 0.1288057461
H  H162  1  0.27270000  0.35270000  0.49860000  1.0 0.1202695725
H  H163  1  0.02340000  0.91380000  0.03590000  1.0 0.1288057461
H  H164  1  0.97023000  0.63697000  0.04883000  1.0 0.1101946971
H  H165  1  0.00760000  0.63960000  0.04060000  1.0 0.1202695725
H  H166  1  0.00150000  0.59930000  0.04660000  1.0 0.1202695725
H  H167  1  0.08650000  0.06090000  0.95750000  1.0 0.1101946971
H  H168  1  0.32570000  0.11330000  0.90080000  1.0 0.1288057461
H  H169  1  0.37020000  0.10920000  0.87110000  1.0 0.1202695725
H  H170  1  0.26780000  0.19820000  0.75490000  1.0 0.1288057461
H  H171  1  0.26640000  0.19420000  0.89310000  1.0 0.1101946971
H  H172  1  0.23050000  0.19690000  0.93180000  1.0 0.1202695725
H  H173  1  0.17570000  0.13610000  0.88580000  1.0 0.1288057461
H  H174  1  0.38770000  0.20910000  0.60440000  1.0 0.1288057461
H  H175  1  0.23880000  0.28000000  0.53070000  1.0 0.1101946971
H  H176  1  0.27590000  0.24070000  0.60480000  1.0 0.1101946971
H  H177  1  0.53700000  0.05120000  0.88390000  1.0 0.1288057461
H  H178  1  0.62300000  0.05740000  0.82210000  1.0 0.1202695725
H  H179  1  0.54890000  0.09650000  0.77970000  1.0 0.1101946971
H  H180  1  0.68000000  0.05900000  0.89420000  1.0 0.1288057461
H  H181  1  0.75450000  0.02170000  0.93100000  1.0 0.1202695725
H  H182  1  0.75340000  0.91060000  0.95700000  1.0 0.1202695725
H  H183  1  0.19230000  0.21330000  0.79250000  1.0 0.1101946971
H  H184  1  0.20350000  0.24530000  0.76580000  1.0 0.1202695725
H  H185  1  0.19270000  0.21410000  0.75100000  1.0 0.1202695725
H  H186  1  0.21730000  0.09270000  0.85980000  1.0 0.1202695725
H  H187  1  0.18030000  0.13590000  0.81780000  1.0 0.1288057461
H  H188  1  0.22830000  0.11910000  0.82770000  1.0 0.1202695725
H  H189  1  0.39050000  0.22770000  0.54060000  1.0 0.1378672867
H  H190  1  0.35230000  0.23030000  0.50460000  1.0 0.1288057461
H  H191  1  0.35270000  0.27270000  0.50140000  1.0 0.1202695725
H  H192  1  0.91380000  0.02340000  0.96410000  1.0 0.1288057461
H  H193  1  0.63697000  0.97023000  0.95117000  1.0 0.1101946971
H  H194  1  0.63960000  0.00760000  0.95940000  1.0 0.1202695725
H  H195  1  0.59930000  0.00150000  0.95340000  1.0 0.1202695725
H  H196  1  0.06090000  0.08650000  0.04250000  1.0 0.1101946971
C  C1  1  0.42470000  0.12530000  0.97860000  1.0 0.4884778196
C  C2  1  0.35660000  0.16660000  0.06890000  1.0 0.4990335031
C  C3  1  0.31890000  0.08110000  0.00070000  1.0 0.5174648711
C  C4  1  0.44190000  0.13350000  0.95310000  1.0 -0.0891658829
C  C5  1  0.35800000  0.18700000  0.09360000  1.0 -0.0588926786
C  C6  1  0.29380000  0.05780000  0.99570000  1.0 -0.0105707305
C  C7  1  0.45360000  0.16480000  0.94980000  1.0 -0.1217862571
C  C8  1  0.45000000  0.11060000  0.93240000  1.0 -0.0891658829
C  C9  1  0.33160000  0.18960000  0.10920000  1.0 -0.1504396044
C  C10  1  0.38680000  0.20400000  0.09930000  1.0 -0.0697338675
C  C11  1  0.26810000  0.05570000  0.01400000  1.0 -0.1276808606
C  C12  1  0.29540000  0.04020000  0.96940000  1.0 -0.1794673286
C  C13  1  0.47340000  0.17320000  0.92590000  1.0 0.1288057461
C  C14  1  0.46970000  0.11890000  0.90850000  1.0 -0.1504396044
C  C15  1  0.32900000  0.21080000  0.13360000  1.0 0.1029458138
C  C16  1  0.38050000  0.22770000  0.12240000  1.0 -0.1504396044
C  C17  1  0.24370000  0.03610000  0.00580000  1.0 -0.1504396044
C  C18  1  0.27110000  0.02050000  0.96130000  1.0 0.1101946971
C  C19  1  0.48160000  0.15020000  0.90540000  1.0 0.008793974
C  C20  1  0.48680000  0.20760000  0.92320000  1.0 -0.4489865975
C  C21  1  0.35520000  0.23020000  0.13870000  1.0 0.008793974
C  C22  1  0.29340000  0.22180000  0.14310000  1.0 -0.4725493939
C  C23  1  0.24530000  0.01850000  0.97950000  1.0 0.0186385013
C  C24  1  0.27020000  0.00080000  0.93200000  1.0 -0.4489865975
C  C25  1  0.50580000  0.15340000  0.88330000  1.0 0.0431041651
C  C26  1  0.35180000  0.26200000  0.15670000  1.0 0.0186385013
C  C27  1  0.22030000  0.99490000  0.97380000  1.0 0.008793974
C  C28  1  0.54970000  0.13390000  0.89880000  1.0 0.0613774507
C  C29  1  0.47770000  0.17950000  0.83990000  1.0 -0.1594693375
C  C30  1  0.37340000  0.24320000  0.20090000  1.0 0.1101946971
C  C31  1  0.32900000  0.30620000  0.13160000  1.0 -0.1794673286
C  C32  1  0.17640000  0.02100000  0.94740000  1.0 -0.1708274452
C  C33  1  0.23780000  0.95080000  0.99590000  1.0 0.1029458138
C  C34  1  0.56530000  0.14070000  0.87050000  1.0 -0.1403840006
C  C35  1  0.57480000  0.10760000  0.94380000  1.0 -0.1080900804
C  C36  1  0.49340000  0.18620000  0.81170000  1.0 -0.1276808606
C  C37  1  0.37200000  0.26880000  0.21970000  1.0 -0.1878672392
C  C38  1  0.39170000  0.19450000  0.22370000  1.0 -0.4419775482
C  C39  1  0.32760000  0.33180000  0.15050000  1.0 -0.1080900804
C  C40  1  0.14990000  0.00310000  0.94290000  1.0 -0.1217862571
C  C41  1  0.21140000  0.93280000  0.99150000  1.0 -0.1794673286
C  C42  1  0.28580000  0.92240000  0.02600000  1.0 -0.4300587427
C  C43  1  0.53720000  0.16680000  0.82710000  1.0 -0.0202565376
C  C44  1  0.34900000  0.31300000  0.19450000  1.0 0.0020414945
C  C45  1  0.16740000  0.95900000  0.96500000  1.0 -0.0105707305
C  C46  1  0.55830000  0.17110000  0.79820000  1.0 0.5287918001
C  C47  1  0.34600000  0.34020000  0.21700000  1.0 0.4814931123
C  C48  1  0.13990000  0.93790000  0.96070000  1.0 0.4990335031
C  C49  1  0.53630000  0.22950000  0.65730000  1.0 0.4990335031
C  C50  1  0.68930000  0.12390000  0.77970000  1.0 0.4814931123
C  C51  1  0.28180000  0.48940000  0.18770000  1.0 0.5470233112
C  C52  1  0.51340000  0.25120000  0.60730000  1.0 0.008793974
C  C53  1  0.73230000  0.09670000  0.79880000  1.0 -0.0891658829
C  C54  1  0.25850000  0.53690000  0.16130000  1.0 -0.0202565376
C  C55  1  0.46920000  0.26900000  0.58870000  1.0 -0.1794673286
C  C56  1  0.53220000  0.25540000  0.58180000  1.0 -0.1011241054
C  C57  1  0.75670000  0.06370000  0.84070000  1.0 -0.0697338675
C  C58  1  0.75170000  0.10470000  0.77430000  1.0 -0.1403840006
C  C59  1  0.24900000  0.56280000  0.17710000  1.0 -0.1011241054
C  C60  1  0.24560000  0.55060000  0.11960000  1.0 -0.1878672392
C  C61  1  0.44380000  0.29120000  0.54460000  1.0 0.1202695725
C  C62  1  0.50670000  0.27750000  0.53760000  1.0 -0.1504396044
C  C63  1  0.80050000  0.03850000  0.85830000  1.0 -0.1708274452
C  C64  1  0.79550000  0.07950000  0.79190000  1.0 0.1029458138
C  C65  1  0.22120000  0.61100000  0.14630000  1.0 -0.1504396044
C  C66  1  0.22120000  0.59380000  0.09340000  1.0 0.1288057461
C  C67  1  0.46260000  0.29540000  0.51910000  1.0 0.008793974
C  C68  1  0.39500000  0.31000000  0.52450000  1.0 -0.4725493939
C  C69  1  0.81990000  0.04650000  0.83390000  1.0 0.0186385013
C  C70  1  0.81710000  0.08430000  0.76440000  1.0 -0.4419775482
C  C71  1  0.20870000  0.62690000  0.10590000  1.0 0.0186385013
C  C72  1  0.20860000  0.61040000  0.04670000  1.0 -0.4300587427
C  C73  1  0.44010000  0.31350000  0.47100000  1.0 0.0186385013
C  C74  1  0.86810000  0.02410000  0.85400000  1.0 0.0020414945
C  C75  1  0.19280000  0.66900000  0.08200000  1.0 -0.0105707305
C  C76  1  0.41930000  0.35750000  0.44460000  1.0 0.1101946971
C  C77  1  0.43840000  0.28700000  0.45360000  1.0 -0.1794673286
C  C78  1  0.89430000  0.04230000  0.85880000  1.0 0.1101946971
C  C79  1  0.88600000  0.98020000  0.87010000  1.0 -0.1594693375
C  C80  1  0.21740000  0.68860000  0.07900000  1.0 -0.1276808606
C  C81  1  0.14840000  0.69340000  0.05990000  1.0 0.1288057461
C  C82  1  0.39690000  0.37510000  0.40070000  1.0 -0.1504396044
C  C83  1  0.42420000  0.38600000  0.46360000  1.0 -0.4587495875
C  C84  1  0.41600000  0.30460000  0.40960000  1.0 -0.0697338675
C  C85  1  0.93840000  0.01660000  0.87970000  1.0 -0.1708274452
C  C86  1  0.88040000  0.08940000  0.84520000  1.0 -0.4300587427
C  C87  1  0.93010000  0.95450000  0.89100000  1.0 -0.1403840006
C  C88  1  0.19760000  0.73280000  0.05360000  1.0 -0.1217862571
C  C89  1  0.12870000  0.73750000  0.03460000  1.0 -0.1878672392
C  C90  1  0.12100000  0.67280000  0.06500000  1.0 -0.4587495875
C  C91  1  0.39520000  0.34860000  0.38320000  1.0 -0.0477261898
C  C92  1  0.95640000  0.97260000  0.89590000  1.0 -0.0255409406
C  C93  1  0.15330000  0.75710000  0.03160000  1.0 0.0020414945
C  C94  1  0.38020000  0.36280000  0.34560000  1.0 0.3205983489
C  C95  1  0.00430000  0.94690000  0.92160000  1.0 0.4884778196
C  C96  1  0.13130000  0.80450000  0.00700000  1.0 0.4990335031
C  C97  1  0.12530000  0.42470000  0.02140000  1.0 0.4884778196
C  C98  1  0.16660000  0.35660000  0.93110000  1.0 0.4990335031
C  C99  1  0.08110000  0.31890000  0.99930000  1.0 0.5174648711
C  C100  1  0.13350000  0.44190000  0.04690000  1.0 -0.0891658829
C  C101  1  0.18700000  0.35800000  0.90640000  1.0 -0.0588926786
C  C102  1  0.05780000  0.29380000  0.00430000  1.0 -0.0105707305
C  C103  1  0.16480000  0.45360000  0.05020000  1.0 -0.1217862571
C  C104  1  0.11060000  0.45000000  0.06760000  1.0 -0.0891658829
C  C105  1  0.18960000  0.33160000  0.89080000  1.0 -0.1504396044
C  C106  1  0.20400000  0.38680000  0.90070000  1.0 -0.0697338675
C  C107  1  0.05570000  0.26810000  0.98600000  1.0 -0.1276808606
C  C108  1  0.04020000  0.29540000  0.03060000  1.0 -0.1794673286
C  C109  1  0.17320000  0.47340000  0.07410000  1.0 0.1288057461
C  C110  1  0.11890000  0.46970000  0.09150000  1.0 -0.1504396044
C  C111  1  0.21080000  0.32900000  0.86640000  1.0 0.1029458138
C  C112  1  0.22770000  0.38050000  0.87760000  1.0 -0.1504396044
C  C113  1  0.03610000  0.24370000  0.99420000  1.0 -0.1504396044
C  C114  1  0.02050000  0.27110000  0.03870000  1.0 0.1101946971
C  C115  1  0.15020000  0.48160000  0.09460000  1.0 0.008793974
C  C116  1  0.20760000  0.48680000  0.07680000  1.0 -0.4489865975
C  C117  1  0.23020000  0.35520000  0.86130000  1.0 0.008793974
C  C118  1  0.22180000  0.29340000  0.85690000  1.0 -0.4725493939
C  C119  1  0.01850000  0.24530000  0.02050000  1.0 0.0186385013
C  C120  1  0.00080000  0.27020000  0.06800000  1.0 -0.4489865975
C  C121  1  0.15340000  0.50580000  0.11670000  1.0 0.0431041651
C  C122  1  0.26200000  0.35180000  0.84330000  1.0 0.0186385013
C  C123  1  0.99490000  0.22030000  0.02620000  1.0 0.008793974
C  C124  1  0.13390000  0.54970000  0.10120000  1.0 0.0613774507
C  C125  1  0.17950000  0.47770000  0.16010000  1.0 -0.1594693375
C  C126  1  0.24320000  0.37340000  0.79910000  1.0 0.1101946971
C  C127  1  0.30620000  0.32900000  0.86840000  1.0 -0.1794673286
C  C128  1  0.02100000  0.17640000  0.05260000  1.0 -0.1708274452
C  C129  1  0.95080000  0.23780000  0.00410000  1.0 0.1029458138
C  C130  1  0.14070000  0.56530000  0.12950000  1.0 -0.1403840006
C  C131  1  0.10760000  0.57480000  0.05620000  1.0 -0.1080900804
C  C132  1  0.18620000  0.49340000  0.18830000  1.0 -0.1276808606
C  C133  1  0.26880000  0.37200000  0.78030000  1.0 -0.1878672392
C  C134  1  0.19450000  0.39170000  0.77630000  1.0 -0.4419775482
C  C135  1  0.33180000  0.32760000  0.84950000  1.0 -0.1080900804
C  C136  1  0.00310000  0.14990000  0.05710000  1.0 -0.1080900804
C  C137  1  0.93280000  0.21140000  0.00850000  1.0 -0.1794673286
C  C138  1  0.92240000  0.28580000  0.97400000  1.0 -0.4300587427
C  C139  1  0.16680000  0.53720000  0.17290000  1.0 -0.0105707305
C  C140  1  0.31300000  0.34900000  0.80550000  1.0 0.0020414945
C  C141  1  0.95900000  0.16740000  0.03500000  1.0 -0.0105707305
C  C142  1  0.17110000  0.55830000  0.20180000  1.0 0.5287918001
C  C143  1  0.34020000  0.34600000  0.78300000  1.0 0.4884778196
C  C144  1  0.93790000  0.13990000  0.03930000  1.0 0.4990335031
C  C145  1  0.22950000  0.53630000  0.34270000  1.0 0.4990335031
C  C146  1  0.12390000  0.68930000  0.22030000  1.0 0.4814931123
C  C147  1  0.48940000  0.28180000  0.81230000  1.0 0.5470233112
C  C148  1  0.25120000  0.51340000  0.39270000  1.0 0.008793974
C  C149  1  0.09670000  0.73230000  0.20120000  1.0 -0.0891658829
C  C150  1  0.53690000  0.25850000  0.83870000  1.0 -0.0202565376
C  C151  1  0.26900000  0.46920000  0.41130000  1.0 -0.1794673286
C  C152  1  0.25540000  0.53220000  0.41820000  1.0 -0.1011241054
C  C153  1  0.06370000  0.75670000  0.15930000  1.0 -0.0697338675
C  C154  1  0.10470000  0.75170000  0.22570000  1.0 -0.1403840006
C  C155  1  0.56280000  0.24900000  0.82290000  1.0 -0.1011241054
C  C156  1  0.55060000  0.24560000  0.88040000  1.0 -0.1878672392
C  C157  1  0.29120000  0.44380000  0.45540000  1.0 0.1202695725
C  C158  1  0.27750000  0.50670000  0.46240000  1.0 -0.1504396044
C  C159  1  0.03850000  0.80050000  0.14170000  1.0 -0.1708274452
C  C160  1  0.07950000  0.79550000  0.20810000  1.0 0.1029458138
C  C161  1  0.61100000  0.22120000  0.85370000  1.0 -0.1504396044
C  C162  1  0.59380000  0.22120000  0.90660000  1.0 0.1288057461
C  C163  1  0.29540000  0.46260000  0.48090000  1.0 0.008793974
C  C164  1  0.31000000  0.39500000  0.47550000  1.0 -0.4725493939
C  C165  1  0.04650000  0.81990000  0.16610000  1.0 0.0186385013
C  C166  1  0.08430000  0.81710000  0.23560000  1.0 -0.4419775482
C  C167  1  0.62690000  0.20870000  0.89410000  1.0 0.0186385013
C  C168  1  0.61040000  0.20860000  0.95330000  1.0 -0.4300587427
C  C169  1  0.31350000  0.44010000  0.52900000  1.0 0.0186385013
C  C170  1  0.02410000  0.86810000  0.14600000  1.0 0.008793974
C  C171  1  0.66900000  0.19280000  0.91800000  1.0 -0.0105707305
C  C172  1  0.35750000  0.41930000  0.55540000  1.0 0.1101946971
C  C173  1  0.28700000  0.43840000  0.54640000  1.0 -0.1794673286
C  C174  1  0.04230000  0.89430000  0.14120000  1.0 0.1101946971
C  C175  1  0.98020000  0.88600000  0.12990000  1.0 -0.1594693375
C  C176  1  0.68860000  0.21740000  0.92100000  1.0 -0.1276808606
C  C177  1  0.69340000  0.14840000  0.94010000  1.0 0.1288057461
C  C178  1  0.37510000  0.39690000  0.59930000  1.0 -0.1504396044
C  C179  1  0.38600000  0.42420000  0.53640000  1.0 -0.4587495875
C  C180  1  0.30460000  0.41600000  0.59040000  1.0 -0.0697338675
C  C181  1  0.01660000  0.93840000  0.12030000  1.0 -0.1708274452
C  C182  1  0.08940000  0.88040000  0.15480000  1.0 -0.4300587427
C  C183  1  0.95450000  0.93010000  0.10900000  1.0 -0.1403840006
C  C184  1  0.73280000  0.19760000  0.94640000  1.0 -0.1217862571
C  C185  1  0.73750000  0.12870000  0.96540000  1.0 -0.1878672392
C  C186  1  0.67280000  0.12100000  0.93500000  1.0 -0.4587495875
C  C187  1  0.34860000  0.39520000  0.61680000  1.0 -0.0477261898
C  C188  1  0.97260000  0.95640000  0.10410000  1.0 -0.0202565376
C  C189  1  0.75710000  0.15330000  0.96840000  1.0 0.0020414945
C  C190  1  0.36280000  0.38020000  0.65440000  1.0 0.3205983489
C  C191  1  0.94690000  0.00430000  0.07840000  1.0 0.4884778196
C  C192  1  0.80450000  0.13130000  0.99300000  1.0 0.4990335031
C  C193  1  0.15810000  0.27030000  0.15430000  1.0 0.0186385013
C  C194  1  0.13040000  0.31400000  0.12860000  1.0 -0.1594693375
C  C195  1  0.12800000  0.34060000  0.14630000  1.0 -0.1011241054
C  C196  1  0.15330000  0.32330000  0.18990000  1.0 -0.0477261898
C  C197  1  0.18110000  0.27950000  0.21570000  1.0 -0.1594693375
C  C198  1  0.18340000  0.25300000  0.19780000  1.0 0.1101946971
C  C199  1  0.19700000  0.36040000  0.34410000  1.0 0.4884778196
C  C200  1  0.16360000  0.24240000  0.13370000  1.0 0.008793974
C  C201  1  0.18250000  0.24810000  0.10840000  1.0 -0.1708274452
C  C202  1  0.18410000  0.22670000  0.08530000  1.0 -0.1403840006
C  C203  1  0.16680000  0.19960000  0.08750000  1.0 -0.0105707305
C  C204  1  0.14780000  0.19400000  0.11270000  1.0 -0.1794673286
C  C205  1  0.14620000  0.21540000  0.13580000  1.0 0.1101946971
C  C206  1  0.22100000  0.33540000  0.38820000  1.0 -0.0697338675
C  C207  1  0.22340000  0.35760000  0.41050000  1.0 -0.1504396044
C  C208  1  0.24690000  0.33550000  0.45470000  1.0 0.1202695725
C  C209  1  0.26810000  0.29110000  0.47670000  1.0 0.008793974
C  C210  1  0.26580000  0.26880000  0.45450000  1.0 -0.1594693375
C  C211  1  0.24220000  0.29100000  0.41020000  1.0 -0.0791135059
C  C212  1  0.07770000  0.53570000  0.17240000  1.0 -0.0891658829
C  C213  1  0.05250000  0.55430000  0.12860000  1.0 -0.1403840006
C  C214  1  0.02910000  0.59850000  0.10330000  1.0 0.1202695725
C  C215  1  0.03100000  0.62420000  0.12170000  1.0 0.032252036
C  C216  1  0.05620000  0.60560000  0.16550000  1.0 -0.1594693375
C  C217  1  0.07940000  0.56140000  0.19070000  1.0 -0.0891658829
C  C218  1  0.09840000  0.49160000  0.19820000  1.0 0.5174648711
C  C219  1  0.00700000  0.67220000  0.09630000  1.0 0.0431041651
C  C220  1  0.02900000  0.69480000  0.09310000  1.0 -0.1594693375
C  C221  1  0.00680000  0.73920000  0.07120000  1.0 -0.1080900804
C  C222  1  0.96250000  0.76110000  0.05250000  1.0 0.0020414945
C  C223  1  0.94040000  0.73860000  0.05560000  1.0 -0.1504396044
C  C224  1  0.96270000  0.69410000  0.07760000  1.0 0.0665041133
C  C225  1  0.16400000  0.18040000  0.05800000  1.0 0.5385831295
C  C226  1  0.93510000  0.81030000  0.02810000  1.0 0.5174648711
C  C227  1  0.14730000  0.35270000  0.20700000  1.0 0.4814931123
C  C228  1  0.21700000  0.20620000  0.22450000  1.0 -0.4419775482
C  C229  1  0.12110000  0.20970000  0.15990000  1.0 -0.4419775482
C  C230  1  0.24420000  0.36000000  0.47930000  1.0 -0.4587495875
C  C231  1  0.00890000  0.94390000  0.02140000  1.0 -0.1276808606
C  C232  1  0.99940000  0.62060000  0.05550000  1.0 -0.4125316889
C  C233  1  0.93570000  0.67170000  0.07920000  1.0 -0.1878672392
C  C234  1  0.03300000  0.96480000  0.02280000  1.0 0.0476312562
C  C235  1  0.04830000  0.03930000  0.97130000  1.0 0.032252036
C  C236  1  0.07290000  0.05950000  0.97390000  1.0 -0.1217862571
C  C237  1  0.08170000  0.93810000  0.04920000  1.0 -0.1708274452
C  C238  1  0.04070000  0.02630000  0.93740000  1.0 0.1607427149
C  C239  1  0.27030000  0.15810000  0.84570000  1.0 0.0186385013
C  C240  1  0.31400000  0.13040000  0.87140000  1.0 -0.1594693375
C  C241  1  0.34060000  0.12800000  0.85370000  1.0 -0.1011241054
C  C242  1  0.32330000  0.15330000  0.81010000  1.0 -0.0477261898
C  C243  1  0.27950000  0.18110000  0.78430000  1.0 -0.1594693375
C  C244  1  0.25300000  0.18340000  0.80220000  1.0 0.1101946971
C  C245  1  0.36040000  0.19700000  0.65590000  1.0 0.4884778196
C  C246  1  0.24240000  0.16360000  0.86630000  1.0 0.008793974
C  C247  1  0.24810000  0.18250000  0.89160000  1.0 -0.1708274452
C  C248  1  0.22670000  0.18410000  0.91470000  1.0 -0.1403840006
C  C249  1  0.19960000  0.16680000  0.91250000  1.0 -0.0105707305
C  C250  1  0.19400000  0.14780000  0.88730000  1.0 -0.1794673286
C  C251  1  0.21540000  0.14620000  0.86420000  1.0 0.1101946971
C  C252  1  0.33540000  0.22100000  0.61180000  1.0 -0.0697338675
C  C253  1  0.35760000  0.22340000  0.58950000  1.0 -0.1504396044
C  C254  1  0.33550000  0.24690000  0.54530000  1.0 0.1202695725
C  C255  1  0.29110000  0.26810000  0.52330000  1.0 0.008793974
C  C256  1  0.26880000  0.26580000  0.54550000  1.0 -0.1594693375
C  C257  1  0.29100000  0.24220000  0.58980000  1.0 -0.0791135059
C  C258  1  0.53570000  0.07770000  0.82760000  1.0 -0.0891658829
C  C259  1  0.55430000  0.05250000  0.87140000  1.0 -0.1403840006
C  C260  1  0.59850000  0.02910000  0.89670000  1.0 0.1202695725
C  C261  1  0.62420000  0.03100000  0.87830000  1.0 0.032252036
C  C262  1  0.60560000  0.05620000  0.83450000  1.0 -0.1594693375
C  C263  1  0.56140000  0.07940000  0.80930000  1.0 -0.0891658829
C  C264  1  0.49160000  0.09840000  0.80180000  1.0 0.5174648711
C  C265  1  0.67220000  0.00700000  0.90370000  1.0 0.0431041651
C  C266  1  0.69480000  0.02900000  0.90690000  1.0 -0.1594693375
C  C267  1  0.73920000  0.00680000  0.92880000  1.0 -0.1080900804
C  C268  1  0.76110000  0.96250000  0.94750000  1.0 0.0020414945
C  C269  1  0.73860000  0.94040000  0.94440000  1.0 -0.1504396044
C  C270  1  0.69410000  0.96270000  0.92240000  1.0 0.0665041133
C  C271  1  0.18040000  0.16400000  0.94200000  1.0 0.5385831295
C  C272  1  0.81030000  0.93510000  0.97190000  1.0 0.5174648711
C  C273  1  0.35270000  0.14730000  0.79300000  1.0 0.4814931123
C  C274  1  0.20620000  0.21700000  0.77550000  1.0 -0.4419775482
C  C275  1  0.20970000  0.12110000  0.84010000  1.0 -0.4419775482
C  C276  1  0.36000000  0.24420000  0.52070000  1.0 -0.4587495875
C  C277  1  0.94390000  0.00890000  0.97860000  1.0 -0.1276808606
C  C278  1  0.62060000  0.99940000  0.94450000  1.0 -0.4125316889
C  C279  1  0.67170000  0.93570000  0.92080000  1.0 -0.1961724312
C  C280  1  0.96480000  0.03300000  0.97720000  1.0 0.0476312562
C  C281  1  0.03930000  0.04830000  0.02870000  1.0 0.032252036
C  C282  1  0.05950000  0.07290000  0.02610000  1.0 -0.1217862571
C  C283  1  0.93810000  0.08170000  0.95080000  1.0 -0.1794673286
C  C284  1  0.02630000  0.04070000  0.06260000  1.0 0.1607427149
C  C285  1  0.00990000  0.00990000  0.00000000  1.0 -0.0202565376
C  C286  1  0.94230000  0.94230000  0.00000000  1.0 0.5385831295
C  C287  1  0.96530000  0.96530000  0.00000000  1.0 -0.0791135059
C  C288  1  0.03300000  0.03300000  0.00000000  1.0 -0.0105707305
C  C289  1  0.07750000  0.07750000  0.00000000  1.0 -0.1080900804
C  C290  1  0.10060000  0.10060000  0.00000000  1.0 0.5385831295
O  O1  1  0.41890000  0.14430000  0.99970000  1.0 -0.5505612643
O  O2  1  0.38800000  0.16060000  0.05620000  1.0 -0.6526590239
O  O3  1  0.40350000  0.10330000  0.97860000  1.0 -0.6105282556
O  O4  1  0.33740000  0.14560000  0.06060000  1.0 -0.5870866181
O  O5  1  0.34210000  0.08190000  0.98650000  1.0 -0.4818964751
O  O6  1  0.31720000  0.09960000  0.02170000  1.0 -0.5087305408
O  O7  1  0.60010000  0.15070000  0.81580000  1.0 -0.6105282556
O  O8  1  0.53510000  0.19650000  0.75820000  1.0 -0.5701827334
O  O9  1  0.31610000  0.38410000  0.18780000  1.0 -0.6696207077
O  O10  1  0.35870000  0.32890000  0.25150000  1.0 -0.4918867053
O  O11  1  0.10180000  0.96000000  0.94110000  1.0 -0.5023389385
O  O12  1  0.16430000  0.89370000  0.98080000  1.0 -0.6526590239
O  O13  1  0.57730000  0.21350000  0.66880000  1.0 -0.6294008644
O  O14  1  0.52270000  0.22630000  0.67990000  1.0 -0.5087305408
O  O15  1  0.66960000  0.12340000  0.80380000  1.0 -0.5701827334
O  O16  1  0.66280000  0.14860000  0.74420000  1.0 -0.4489865975
O  O17  1  0.29180000  0.47460000  0.22820000  1.0 -0.6105282556
O  O18  1  0.28620000  0.46220000  0.17370000  1.0 -0.5870866181
O  O19  1  0.37540000  0.33900000  0.32490000  1.0 -0.5870866181
O  O20  1  0.35000000  0.40280000  0.31010000  1.0 -0.5588318557
O  O21  1  0.02400000  0.90880000  0.94020000  1.0 -0.4419775482
O  O22  1  0.02620000  0.96300000  0.92130000  1.0 -0.4489865975
O  O23  1  0.08730000  0.83370000  0.98770000  1.0 -0.6630077512
O  O24  1  0.15300000  0.82640000  0.99920000  1.0 -0.6411247552
O  O25  1  0.14430000  0.41890000  0.00030000  1.0 -0.5505612643
O  O26  1  0.16060000  0.38800000  0.94380000  1.0 -0.6526590239
O  O27  1  0.10330000  0.40350000  0.02140000  1.0 -0.6105282556
O  O28  1  0.14560000  0.33740000  0.93940000  1.0 -0.5870866181
O  O29  1  0.08190000  0.34210000  0.01350000  1.0 -0.4818964751
O  O30  1  0.09960000  0.31720000  0.97830000  1.0 -0.5087305408
O  O31  1  0.15070000  0.60010000  0.18420000  1.0 -0.6105282556
O  O32  1  0.19650000  0.53510000  0.24180000  1.0 -0.5701827334
O  O33  1  0.38410000  0.31610000  0.81220000  1.0 -0.6696207077
O  O34  1  0.32890000  0.35870000  0.74850000  1.0 -0.4918867053
O  O35  1  0.96000000  0.10180000  0.05890000  1.0 -0.5023389385
O  O36  1  0.89370000  0.16430000  0.01920000  1.0 -0.6526590239
O  O37  1  0.21350000  0.57730000  0.33120000  1.0 -0.6294008644
O  O38  1  0.22630000  0.52270000  0.32010000  1.0 -0.5087305408
O  O39  1  0.12340000  0.66960000  0.19620000  1.0 -0.5701827334
O  O40  1  0.14860000  0.66280000  0.25580000  1.0 -0.4489865975
O  O41  1  0.47460000  0.29180000  0.77180000  1.0 -0.6105282556
O  O42  1  0.46220000  0.28620000  0.82630000  1.0 -0.5870866181
O  O43  1  0.33900000  0.37540000  0.67510000  1.0 -0.5870866181
O  O44  1  0.40280000  0.35000000  0.68990000  1.0 -0.5588318557
O  O45  1  0.90880000  0.02400000  0.05980000  1.0 -0.4419775482
O  O46  1  0.96300000  0.02620000  0.07870000  1.0 -0.4489865975
O  O47  1  0.83370000  0.08730000  0.01230000  1.0 -0.6630077512
O  O48  1  0.82640000  0.15300000  0.00080000  1.0 -0.6411247552
O  O49  1  0.09980000  0.46680000  0.18450000  1.0 -0.5396253021
O  O50  1  0.17620000  0.39840000  0.31920000  1.0 -0.5087305408
O  O51  1  0.12670000  0.38730000  0.18930000  1.0 -0.4419775482
O  O52  1  0.12250000  0.47550000  0.23820000  1.0 -0.5701827334
O  O53  1  0.17830000  0.18630000  0.03190000  1.0 -0.5968445094
O  O54  1  0.16590000  0.33370000  0.24660000  1.0 -0.5023389385
O  O55  1  0.96070000  0.82770000  0.03180000  1.0 -0.6411247552
O  O56  1  0.19170000  0.33690000  0.32280000  1.0 -0.6526590239
O  O57  1  0.89430000  0.83430000  0.01310000  1.0 -0.5870866181
O  O58  1  0.14080000  0.16200000  0.05720000  1.0 -0.6249797494
O  O59  1  0.90160000  0.96180000  0.98070000  1.0 -0.5701827334
O  O60  1  0.11990000  0.10610000  0.97830000  1.0 -0.5588318557
O  O61  1  0.46680000  0.09980000  0.81550000  1.0 -0.5396253021
O  O62  1  0.39840000  0.17620000  0.68080000  1.0 -0.5087305408
O  O63  1  0.38730000  0.12670000  0.81070000  1.0 -0.4419775482
O  O64  1  0.47550000  0.12250000  0.76180000  1.0 -0.5701827334
O  O65  1  0.18630000  0.17830000  0.96810000  1.0 -0.5968445094
O  O66  1  0.33370000  0.16590000  0.75340000  1.0 -0.5023389385
O  O67  1  0.82770000  0.96070000  0.96820000  1.0 -0.6411247552
O  O68  1  0.33690000  0.19170000  0.67720000  1.0 -0.6526590239
O  O69  1  0.83430000  0.89430000  0.98690000  1.0 -0.5870866181
O  O70  1  0.16200000  0.14080000  0.94280000  1.0 -0.6294008644
O  O71  1  0.96180000  0.90160000  0.01930000  1.0 -0.5701827334
O  O72  1  0.10610000  0.11990000  0.02170000  1.0 -0.5588318557
