# DDEC6 charges by PACMAN v1.1 (https://github.com/mtap-research/PACMAN-charge/)
data_KAVJAT_ion_pacman
_symmetry_space_group_name_H-M   'P 1'
_cell_length_a   23.40690000
_cell_length_b   23.40690000
_cell_length_c   23.40690000
_cell_angle_alpha   109.47100000
_cell_angle_beta   109.47100000
_cell_angle_gamma   109.47100000
_symmetry_Int_Tables_number   1
_chemical_formula_structural   Pr3H6C48(N2O3)10
_chemical_formula_sum   'Pr12 H24 C192 N80 O120'
_cell_volume   9872.18660931
_cell_formula_units_Z   4
loop_
 _symmetry_equiv_pos_site_id
 _symmetry_equiv_pos_as_xyz
  1  'x, y, z'
loop_
 _atom_site_type_symbol
 _atom_site_label
 _atom_site_symmetry_multiplicity
 _atom_site_fract_x
 _atom_site_fract_y
 _atom_site_fract_z
 _atom_site_occupancy
 _atom_site_charge
Pr  Pr1  1  0.83040000  0.50000000  0.00000000  1.0 2.0863907164
Pr  Pr2  1  0.00000000  0.83040000  0.50000000  1.0 2.0840967124
Pr  Pr3  1  0.50000000  0.00000000  0.83040000  1.0 2.0863907164
Pr  Pr4  1  0.66960000  0.66960000  0.66960000  1.0 2.0840967124
Pr  Pr5  1  0.16960000  0.50000000  0.00000000  1.0 2.0863907164
Pr  Pr6  1  0.00000000  0.16960000  0.50000000  1.0 2.0840967124
Pr  Pr7  1  0.50000000  0.00000000  0.16960000  1.0 2.0863907164
Pr  Pr8  1  0.33040000  0.33040000  0.33040000  1.0 2.0840967124
Pr  Pr9  1  0.50000000  0.50000000  0.50000000  1.0 2.0366952842
Pr  Pr10  1  0.50000000  0.00000000  0.00000000  1.0 2.0366952842
Pr  Pr11  1  0.00000000  0.00000000  0.50000000  1.0 2.0366952842
Pr  Pr12  1  0.00000000  0.50000000  0.00000000  1.0 2.0366952842
H  H1  1  0.62020000  0.56900000  0.75760000  1.0 0.1671998799
H  H2  1  0.75760000  0.62020000  0.56900000  1.0 0.1671998799
H  H3  1  0.56900000  0.75760000  0.62020000  1.0 0.1671998799
H  H4  1  0.31140000  0.86260000  0.74240000  1.0 0.1671998799
H  H5  1  0.18860000  0.93100000  0.55120000  1.0 0.1671998799
H  H6  1  0.87980000  0.63740000  0.94880000  1.0 0.1671998799
H  H7  1  0.74240000  0.31140000  0.86260000  1.0 0.1671998799
H  H8  1  0.55120000  0.18860000  0.93100000  1.0 0.1671998799
H  H9  1  0.94880000  0.87980000  0.63740000  1.0 0.1671998799
H  H10  1  0.86260000  0.74240000  0.31140000  1.0 0.1671998799
H  H11  1  0.93100000  0.55120000  0.18860000  1.0 0.1671998799
H  H12  1  0.63740000  0.94880000  0.87980000  1.0 0.1671998799
H  H13  1  0.37980000  0.43100000  0.24240000  1.0 0.1671998799
H  H14  1  0.24240000  0.37980000  0.43100000  1.0 0.1671998799
H  H15  1  0.43100000  0.24240000  0.37980000  1.0 0.1671998799
H  H16  1  0.68860000  0.13740000  0.25760000  1.0 0.1671998799
H  H17  1  0.81140000  0.06900000  0.44880000  1.0 0.1671998799
H  H18  1  0.12020000  0.36260000  0.05120000  1.0 0.1671998799
H  H19  1  0.25760000  0.68860000  0.13740000  1.0 0.1671998799
H  H20  1  0.44880000  0.81140000  0.06900000  1.0 0.1671998799
H  H21  1  0.05120000  0.12020000  0.36260000  1.0 0.1671998799
H  H22  1  0.13740000  0.25760000  0.68860000  1.0 0.1671998799
H  H23  1  0.06900000  0.44880000  0.81140000  1.0 0.1671998799
H  H24  1  0.36260000  0.05120000  0.12020000  1.0 0.1671998799
C  C1  1  0.73170000  0.48400000  0.87350000  1.0 0.6037951906
C  C2  1  0.87350000  0.73170000  0.48400000  1.0 0.6037951906
C  C3  1  0.48400000  0.87350000  0.73170000  1.0 0.6037951906
C  C4  1  0.11050000  0.85820000  0.62650000  1.0 0.6037951906
C  C5  1  0.38950000  0.01600000  0.74770000  1.0 0.6037951906
C  C6  1  0.76830000  0.64180000  0.75230000  1.0 0.6037951906
C  C7  1  0.62650000  0.11050000  0.85820000  1.0 0.6037951906
C  C8  1  0.74770000  0.38950000  0.01600000  1.0 0.6037951906
C  C9  1  0.75230000  0.76830000  0.64180000  1.0 0.6037951906
C  C10  1  0.85820000  0.62650000  0.11050000  1.0 0.6037951906
C  C11  1  0.01600000  0.74770000  0.38950000  1.0 0.6037951906
C  C12  1  0.64180000  0.75230000  0.76830000  1.0 0.6037951906
C  C13  1  0.26830000  0.51600000  0.12650000  1.0 0.6037951906
C  C14  1  0.12650000  0.26830000  0.51600000  1.0 0.6037951906
C  C15  1  0.51600000  0.12650000  0.26830000  1.0 0.6037951906
C  C16  1  0.88950000  0.14180000  0.37350000  1.0 0.6037951906
C  C17  1  0.61050000  0.98400000  0.25230000  1.0 0.6037951906
C  C18  1  0.23170000  0.35820000  0.24770000  1.0 0.6037951906
C  C19  1  0.37350000  0.88950000  0.14180000  1.0 0.6037951906
C  C20  1  0.25230000  0.61050000  0.98400000  1.0 0.6037951906
C  C21  1  0.24770000  0.23170000  0.35820000  1.0 0.6037951906
C  C22  1  0.14180000  0.37350000  0.88950000  1.0 0.6037951906
C  C23  1  0.98400000  0.25230000  0.61050000  1.0 0.6037951906
C  C24  1  0.35820000  0.24770000  0.23170000  1.0 0.6037951906
C  C25  1  0.68880000  0.48380000  0.80940000  1.0 -0.139915231
C  C26  1  0.80940000  0.68880000  0.48380000  1.0 -0.139915231
C  C27  1  0.48380000  0.80940000  0.68880000  1.0 -0.139915231
C  C28  1  0.17440000  0.87940000  0.69060000  1.0 -0.139915231
C  C29  1  0.32560000  0.01620000  0.70500000  1.0 -0.139915231
C  C30  1  0.81120000  0.62060000  0.79500000  1.0 -0.139915231
C  C31  1  0.69060000  0.17440000  0.87940000  1.0 -0.139915231
C  C32  1  0.70500000  0.32560000  0.01620000  1.0 -0.139915231
C  C33  1  0.79500000  0.81120000  0.62060000  1.0 -0.139915231
C  C34  1  0.87940000  0.69060000  0.17440000  1.0 -0.139915231
C  C35  1  0.01620000  0.70500000  0.32560000  1.0 -0.139915231
C  C36  1  0.62060000  0.79500000  0.81120000  1.0 -0.139915231
C  C37  1  0.31120000  0.51620000  0.19060000  1.0 -0.139915231
C  C38  1  0.19060000  0.31120000  0.51620000  1.0 -0.139915231
C  C39  1  0.51620000  0.19060000  0.31120000  1.0 -0.139915231
C  C40  1  0.82560000  0.12060000  0.30940000  1.0 -0.139915231
C  C41  1  0.67440000  0.98380000  0.29500000  1.0 -0.139915231
C  C42  1  0.18880000  0.37940000  0.20500000  1.0 -0.139915231
C  C43  1  0.30940000  0.82560000  0.12060000  1.0 -0.139915231
C  C44  1  0.29500000  0.67440000  0.98380000  1.0 -0.139915231
C  C45  1  0.20500000  0.18880000  0.37940000  1.0 -0.139915231
C  C46  1  0.12060000  0.30940000  0.82560000  1.0 -0.139915231
C  C47  1  0.98380000  0.29500000  0.67440000  1.0 -0.139915231
C  C48  1  0.37940000  0.20500000  0.18880000  1.0 -0.139915231
C  C49  1  0.67620000  0.43700000  0.74380000  1.0 0.1298314552
C  C50  1  0.74380000  0.67620000  0.43700000  1.0 0.1298314552
C  C51  1  0.43700000  0.74380000  0.67620000  1.0 0.1298314552
C  C52  1  0.19320000  0.93240000  0.75620000  1.0 0.1298314552
C  C53  1  0.30680000  0.06300000  0.73920000  1.0 0.1298314552
C  C54  1  0.82380000  0.56760000  0.76080000  1.0 0.1298314552
C  C55  1  0.75620000  0.19320000  0.93240000  1.0 0.1298314552
C  C56  1  0.73920000  0.30680000  0.06300000  1.0 0.1298314552
C  C57  1  0.76080000  0.82380000  0.56760000  1.0 0.1298314552
C  C58  1  0.93240000  0.75620000  0.19320000  1.0 0.1298314552
C  C59  1  0.06300000  0.73920000  0.30680000  1.0 0.1298314552
C  C60  1  0.56760000  0.76080000  0.82380000  1.0 0.1298314552
C  C61  1  0.32380000  0.56300000  0.25620000  1.0 0.1298314552
C  C62  1  0.25620000  0.32380000  0.56300000  1.0 0.1298314552
C  C63  1  0.56300000  0.25620000  0.32380000  1.0 0.1298314552
C  C64  1  0.80680000  0.06760000  0.24380000  1.0 0.1298314552
C  C65  1  0.69320000  0.93700000  0.26080000  1.0 0.1298314552
C  C66  1  0.17620000  0.43240000  0.23920000  1.0 0.1298314552
C  C67  1  0.24380000  0.80680000  0.06760000  1.0 0.1298314552
C  C68  1  0.26080000  0.69320000  0.93700000  1.0 0.1298314552
C  C69  1  0.23920000  0.17620000  0.43240000  1.0 0.1298314552
C  C70  1  0.06760000  0.24380000  0.80680000  1.0 0.1298314552
C  C71  1  0.93700000  0.26080000  0.69320000  1.0 0.1298314552
C  C72  1  0.43240000  0.23920000  0.17620000  1.0 0.1298314552
C  C73  1  0.63920000  0.43900000  0.68420000  1.0 0.1298314552
C  C74  1  0.68420000  0.63920000  0.43900000  1.0 0.1298314552
C  C75  1  0.43900000  0.68420000  0.63920000  1.0 0.1298314552
C  C76  1  0.25480000  0.95500000  0.81580000  1.0 0.1298314552
C  C77  1  0.24520000  0.06100000  0.70020000  1.0 0.1298314552
C  C78  1  0.86080000  0.54500000  0.79980000  1.0 0.1298314552
C  C79  1  0.81580000  0.25480000  0.95500000  1.0 0.1298314552
C  C80  1  0.70020000  0.24520000  0.06100000  1.0 0.1298314552
C  C81  1  0.79980000  0.86080000  0.54500000  1.0 0.1298314552
C  C82  1  0.95500000  0.81580000  0.25480000  1.0 0.1298314552
C  C83  1  0.06100000  0.70020000  0.24520000  1.0 0.1298314552
C  C84  1  0.54500000  0.79980000  0.86080000  1.0 0.1298314552
C  C85  1  0.36080000  0.56100000  0.31580000  1.0 0.1298314552
C  C86  1  0.31580000  0.36080000  0.56100000  1.0 0.1298314552
C  C87  1  0.56100000  0.31580000  0.36080000  1.0 0.1298314552
C  C88  1  0.74520000  0.04500000  0.18420000  1.0 0.1298314552
C  C89  1  0.75480000  0.93900000  0.29980000  1.0 0.1298314552
C  C90  1  0.13920000  0.45500000  0.20020000  1.0 0.1298314552
C  C91  1  0.18420000  0.74520000  0.04500000  1.0 0.1298314552
C  C92  1  0.29980000  0.75480000  0.93900000  1.0 0.1298314552
C  C93  1  0.20020000  0.13920000  0.45500000  1.0 0.1298314552
C  C94  1  0.04500000  0.18420000  0.74520000  1.0 0.1298314552
C  C95  1  0.93900000  0.29980000  0.75480000  1.0 0.1298314552
C  C96  1  0.45500000  0.20020000  0.13920000  1.0 0.1298314552
C  C97  1  0.61870000  0.48960000  0.68930000  1.0 -0.0823659276
C  C98  1  0.68930000  0.61870000  0.48960000  1.0 -0.0823659276
C  C99  1  0.48960000  0.68930000  0.61870000  1.0 -0.0823659276
C  C100  1  0.30030000  0.92940000  0.81070000  1.0 -0.0823659276
C  C101  1  0.19970000  0.01040000  0.62910000  1.0 -0.0823659276
C  C102  1  0.88130000  0.57060000  0.87090000  1.0 -0.0823659276
C  C103  1  0.81070000  0.30030000  0.92940000  1.0 -0.0823659276
C  C104  1  0.62910000  0.19970000  0.01040000  1.0 -0.0823659276
C  C105  1  0.87090000  0.88130000  0.57060000  1.0 -0.0823659276
C  C106  1  0.92940000  0.81070000  0.30030000  1.0 -0.0823659276
C  C107  1  0.01040000  0.62910000  0.19970000  1.0 -0.0823659276
C  C108  1  0.57060000  0.87090000  0.88130000  1.0 -0.0823659276
C  C109  1  0.38130000  0.51040000  0.31070000  1.0 -0.0823659276
C  C110  1  0.31070000  0.38130000  0.51040000  1.0 -0.0823659276
C  C111  1  0.51040000  0.31070000  0.38130000  1.0 -0.0823659276
C  C112  1  0.69970000  0.07060000  0.18930000  1.0 -0.0823659276
C  C113  1  0.80030000  0.98960000  0.37090000  1.0 -0.0823659276
C  C114  1  0.11870000  0.42940000  0.12910000  1.0 -0.0823659276
C  C115  1  0.18930000  0.69970000  0.07060000  1.0 -0.0823659276
C  C116  1  0.37090000  0.80030000  0.98960000  1.0 -0.0823659276
C  C117  1  0.12910000  0.11870000  0.42940000  1.0 -0.0823659276
C  C118  1  0.07060000  0.18930000  0.69970000  1.0 -0.0823659276
C  C119  1  0.98960000  0.37090000  0.80030000  1.0 -0.0823659276
C  C120  1  0.42940000  0.12910000  0.11870000  1.0 -0.0823659276
C  C121  1  0.58500000  0.49520000  0.62700000  1.0 0.6332813327
C  C122  1  0.62700000  0.58500000  0.49520000  1.0 0.6332813327
C  C123  1  0.49520000  0.62700000  0.58500000  1.0 0.6332813327
C  C124  1  0.36820000  0.95800000  0.87300000  1.0 0.6332813327
C  C125  1  0.13180000  0.00480000  0.58980000  1.0 0.6332813327
C  C126  1  0.91500000  0.54200000  0.91020000  1.0 0.6332813327
C  C127  1  0.87300000  0.36820000  0.95800000  1.0 0.6332813327
C  C128  1  0.58980000  0.13180000  0.00480000  1.0 0.6332813327
C  C129  1  0.91020000  0.91500000  0.54200000  1.0 0.6332813327
C  C130  1  0.95800000  0.87300000  0.36820000  1.0 0.6332813327
C  C131  1  0.00480000  0.58980000  0.13180000  1.0 0.6332813327
C  C132  1  0.54200000  0.91020000  0.91500000  1.0 0.6332813327
C  C133  1  0.41500000  0.50480000  0.37300000  1.0 0.6332813327
C  C134  1  0.37300000  0.41500000  0.50480000  1.0 0.6332813327
C  C135  1  0.50480000  0.37300000  0.41500000  1.0 0.6332813327
C  C136  1  0.63180000  0.04200000  0.12700000  1.0 0.6332813327
C  C137  1  0.86820000  0.99520000  0.41020000  1.0 0.6332813327
C  C138  1  0.08500000  0.45800000  0.08980000  1.0 0.6332813327
C  C139  1  0.12700000  0.63180000  0.04200000  1.0 0.6332813327
C  C140  1  0.41020000  0.86820000  0.99520000  1.0 0.6332813327
C  C141  1  0.08980000  0.08500000  0.45800000  1.0 0.6332813327
C  C142  1  0.04200000  0.12700000  0.63180000  1.0 0.6332813327
C  C143  1  0.99520000  0.41020000  0.86820000  1.0 0.6332813327
C  C144  1  0.45800000  0.08980000  0.08500000  1.0 0.6332813327
C  C145  1  0.63270000  0.53460000  0.75350000  1.0 -0.139915231
C  C146  1  0.75350000  0.63270000  0.53460000  1.0 -0.139915231
C  C147  1  0.53460000  0.75350000  0.63270000  1.0 -0.139915231
C  C148  1  0.28110000  0.87920000  0.74650000  1.0 -0.139915231
C  C149  1  0.21890000  0.96540000  0.59810000  1.0 -0.139915231
C  C150  1  0.86730000  0.62080000  0.90190000  1.0 -0.139915231
C  C151  1  0.74650000  0.28110000  0.87920000  1.0 -0.139915231
C  C152  1  0.59810000  0.21890000  0.96540000  1.0 -0.139915231
C  C153  1  0.90190000  0.86730000  0.62080000  1.0 -0.139915231
C  C154  1  0.87920000  0.74650000  0.28110000  1.0 -0.139915231
C  C155  1  0.96540000  0.59810000  0.21890000  1.0 -0.139915231
C  C156  1  0.62080000  0.90190000  0.86730000  1.0 -0.139915231
C  C157  1  0.36730000  0.46540000  0.24650000  1.0 -0.139915231
C  C158  1  0.24650000  0.36730000  0.46540000  1.0 -0.139915231
C  C159  1  0.46540000  0.24650000  0.36730000  1.0 -0.139915231
C  C160  1  0.71890000  0.12080000  0.25350000  1.0 -0.139915231
C  C161  1  0.78110000  0.03460000  0.40190000  1.0 -0.139915231
C  C162  1  0.13270000  0.37920000  0.09810000  1.0 -0.139915231
C  C163  1  0.25350000  0.71890000  0.12080000  1.0 -0.139915231
C  C164  1  0.40190000  0.78110000  0.03460000  1.0 -0.139915231
C  C165  1  0.09810000  0.13270000  0.37920000  1.0 -0.139915231
C  C166  1  0.12080000  0.25350000  0.71890000  1.0 -0.139915231
C  C167  1  0.03460000  0.40190000  0.78110000  1.0 -0.139915231
C  C168  1  0.37920000  0.09810000  0.13270000  1.0 -0.139915231
C  C169  1  0.66510000  0.53100000  0.81350000  1.0 0.193372503
C  C170  1  0.81350000  0.66510000  0.53100000  1.0 0.1955530172
C  C171  1  0.53100000  0.81350000  0.66510000  1.0 0.193372503
C  C172  1  0.21750000  0.85160000  0.68650000  1.0 0.193372503
C  C173  1  0.28250000  0.96900000  0.63410000  1.0 0.193372503
C  C174  1  0.83490000  0.64840000  0.86590000  1.0 0.193372503
C  C175  1  0.68650000  0.21750000  0.85160000  1.0 0.193372503
C  C176  1  0.63410000  0.28250000  0.96900000  1.0 0.193372503
C  C177  1  0.86590000  0.83490000  0.64840000  1.0 0.193372503
C  C178  1  0.85160000  0.68650000  0.21750000  1.0 0.193372503
C  C179  1  0.96900000  0.63410000  0.28250000  1.0 0.193372503
C  C180  1  0.64840000  0.86590000  0.83490000  1.0 0.193372503
C  C181  1  0.33490000  0.46900000  0.18650000  1.0 0.193372503
C  C182  1  0.18650000  0.33490000  0.46900000  1.0 0.193372503
C  C183  1  0.46900000  0.18650000  0.33490000  1.0 0.193372503
C  C184  1  0.78250000  0.14840000  0.31350000  1.0 0.193372503
C  C185  1  0.71750000  0.03100000  0.36590000  1.0 0.193372503
C  C186  1  0.16510000  0.35160000  0.13410000  1.0 0.193372503
C  C187  1  0.31350000  0.78250000  0.14840000  1.0 0.193372503
C  C188  1  0.36590000  0.71750000  0.03100000  1.0 0.193372503
C  C189  1  0.13410000  0.16510000  0.35160000  1.0 0.193372503
C  C190  1  0.14840000  0.31350000  0.78250000  1.0 0.193372503
C  C191  1  0.03100000  0.36590000  0.71750000  1.0 0.193372503
C  C192  1  0.35160000  0.13410000  0.16510000  1.0 0.193372503
N  N1  1  0.68790000  0.38120000  0.72850000  1.0 -0.1097545617
N  N2  1  0.72850000  0.68790000  0.38120000  1.0 -0.1097545617
N  N3  1  0.38120000  0.72850000  0.68790000  1.0 -0.1097545617
N  N4  1  0.15270000  0.95940000  0.77150000  1.0 -0.1097545617
N  N5  1  0.34730000  0.11880000  0.80670000  1.0 -0.1097545617
N  N6  1  0.81210000  0.54060000  0.69330000  1.0 -0.1097545617
N  N7  1  0.77150000  0.15270000  0.95940000  1.0 -0.1097545617
N  N8  1  0.80670000  0.34730000  0.11880000  1.0 -0.1097545617
N  N9  1  0.69330000  0.81210000  0.54060000  1.0 -0.1097545617
N  N10  1  0.95940000  0.77150000  0.15270000  1.0 -0.1097545617
N  N11  1  0.11880000  0.80670000  0.34730000  1.0 -0.1097545617
N  N12  1  0.54060000  0.69330000  0.81210000  1.0 -0.1097545617
N  N13  1  0.31210000  0.61880000  0.27150000  1.0 -0.1097545617
N  N14  1  0.27150000  0.31210000  0.61880000  1.0 -0.1097545617
N  N15  1  0.61880000  0.27150000  0.31210000  1.0 -0.1097545617
N  N16  1  0.84730000  0.04060000  0.22850000  1.0 -0.1097545617
N  N17  1  0.65270000  0.88120000  0.19330000  1.0 -0.1097545617
N  N18  1  0.18790000  0.45940000  0.30670000  1.0 -0.1097545617
N  N19  1  0.22850000  0.84730000  0.04060000  1.0 -0.1097545617
N  N20  1  0.19330000  0.65270000  0.88120000  1.0 -0.1097545617
N  N21  1  0.30670000  0.18790000  0.45940000  1.0 -0.1097545617
N  N22  1  0.04060000  0.22850000  0.84730000  1.0 -0.1097545617
N  N23  1  0.88120000  0.19330000  0.65270000  1.0 -0.1097545617
N  N24  1  0.45940000  0.30670000  0.18790000  1.0 -0.1097545617
N  N25  1  0.13420000  0.51220000  0.24220000  1.0 -0.0026107208
N  N26  1  0.24220000  0.13420000  0.51220000  1.0 -0.0026107208
N  N27  1  0.51220000  0.24220000  0.13420000  1.0 -0.0026107208
N  N28  1  0.77000000  0.89200000  0.25780000  1.0 -0.0061588405
N  N29  1  0.73000000  0.98780000  0.12200000  1.0 -0.0026107208
N  N30  1  0.36580000  0.60800000  0.37800000  1.0 -0.0026107208
N  N31  1  0.25780000  0.77000000  0.89200000  1.0 -0.0026107208
N  N32  1  0.12200000  0.73000000  0.98780000  1.0 -0.0026107208
N  N33  1  0.37800000  0.36580000  0.60800000  1.0 -0.0026107208
N  N34  1  0.89200000  0.25780000  0.77000000  1.0 -0.0026107208
N  N35  1  0.98780000  0.12200000  0.73000000  1.0 -0.0026107208
N  N36  1  0.60800000  0.37800000  0.36580000  1.0 0.002121006
N  N37  1  0.86580000  0.48780000  0.75780000  1.0 -0.0026107208
N  N38  1  0.75780000  0.86580000  0.48780000  1.0 -0.0026107208
N  N39  1  0.48780000  0.75780000  0.86580000  1.0 -0.0026107208
N  N40  1  0.23000000  0.10800000  0.74220000  1.0 -0.0026107208
N  N41  1  0.27000000  0.01220000  0.87800000  1.0 -0.0026107208
N  N42  1  0.63420000  0.39200000  0.62200000  1.0 -0.0026107208
N  N43  1  0.74220000  0.23000000  0.10800000  1.0 0.002121006
N  N44  1  0.87800000  0.27000000  0.01220000  1.0 -0.0026107208
N  N45  1  0.62200000  0.63420000  0.39200000  1.0 -0.0026107208
N  N46  1  0.10800000  0.74220000  0.23000000  1.0 -0.0026107208
N  N47  1  0.01220000  0.87800000  0.27000000  1.0 -0.0026107208
N  N48  1  0.39200000  0.62200000  0.63420000  1.0 -0.0026107208
N  N49  1  0.17730000  0.30090000  0.09380000  1.0 0.0171312383
N  N50  1  0.09380000  0.17730000  0.30090000  1.0 0.0134880967
N  N51  1  0.30090000  0.09380000  0.17730000  1.0 0.0171312383
N  N52  1  0.70710000  0.08350000  0.40620000  1.0 0.0171312383
N  N53  1  0.79290000  0.19910000  0.37640000  1.0 0.0171312383
N  N54  1  0.32270000  0.41650000  0.12360000  1.0 0.0134880967
N  N55  1  0.40620000  0.70710000  0.08350000  1.0 0.0134880967
N  N56  1  0.37640000  0.79290000  0.19910000  1.0 0.0171312383
N  N57  1  0.12360000  0.32270000  0.41650000  1.0 0.0171312383
N  N58  1  0.08350000  0.40620000  0.70710000  1.0 0.0171312383
N  N59  1  0.19910000  0.37640000  0.79290000  1.0 0.0134880967
N  N60  1  0.41650000  0.12360000  0.32270000  1.0 0.0171312383
N  N61  1  0.82270000  0.69910000  0.90620000  1.0 0.0134880967
N  N62  1  0.90620000  0.82270000  0.69910000  1.0 0.0134880967
N  N63  1  0.69910000  0.90620000  0.82270000  1.0 0.0134880967
N  N64  1  0.29290000  0.91650000  0.59380000  1.0 0.0134880967
N  N65  1  0.20710000  0.80090000  0.62360000  1.0 0.0171312383
N  N66  1  0.67730000  0.58350000  0.87640000  1.0 0.0134880967
N  N67  1  0.59380000  0.29290000  0.91650000  1.0 0.0134880967
N  N68  1  0.62360000  0.20710000  0.80090000  1.0 0.0134880967
N  N69  1  0.87640000  0.67730000  0.58350000  1.0 0.0171312383
N  N70  1  0.91650000  0.59380000  0.29290000  1.0 0.0171312383
N  N71  1  0.80090000  0.62360000  0.20710000  1.0 0.0134880967
N  N72  1  0.58350000  0.87640000  0.67730000  1.0 0.0134880967
N  N73  1  0.55640000  0.50000000  0.00000000  1.0 0.6796458289
N  N74  1  0.00000000  0.55640000  0.50000000  1.0 0.6859047835
N  N75  1  0.50000000  0.00000000  0.55640000  1.0 0.6796458289
N  N76  1  0.94360000  0.94360000  0.94360000  1.0 0.6796458289
N  N77  1  0.44360000  0.50000000  0.00000000  1.0 0.6796458289
N  N78  1  0.00000000  0.44360000  0.50000000  1.0 0.6859047835
N  N79  1  0.50000000  0.00000000  0.44360000  1.0 0.6796458289
N  N80  1  0.05640000  0.05640000  0.05640000  1.0 0.6796458289
O  O1  1  0.75670000  0.44350000  0.86840000  1.0 -0.5917828133
O  O2  1  0.86840000  0.75670000  0.44350000  1.0 -0.5917828133
O  O3  1  0.44350000  0.86840000  0.75670000  1.0 -0.5917828133
O  O4  1  0.07510000  0.88830000  0.63160000  1.0 -0.5917828133
O  O5  1  0.42490000  0.05650000  0.81320000  1.0 -0.5917828133
O  O6  1  0.74330000  0.61170000  0.68680000  1.0 -0.5917828133
O  O7  1  0.63160000  0.07510000  0.88830000  1.0 -0.5917828133
O  O8  1  0.81320000  0.42490000  0.05650000  1.0 -0.5917828133
O  O9  1  0.68680000  0.74330000  0.61170000  1.0 -0.5917828133
O  O10  1  0.88830000  0.63160000  0.07510000  1.0 -0.5917828133
O  O11  1  0.05650000  0.81320000  0.42490000  1.0 -0.5917828133
O  O12  1  0.61170000  0.68680000  0.74330000  1.0 -0.5917828133
O  O13  1  0.24330000  0.55650000  0.13160000  1.0 -0.5917828133
O  O14  1  0.13160000  0.24330000  0.55650000  1.0 -0.5917828133
O  O15  1  0.55650000  0.13160000  0.24330000  1.0 -0.5917828133
O  O16  1  0.92490000  0.11170000  0.36840000  1.0 -0.5917828133
O  O17  1  0.57510000  0.94350000  0.18680000  1.0 -0.5917828133
O  O18  1  0.25670000  0.38830000  0.31320000  1.0 -0.5917828133
O  O19  1  0.36840000  0.92490000  0.11170000  1.0 -0.5917828133
O  O20  1  0.18680000  0.57510000  0.94350000  1.0 -0.5917828133
O  O21  1  0.31320000  0.25670000  0.38830000  1.0 -0.5917828133
O  O22  1  0.11170000  0.36840000  0.92490000  1.0 -0.5917828133
O  O23  1  0.94350000  0.18680000  0.57510000  1.0 -0.5917828133
O  O24  1  0.38830000  0.31320000  0.25670000  1.0 -0.5917828133
O  O25  1  0.74400000  0.52720000  0.93260000  1.0 -0.5550449664
O  O26  1  0.93260000  0.74400000  0.52720000  1.0 -0.5520216959
O  O27  1  0.52720000  0.93260000  0.74400000  1.0 -0.5520216959
O  O28  1  0.09460000  0.81140000  0.56740000  1.0 -0.5520216959
O  O29  1  0.40540000  0.97280000  0.71680000  1.0 -0.5520216959
O  O30  1  0.75600000  0.68860000  0.78320000  1.0 -0.5520216959
O  O31  1  0.56740000  0.09460000  0.81140000  1.0 -0.5550449664
O  O32  1  0.71680000  0.40540000  0.97280000  1.0 -0.5550449664
O  O33  1  0.78320000  0.75600000  0.68860000  1.0 -0.5520216959
O  O34  1  0.81140000  0.56740000  0.09460000  1.0 -0.5550449664
O  O35  1  0.97280000  0.71680000  0.40540000  1.0 -0.5520216959
O  O36  1  0.68860000  0.78320000  0.75600000  1.0 -0.5520216959
O  O37  1  0.25600000  0.47280000  0.06740000  1.0 -0.5550449664
O  O38  1  0.06740000  0.25600000  0.47280000  1.0 -0.5520216959
O  O39  1  0.47280000  0.06740000  0.25600000  1.0 -0.5520216959
O  O40  1  0.90540000  0.18860000  0.43260000  1.0 -0.5520216959
O  O41  1  0.59460000  0.02720000  0.28320000  1.0 -0.5520216959
O  O42  1  0.24400000  0.31140000  0.21680000  1.0 -0.5520216959
O  O43  1  0.43260000  0.90540000  0.18860000  1.0 -0.5520216959
O  O44  1  0.28320000  0.59460000  0.02720000  1.0 -0.5550449664
O  O45  1  0.21680000  0.24400000  0.31140000  1.0 -0.5520216959
O  O46  1  0.18860000  0.43260000  0.90540000  1.0 -0.5550449664
O  O47  1  0.02720000  0.28320000  0.59460000  1.0 -0.5520216959
O  O48  1  0.31140000  0.21680000  0.24400000  1.0 -0.5550449664
O  O49  1  0.56000000  0.44750000  0.56730000  1.0 -0.4661088113
O  O50  1  0.56730000  0.56000000  0.44750000  1.0 -0.4661088113
O  O51  1  0.44750000  0.56730000  0.56000000  1.0 -0.4661088113
O  O52  1  0.38020000  0.99270000  0.93270000  1.0 -0.4661088113
O  O53  1  0.11980000  0.05250000  0.61250000  1.0 -0.4661088113
O  O54  1  0.94000000  0.50730000  0.88750000  1.0 -0.4661088113
O  O55  1  0.93270000  0.38020000  0.99270000  1.0 -0.4661088113
O  O56  1  0.61250000  0.11980000  0.05250000  1.0 -0.4661088113
O  O57  1  0.88750000  0.94000000  0.50730000  1.0 -0.4661088113
O  O58  1  0.99270000  0.93270000  0.38020000  1.0 -0.4661088113
O  O59  1  0.05250000  0.61250000  0.11980000  1.0 -0.4661088113
O  O60  1  0.50730000  0.88750000  0.94000000  1.0 -0.4661088113
O  O61  1  0.44000000  0.55250000  0.43270000  1.0 -0.4661088113
O  O62  1  0.43270000  0.44000000  0.55250000  1.0 -0.4661088113
O  O63  1  0.55250000  0.43270000  0.44000000  1.0 -0.4661088113
O  O64  1  0.61980000  0.00730000  0.06730000  1.0 -0.4661088113
O  O65  1  0.88020000  0.94750000  0.38750000  1.0 -0.4661088113
O  O66  1  0.06000000  0.49270000  0.11250000  1.0 -0.4661088113
O  O67  1  0.06730000  0.61980000  0.00730000  1.0 -0.4661088113
O  O68  1  0.38750000  0.88020000  0.94750000  1.0 -0.4661088113
O  O69  1  0.11250000  0.06000000  0.49270000  1.0 -0.4661088113
O  O70  1  0.00730000  0.06730000  0.61980000  1.0 -0.4661088113
O  O71  1  0.94750000  0.38750000  0.88020000  1.0 -0.4661088113
O  O72  1  0.49270000  0.11250000  0.06000000  1.0 -0.4661088113
O  O73  1  0.58270000  0.55210000  0.63640000  1.0 -0.7198496287
O  O74  1  0.63640000  0.58270000  0.55210000  1.0 -0.7198496287
O  O75  1  0.55210000  0.63640000  0.58270000  1.0 -0.7198496287
O  O76  1  0.41570000  0.94630000  0.86360000  1.0 -0.7198496287
O  O77  1  0.08430000  0.94790000  0.53060000  1.0 -0.7198496287
O  O78  1  0.91730000  0.55370000  0.96940000  1.0 -0.7198496287
O  O79  1  0.86360000  0.41570000  0.94630000  1.0 -0.7198496287
O  O80  1  0.53060000  0.08430000  0.94790000  1.0 -0.7198496287
O  O81  1  0.96940000  0.91730000  0.55370000  1.0 -0.7198496287
O  O82  1  0.94630000  0.86360000  0.41570000  1.0 -0.7198496287
O  O83  1  0.94790000  0.53060000  0.08430000  1.0 -0.7198496287
O  O84  1  0.55370000  0.96940000  0.91730000  1.0 -0.7198496287
O  O85  1  0.41730000  0.44790000  0.36360000  1.0 -0.7198496287
O  O86  1  0.36360000  0.41730000  0.44790000  1.0 -0.7198496287
O  O87  1  0.44790000  0.36360000  0.41730000  1.0 -0.7198496287
O  O88  1  0.58430000  0.05370000  0.13640000  1.0 -0.7198496287
O  O89  1  0.91570000  0.05210000  0.46940000  1.0 -0.7198496287
O  O90  1  0.08270000  0.44630000  0.03060000  1.0 -0.7198496287
O  O91  1  0.13640000  0.58430000  0.05370000  1.0 -0.7198496287
O  O92  1  0.46940000  0.91570000  0.05210000  1.0 -0.7198496287
O  O93  1  0.03060000  0.08270000  0.44630000  1.0 -0.7198496287
O  O94  1  0.05370000  0.13640000  0.58430000  1.0 -0.7198496287
O  O95  1  0.05210000  0.46940000  0.91570000  1.0 -0.7198496287
O  O96  1  0.44630000  0.03060000  0.08270000  1.0 -0.7198496287
O  O97  1  0.58390000  0.55830000  0.00040000  1.0 -0.3413826152
O  O98  1  0.52560000  0.44210000  0.94170000  1.0 -0.3219667359
O  O99  1  0.58350000  0.49960000  0.05790000  1.0 -0.3219667359
O  O100  1  0.05790000  0.58350000  0.49960000  1.0 -0.3219667359
O  O101  1  0.00040000  0.58390000  0.55830000  1.0 -0.3413826152
O  O102  1  0.94170000  0.52560000  0.44210000  1.0 -0.3413826152
O  O103  1  0.44210000  0.94170000  0.52560000  1.0 -0.3219667359
O  O104  1  0.49960000  0.05790000  0.58350000  1.0 -0.3219667359
O  O105  1  0.55830000  0.00040000  0.58390000  1.0 -0.3219667359
O  O106  1  0.91610000  0.91650000  0.97440000  1.0 -0.3296966939
O  O107  1  0.97440000  0.91610000  0.91650000  1.0 -0.3296966939
O  O108  1  0.91650000  0.97440000  0.91610000  1.0 -0.3296966939
O  O109  1  0.41610000  0.44170000  0.99960000  1.0 -0.3219667359
O  O110  1  0.47440000  0.55790000  0.05830000  1.0 -0.3413826152
O  O111  1  0.41650000  0.50040000  0.94210000  1.0 -0.3219667359
O  O112  1  0.94210000  0.41650000  0.50040000  1.0 -0.3219667359
O  O113  1  0.99960000  0.41610000  0.44170000  1.0 -0.3413826152
O  O114  1  0.05830000  0.47440000  0.55790000  1.0 -0.3296966939
O  O115  1  0.55790000  0.05830000  0.47440000  1.0 -0.3296966939
O  O116  1  0.50040000  0.94210000  0.41650000  1.0 -0.3296966939
O  O117  1  0.44170000  0.99960000  0.41610000  1.0 -0.3296966939
O  O118  1  0.08390000  0.08350000  0.02560000  1.0 -0.3413826152
O  O119  1  0.02560000  0.08390000  0.08350000  1.0 -0.3219667359
O  O120  1  0.08350000  0.02560000  0.08390000  1.0 -0.3219667359
