# DDEC6 charges by PACMAN v1.1 (https://github.com/mtap-research/PACMAN-charge/)
data_KAVJEX01_FSR_pacman
_symmetry_space_group_name_H-M   'P 1'
_cell_length_a   23.21430000
_cell_length_b   23.21430000
_cell_length_c   23.21430000
_cell_angle_alpha   109.47100000
_cell_angle_beta   109.47100000
_cell_angle_gamma   109.47100000
_symmetry_Int_Tables_number   1
_chemical_formula_structural   NdH8C16(N3O4)2
_chemical_formula_sum   'Nd12 H96 C192 N72 O96'
_cell_volume   9630.49110672
_cell_formula_units_Z   12
loop_
 _symmetry_equiv_pos_site_id
 _symmetry_equiv_pos_as_xyz
  1  'x, y, z'
loop_
 _atom_site_type_symbol
 _atom_site_label
 _atom_site_symmetry_multiplicity
 _atom_site_fract_x
 _atom_site_fract_y
 _atom_site_fract_z
 _atom_site_occupancy
 _atom_site_charge
Nd  Nd1  1  0.50000000  0.50000000  0.50000000  1.0 1.9989299656
Nd  Nd2  1  0.50000000  0.00000000  0.00000000  1.0 1.9989299656
Nd  Nd3  1  0.00000000  0.50000000  0.00000000  1.0 1.9989299656
Nd  Nd4  1  0.00000000  0.00000000  0.50000000  1.0 1.9989299656
Nd  Nd5  1  0.66834000  0.66834000  0.66834000  1.0 2.0615377606
Nd  Nd6  1  0.50000000  0.00000000  0.83166000  1.0 2.0615377606
Nd  Nd7  1  0.83166000  0.50000000  0.00000000  1.0 2.0615377606
Nd  Nd8  1  0.00000000  0.83166000  0.50000000  1.0 2.0615377606
Nd  Nd9  1  0.33166000  0.33166000  0.33166000  1.0 2.0615377606
Nd  Nd10  1  0.50000000  0.00000000  0.16834000  1.0 2.0615377606
Nd  Nd11  1  0.16834000  0.50000000  0.00000000  1.0 2.0615377606
Nd  Nd12  1  0.00000000  0.16834000  0.50000000  1.0 2.0615377606
H  H1  1  0.63900000  0.62720000  0.40520000  1.0 0.2008976744
H  H2  1  0.72200000  0.23380000  0.09480000  1.0 0.2008976744
H  H3  1  0.86100000  0.26620000  0.98820000  1.0 0.2008976744
H  H4  1  0.77800000  0.87280000  0.51180000  1.0 0.2008976744
H  H5  1  0.40520000  0.63900000  0.62720000  1.0 0.2008976744
H  H6  1  0.62720000  0.40520000  0.63900000  1.0 0.2008976744
H  H7  1  0.51180000  0.77800000  0.87280000  1.0 0.2008976744
H  H8  1  0.23380000  0.09480000  0.72200000  1.0 0.2008976744
H  H9  1  0.09480000  0.72200000  0.23380000  1.0 0.2008976744
H  H10  1  0.26620000  0.98820000  0.86100000  1.0 0.2008976744
H  H11  1  0.98820000  0.86100000  0.26620000  1.0 0.2008976744
H  H12  1  0.87280000  0.51180000  0.77800000  1.0 0.2008976744
H  H13  1  0.36100000  0.37280000  0.59480000  1.0 0.2008976744
H  H14  1  0.27800000  0.76620000  0.90520000  1.0 0.2008976744
H  H15  1  0.13900000  0.73380000  0.01180000  1.0 0.2008976744
H  H16  1  0.22200000  0.12720000  0.48820000  1.0 0.2008976744
H  H17  1  0.59480000  0.36100000  0.37280000  1.0 0.2008976744
H  H18  1  0.37280000  0.59480000  0.36100000  1.0 0.2008976744
H  H19  1  0.48820000  0.22200000  0.12720000  1.0 0.2008976744
H  H20  1  0.76620000  0.90520000  0.27800000  1.0 0.2008976744
H  H21  1  0.90520000  0.27800000  0.76620000  1.0 0.2008976744
H  H22  1  0.73380000  0.01180000  0.13900000  1.0 0.2008976744
H  H23  1  0.01180000  0.13900000  0.73380000  1.0 0.2008976744
H  H24  1  0.12720000  0.48820000  0.22200000  1.0 0.2008976744
H  H25  1  0.85790000  0.67440000  0.56350000  1.0 0.2066230678
H  H26  1  0.61090000  0.29440000  0.93650000  1.0 0.2066230678
H  H27  1  0.64210000  0.20560000  0.81650000  1.0 0.2066230678
H  H28  1  0.88910000  0.82560000  0.68350000  1.0 0.2066230678
H  H29  1  0.56350000  0.85790000  0.67440000  1.0 0.2066230678
H  H30  1  0.67440000  0.56350000  0.85790000  1.0 0.2066230678
H  H31  1  0.68350000  0.88910000  0.82560000  1.0 0.2066230678
H  H32  1  0.29440000  0.93650000  0.61090000  1.0 0.2066230678
H  H33  1  0.93650000  0.61090000  0.29440000  1.0 0.2066230678
H  H34  1  0.20560000  0.81650000  0.64210000  1.0 0.2066230678
H  H35  1  0.81650000  0.64210000  0.20560000  1.0 0.2066230678
H  H36  1  0.82560000  0.68350000  0.88910000  1.0 0.2066230678
H  H37  1  0.14210000  0.32560000  0.43650000  1.0 0.2066230678
H  H38  1  0.38910000  0.70560000  0.06350000  1.0 0.2066230678
H  H39  1  0.35790000  0.79440000  0.18350000  1.0 0.2066230678
H  H40  1  0.11090000  0.17440000  0.31650000  1.0 0.2066230678
H  H41  1  0.43650000  0.14210000  0.32560000  1.0 0.2066230678
H  H42  1  0.32560000  0.43650000  0.14210000  1.0 0.2066230678
H  H43  1  0.31650000  0.11090000  0.17440000  1.0 0.2066230678
H  H44  1  0.70560000  0.06350000  0.38910000  1.0 0.2066230678
H  H45  1  0.06350000  0.38910000  0.70560000  1.0 0.2066230678
H  H46  1  0.79440000  0.18350000  0.35790000  1.0 0.2066230678
H  H47  1  0.18350000  0.35790000  0.79440000  1.0 0.2066230678
H  H48  1  0.17440000  0.31650000  0.11090000  1.0 0.2066230678
H  H49  1  0.75850000  0.61650000  0.56860000  1.0 0.1718638869
H  H50  1  0.54790000  0.18990000  0.93140000  1.0 0.1718638869
H  H51  1  0.74150000  0.31010000  0.85800000  1.0 0.1718638869
H  H52  1  0.95210000  0.88350000  0.64200000  1.0 0.1718638869
H  H53  1  0.56860000  0.75850000  0.61650000  1.0 0.1718638869
H  H54  1  0.61650000  0.56860000  0.75850000  1.0 0.1718638869
H  H55  1  0.64200000  0.95210000  0.88350000  1.0 0.1718638869
H  H56  1  0.18990000  0.93140000  0.54790000  1.0 0.1718638869
H  H57  1  0.93140000  0.54790000  0.18990000  1.0 0.1718638869
H  H58  1  0.31010000  0.85800000  0.74150000  1.0 0.1718638869
H  H59  1  0.85800000  0.74150000  0.31010000  1.0 0.1718638869
H  H60  1  0.88350000  0.64200000  0.95210000  1.0 0.1718638869
H  H61  1  0.24150000  0.38350000  0.43140000  1.0 0.1718638869
H  H62  1  0.45210000  0.81010000  0.06860000  1.0 0.1718638869
H  H63  1  0.25850000  0.68990000  0.14200000  1.0 0.1718638869
H  H64  1  0.04790000  0.11650000  0.35800000  1.0 0.1718638869
H  H65  1  0.43140000  0.24150000  0.38350000  1.0 0.1718638869
H  H66  1  0.38350000  0.43140000  0.24150000  1.0 0.1718638869
H  H67  1  0.35800000  0.04790000  0.11650000  1.0 0.1718638869
H  H68  1  0.81010000  0.06860000  0.45210000  1.0 0.1718638869
H  H69  1  0.06860000  0.45210000  0.81010000  1.0 0.1718638869
H  H70  1  0.68990000  0.14200000  0.25850000  1.0 0.1718638869
H  H71  1  0.14200000  0.25850000  0.68990000  1.0 0.1718638869
H  H72  1  0.11650000  0.35800000  0.04790000  1.0 0.1718638869
H  H73  1  0.71250000  0.80840000  0.54850000  1.0 0.2066230678
H  H74  1  0.75990000  0.16400000  0.95150000  1.0 0.2066230678
H  H75  1  0.78750000  0.33600000  0.09590000  1.0 0.2066230678
H  H76  1  0.74010000  0.69160000  0.40410000  1.0 0.2066230678
H  H77  1  0.54850000  0.71250000  0.80840000  1.0 0.2066230678
H  H78  1  0.80840000  0.54850000  0.71250000  1.0 0.2066230678
H  H79  1  0.40410000  0.74010000  0.69160000  1.0 0.2066230678
H  H80  1  0.16400000  0.95150000  0.75990000  1.0 0.2066230678
H  H81  1  0.95150000  0.75990000  0.16400000  1.0 0.2066230678
H  H82  1  0.33600000  0.09590000  0.78750000  1.0 0.2066230678
H  H83  1  0.09590000  0.78750000  0.33600000  1.0 0.2066230678
H  H84  1  0.69160000  0.40410000  0.74010000  1.0 0.2066230678
H  H85  1  0.28750000  0.19160000  0.45150000  1.0 0.2066230678
H  H86  1  0.24010000  0.83600000  0.04850000  1.0 0.2066230678
H  H87  1  0.21250000  0.66400000  0.90410000  1.0 0.2066230678
H  H88  1  0.25990000  0.30840000  0.59590000  1.0 0.2066230678
H  H89  1  0.45150000  0.28750000  0.19160000  1.0 0.2066230678
H  H90  1  0.19160000  0.45150000  0.28750000  1.0 0.2066230678
H  H91  1  0.59590000  0.25990000  0.30840000  1.0 0.2066230678
H  H92  1  0.83600000  0.04850000  0.24010000  1.0 0.2066230678
H  H93  1  0.04850000  0.24010000  0.83600000  1.0 0.2066230678
H  H94  1  0.66400000  0.90410000  0.21250000  1.0 0.2066230678
H  H95  1  0.90410000  0.21250000  0.66400000  1.0 0.2066230678
H  H96  1  0.30840000  0.59590000  0.25990000  1.0 0.2066230678
C  C1  1  0.62667000  0.58336000  0.49469000  1.0 0.6256558538
C  C2  1  0.58867000  0.13198000  0.00531000  1.0 0.6256558538
C  C3  1  0.87333000  0.36802000  0.95669000  1.0 0.6256558538
C  C4  1  0.91133000  0.91664000  0.54331000  1.0 0.6256558538
C  C5  1  0.49469000  0.62667000  0.58336000  1.0 0.6256558538
C  C6  1  0.58336000  0.49469000  0.62667000  1.0 0.6256558538
C  C7  1  0.54331000  0.91133000  0.91664000  1.0 0.6256558538
C  C8  1  0.13198000  0.00531000  0.58867000  1.0 0.6256558538
C  C9  1  0.00531000  0.58867000  0.13198000  1.0 0.6249080481
C  C10  1  0.36802000  0.95669000  0.87333000  1.0 0.6256558538
C  C11  1  0.95669000  0.87333000  0.36802000  1.0 0.6256558538
C  C12  1  0.91664000  0.54331000  0.91133000  1.0 0.6249080481
C  C13  1  0.37333000  0.41664000  0.50531000  1.0 0.6256558538
C  C14  1  0.41133000  0.86802000  0.99469000  1.0 0.6256558538
C  C15  1  0.12667000  0.63198000  0.04331000  1.0 0.6249080481
C  C16  1  0.08867000  0.08336000  0.45669000  1.0 0.6256558538
C  C17  1  0.50531000  0.37333000  0.41664000  1.0 0.6256558538
C  C18  1  0.41664000  0.50531000  0.37333000  1.0 0.6256558538
C  C19  1  0.45669000  0.08867000  0.08336000  1.0 0.6256558538
C  C20  1  0.86802000  0.99469000  0.41133000  1.0 0.6256558538
C  C21  1  0.99469000  0.41133000  0.86802000  1.0 0.6256558538
C  C22  1  0.63198000  0.04331000  0.12667000  1.0 0.6256558538
C  C23  1  0.04331000  0.12667000  0.63198000  1.0 0.6256558538
C  C24  1  0.08336000  0.45669000  0.08867000  1.0 0.6249080481
C  C25  1  0.68962000  0.61827000  0.48887000  1.0 -0.0143628781
C  C26  1  0.62940000  0.20075000  0.01113000  1.0 -0.0157647834
C  C27  1  0.81038000  0.29925000  0.92865000  1.0 -0.0143628781
C  C28  1  0.87060000  0.88173000  0.57135000  1.0 -0.0143628781
C  C29  1  0.48887000  0.68962000  0.61827000  1.0 -0.0143628781
C  C30  1  0.61827000  0.48887000  0.68962000  1.0 -0.0143628781
C  C31  1  0.57135000  0.87060000  0.88173000  1.0 -0.0143628781
C  C32  1  0.20075000  0.01113000  0.62940000  1.0 -0.0143628781
C  C33  1  0.01113000  0.62940000  0.20075000  1.0 -0.0143628781
C  C34  1  0.29925000  0.92865000  0.81038000  1.0 -0.0143628781
C  C35  1  0.92865000  0.81038000  0.29925000  1.0 -0.0143628781
C  C36  1  0.88173000  0.57135000  0.87060000  1.0 -0.0143628781
C  C37  1  0.31038000  0.38173000  0.51113000  1.0 -0.0143628781
C  C38  1  0.37060000  0.79925000  0.98887000  1.0 -0.0143628781
C  C39  1  0.18962000  0.70075000  0.07135000  1.0 -0.0143628781
C  C40  1  0.12940000  0.11827000  0.42865000  1.0 -0.0157647834
C  C41  1  0.51113000  0.31038000  0.38173000  1.0 -0.0143628781
C  C42  1  0.38173000  0.51113000  0.31038000  1.0 -0.0143628781
C  C43  1  0.42865000  0.12940000  0.11827000  1.0 -0.0143628781
C  C44  1  0.79925000  0.98887000  0.37060000  1.0 -0.0143628781
C  C45  1  0.98887000  0.37060000  0.79925000  1.0 -0.0143628781
C  C46  1  0.70075000  0.07135000  0.18962000  1.0 -0.0157647834
C  C47  1  0.07135000  0.18962000  0.70075000  1.0 -0.0143628781
C  C48  1  0.11827000  0.42865000  0.12940000  1.0 -0.0143628781
C  C49  1  0.87328000  0.73267000  0.48449000  1.0 0.5685193396
C  C50  1  0.74818000  0.38879000  0.01551000  1.0 0.5685193396
C  C51  1  0.62672000  0.11121000  0.85939000  1.0 0.5685193396
C  C52  1  0.75182000  0.76733000  0.64061000  1.0 0.5685193396
C  C53  1  0.48449000  0.87328000  0.73267000  1.0 0.5685193396
C  C54  1  0.73267000  0.48449000  0.87328000  1.0 0.5685193396
C  C55  1  0.64061000  0.75182000  0.76733000  1.0 0.5685193396
C  C56  1  0.38879000  0.01551000  0.74818000  1.0 0.5685193396
C  C57  1  0.01551000  0.74818000  0.38879000  1.0 0.5685193396
C  C58  1  0.11121000  0.85939000  0.62672000  1.0 0.5685193396
C  C59  1  0.85939000  0.62672000  0.11121000  1.0 0.5685193396
C  C60  1  0.76733000  0.64061000  0.75182000  1.0 0.5685193396
C  C61  1  0.12672000  0.26733000  0.51551000  1.0 0.5685193396
C  C62  1  0.25182000  0.61121000  0.98449000  1.0 0.5685193396
C  C63  1  0.37328000  0.88879000  0.14061000  1.0 0.5685193396
C  C64  1  0.24818000  0.23267000  0.35939000  1.0 0.5685193396
C  C65  1  0.51551000  0.12672000  0.26733000  1.0 0.5685193396
C  C66  1  0.26733000  0.51551000  0.12672000  1.0 0.5685193396
C  C67  1  0.35939000  0.24818000  0.23267000  1.0 0.5685193396
C  C68  1  0.61121000  0.98449000  0.25182000  1.0 0.5685193396
C  C69  1  0.98449000  0.25182000  0.61121000  1.0 0.5685193396
C  C70  1  0.88879000  0.14061000  0.37328000  1.0 0.5685193396
C  C71  1  0.14061000  0.37328000  0.88879000  1.0 0.5685193396
C  C72  1  0.23267000  0.35939000  0.24818000  1.0 0.5685193396
C  C73  1  0.80877000  0.68891000  0.48326000  1.0 -0.032354888
C  C74  1  0.70565000  0.32551000  0.01674000  1.0 -0.032354888
C  C75  1  0.69123000  0.17449000  0.88014000  1.0 -0.032354888
C  C76  1  0.79435000  0.81109000  0.61986000  1.0 -0.032354888
C  C77  1  0.48326000  0.80877000  0.68891000  1.0 -0.032354888
C  C78  1  0.68891000  0.48326000  0.80877000  1.0 -0.032354888
C  C79  1  0.61986000  0.79435000  0.81109000  1.0 -0.032354888
C  C80  1  0.32551000  0.01674000  0.70565000  1.0 -0.032354888
C  C81  1  0.01674000  0.70565000  0.32551000  1.0 -0.032354888
C  C82  1  0.17449000  0.88014000  0.69123000  1.0 -0.032354888
C  C83  1  0.88014000  0.69123000  0.17449000  1.0 -0.032354888
C  C84  1  0.81109000  0.61986000  0.79435000  1.0 -0.032354888
C  C85  1  0.19123000  0.31109000  0.51674000  1.0 -0.032354888
C  C86  1  0.29435000  0.67449000  0.98326000  1.0 -0.032354888
C  C87  1  0.30877000  0.82551000  0.11986000  1.0 -0.032354888
C  C88  1  0.20565000  0.18891000  0.38014000  1.0 -0.032354888
C  C89  1  0.51674000  0.19123000  0.31109000  1.0 -0.032354888
C  C90  1  0.31109000  0.51674000  0.19123000  1.0 -0.032354888
C  C91  1  0.38014000  0.20565000  0.18891000  1.0 -0.032354888
C  C92  1  0.67449000  0.98326000  0.29435000  1.0 -0.032354888
C  C93  1  0.98326000  0.29435000  0.67449000  1.0 -0.032354888
C  C94  1  0.82551000  0.11986000  0.30877000  1.0 -0.032354888
C  C95  1  0.11986000  0.30877000  0.82551000  1.0 -0.032354888
C  C96  1  0.18891000  0.38014000  0.20565000  1.0 -0.032354888
C  C97  1  0.74383000  0.67548000  0.43709000  1.0 0.036402907
C  C98  1  0.73839000  0.30674000  0.06291000  1.0 0.036402907
C  C99  1  0.75617000  0.19326000  0.93165000  1.0 0.036402907
C  C100  1  0.76161000  0.82452000  0.56835000  1.0 0.036402907
C  C101  1  0.43709000  0.74383000  0.67548000  1.0 0.036402907
C  C102  1  0.67548000  0.43709000  0.74383000  1.0 0.036402907
C  C103  1  0.56835000  0.76161000  0.82452000  1.0 0.036402907
C  C104  1  0.30674000  0.06291000  0.73839000  1.0 0.036402907
C  C105  1  0.06291000  0.73839000  0.30674000  1.0 0.0346979251
C  C106  1  0.19326000  0.93165000  0.75617000  1.0 0.036402907
C  C107  1  0.93165000  0.75617000  0.19326000  1.0 0.036402907
C  C108  1  0.82452000  0.56835000  0.76161000  1.0 0.036402907
C  C109  1  0.25617000  0.32452000  0.56291000  1.0 0.036402907
C  C110  1  0.26161000  0.69326000  0.93709000  1.0 0.036402907
C  C111  1  0.24383000  0.80674000  0.06835000  1.0 0.036402907
C  C112  1  0.23839000  0.17548000  0.43165000  1.0 0.036402907
C  C113  1  0.56291000  0.25617000  0.32452000  1.0 0.036402907
C  C114  1  0.32452000  0.56291000  0.25617000  1.0 0.036402907
C  C115  1  0.43165000  0.23839000  0.17548000  1.0 0.0346979251
C  C116  1  0.69326000  0.93709000  0.26161000  1.0 0.036402907
C  C117  1  0.93709000  0.26161000  0.69326000  1.0 0.036402907
C  C118  1  0.80674000  0.06835000  0.24383000  1.0 0.036402907
C  C119  1  0.06835000  0.24383000  0.80674000  1.0 0.036402907
C  C120  1  0.17548000  0.43165000  0.23839000  1.0 0.0346979251
C  C121  1  0.68393000  0.63852000  0.43875000  1.0 0.0812088363
C  C122  1  0.69977000  0.24518000  0.06125000  1.0 0.0812088363
C  C123  1  0.81607000  0.25482000  0.95459000  1.0 0.0812088363
C  C124  1  0.80023000  0.86148000  0.54541000  1.0 0.0812088363
C  C125  1  0.43875000  0.68393000  0.63852000  1.0 0.0812088363
C  C126  1  0.63852000  0.43875000  0.68393000  1.0 0.0812088363
C  C127  1  0.54541000  0.80023000  0.86148000  1.0 0.0812088363
C  C128  1  0.24518000  0.06125000  0.69977000  1.0 0.0812088363
C  C129  1  0.06125000  0.69977000  0.24518000  1.0 0.0812088363
C  C130  1  0.25482000  0.95459000  0.81607000  1.0 0.0812088363
C  C131  1  0.95459000  0.81607000  0.25482000  1.0 0.0812088363
C  C132  1  0.86148000  0.54541000  0.80023000  1.0 0.0812088363
C  C133  1  0.31607000  0.36148000  0.56125000  1.0 0.0812088363
C  C134  1  0.30023000  0.75482000  0.93875000  1.0 0.0812088363
C  C135  1  0.18393000  0.74518000  0.04541000  1.0 0.0812088363
C  C136  1  0.19977000  0.13852000  0.45459000  1.0 0.0812088363
C  C137  1  0.56125000  0.31607000  0.36148000  1.0 0.0812088363
C  C138  1  0.36148000  0.56125000  0.31607000  1.0 0.0812088363
C  C139  1  0.45459000  0.19977000  0.13852000  1.0 0.0812088363
C  C140  1  0.75482000  0.93875000  0.30023000  1.0 0.0812088363
C  C141  1  0.93875000  0.30023000  0.75482000  1.0 0.0812088363
C  C142  1  0.74518000  0.04541000  0.18393000  1.0 0.0812088363
C  C143  1  0.04541000  0.18393000  0.74518000  1.0 0.0812088363
C  C144  1  0.13852000  0.45459000  0.19977000  1.0 0.0812088363
C  C145  1  0.81361000  0.66609000  0.53200000  1.0 0.0703058935
C  C146  1  0.63409000  0.28161000  0.96800000  1.0 0.0703058935
C  C147  1  0.68639000  0.21839000  0.85248000  1.0 0.0703058935
C  C148  1  0.86591000  0.83391000  0.64752000  1.0 0.0703058935
C  C149  1  0.53200000  0.81361000  0.66609000  1.0 0.0703058935
C  C150  1  0.66609000  0.53200000  0.81361000  1.0 0.0703058935
C  C151  1  0.64752000  0.86591000  0.83391000  1.0 0.0703058935
C  C152  1  0.28161000  0.96800000  0.63409000  1.0 0.0703058935
C  C153  1  0.96800000  0.63409000  0.28161000  1.0 0.0703058935
C  C154  1  0.21839000  0.85248000  0.68639000  1.0 0.0703058935
C  C155  1  0.85248000  0.68639000  0.21839000  1.0 0.0703058935
C  C156  1  0.83391000  0.64752000  0.86591000  1.0 0.0703058935
C  C157  1  0.18639000  0.33391000  0.46800000  1.0 0.0703058935
C  C158  1  0.36591000  0.71839000  0.03200000  1.0 0.0703058935
C  C159  1  0.31361000  0.78161000  0.14752000  1.0 0.0703058935
C  C160  1  0.13409000  0.16609000  0.35248000  1.0 0.0703058935
C  C161  1  0.46800000  0.18639000  0.33391000  1.0 0.0703058935
C  C162  1  0.33391000  0.46800000  0.18639000  1.0 0.0703058935
C  C163  1  0.35248000  0.13409000  0.16609000  1.0 0.0703058935
C  C164  1  0.71839000  0.03200000  0.36591000  1.0 0.0703058935
C  C165  1  0.03200000  0.36591000  0.71839000  1.0 0.0703058935
C  C166  1  0.78161000  0.14752000  0.31361000  1.0 0.0703058935
C  C167  1  0.14752000  0.31361000  0.78161000  1.0 0.0703058935
C  C168  1  0.16609000  0.35248000  0.13409000  1.0 0.0703058935
C  C169  1  0.75460000  0.63148000  0.53482000  1.0 -0.0940730273
C  C170  1  0.59666000  0.21978000  0.96518000  1.0 -0.0940730273
C  C171  1  0.74540000  0.28022000  0.87688000  1.0 -0.0940730273
C  C172  1  0.90334000  0.86852000  0.62312000  1.0 -0.0940730273
C  C173  1  0.53482000  0.75460000  0.63148000  1.0 -0.0940730273
C  C174  1  0.63148000  0.53482000  0.75460000  1.0 -0.0940730273
C  C175  1  0.62312000  0.90334000  0.86852000  1.0 -0.0940730273
C  C176  1  0.21978000  0.96518000  0.59666000  1.0 -0.0940730273
C  C177  1  0.96518000  0.59666000  0.21978000  1.0 -0.0940730273
C  C178  1  0.28022000  0.87688000  0.74540000  1.0 -0.0940730273
C  C179  1  0.87688000  0.74540000  0.28022000  1.0 -0.0940730273
C  C180  1  0.86852000  0.62312000  0.90334000  1.0 -0.0940730273
C  C181  1  0.24540000  0.36852000  0.46518000  1.0 -0.0940730273
C  C182  1  0.40334000  0.78022000  0.03482000  1.0 -0.0940730273
C  C183  1  0.25460000  0.71978000  0.12312000  1.0 -0.0940730273
C  C184  1  0.09666000  0.13148000  0.37688000  1.0 -0.0940730273
C  C185  1  0.46518000  0.24540000  0.36852000  1.0 -0.0940730273
C  C186  1  0.36852000  0.46518000  0.24540000  1.0 -0.0940730273
C  C187  1  0.37688000  0.09666000  0.13148000  1.0 -0.0940730273
C  C188  1  0.78022000  0.03482000  0.40334000  1.0 -0.0940730273
C  C189  1  0.03482000  0.40334000  0.78022000  1.0 -0.0940730273
C  C190  1  0.71978000  0.12312000  0.25460000  1.0 -0.0940730273
C  C191  1  0.12312000  0.25460000  0.71978000  1.0 -0.0940730273
C  C192  1  0.13148000  0.37688000  0.09666000  1.0 -0.0940730273
N  N1  1  0.72960000  0.69050000  0.38010000  1.0 -0.2656759678
N  N2  1  0.81040000  0.34950000  0.11990000  1.0 -0.2636362995
N  N3  1  0.77040000  0.15050000  0.96090000  1.0 -0.2656759678
N  N4  1  0.68960000  0.80950000  0.53910000  1.0 -0.2636362995
N  N5  1  0.38010000  0.72960000  0.69050000  1.0 -0.2656759678
N  N6  1  0.69050000  0.38010000  0.72960000  1.0 -0.2656759678
N  N7  1  0.53910000  0.68960000  0.80950000  1.0 -0.2656759678
N  N8  1  0.34950000  0.11990000  0.81040000  1.0 -0.2656759678
N  N9  1  0.11990000  0.81040000  0.34950000  1.0 -0.2636362995
N  N10  1  0.15050000  0.96090000  0.77040000  1.0 -0.2656759678
N  N11  1  0.96090000  0.77040000  0.15050000  1.0 -0.2636362995
N  N12  1  0.80950000  0.53910000  0.68960000  1.0 -0.2656759678
N  N13  1  0.27040000  0.30950000  0.61990000  1.0 -0.2656759678
N  N14  1  0.18960000  0.65050000  0.88010000  1.0 -0.2636362995
N  N15  1  0.22960000  0.84950000  0.03910000  1.0 -0.2656759678
N  N16  1  0.31040000  0.19050000  0.46090000  1.0 -0.2656759678
N  N17  1  0.61990000  0.27040000  0.30950000  1.0 -0.2656759678
N  N18  1  0.30950000  0.61990000  0.27040000  1.0 -0.2636362995
N  N19  1  0.46090000  0.31040000  0.19050000  1.0 -0.2636362995
N  N20  1  0.65050000  0.88010000  0.18960000  1.0 -0.2636362995
N  N21  1  0.88010000  0.18960000  0.65050000  1.0 -0.2656759678
N  N22  1  0.84950000  0.03910000  0.22960000  1.0 -0.2656759678
N  N23  1  0.03910000  0.22960000  0.84950000  1.0 -0.2656759678
N  N24  1  0.19050000  0.46090000  0.31040000  1.0 -0.2636362995
N  N25  1  0.75630000  0.86810000  0.48760000  1.0 -0.2954833157
N  N26  1  0.88050000  0.26870000  0.01240000  1.0 -0.2954833157
N  N27  1  0.74370000  0.23130000  0.11180000  1.0 -0.2919505015
N  N28  1  0.61950000  0.63190000  0.38820000  1.0 -0.2919505015
N  N29  1  0.48760000  0.75630000  0.86810000  1.0 -0.2954833157
N  N30  1  0.86810000  0.48760000  0.75630000  1.0 -0.2954833157
N  N31  1  0.38820000  0.61950000  0.63190000  1.0 -0.2954833157
N  N32  1  0.26870000  0.01240000  0.88050000  1.0 -0.2954833157
N  N33  1  0.01240000  0.88050000  0.26870000  1.0 -0.2919505015
N  N34  1  0.23130000  0.11180000  0.74370000  1.0 -0.2954833157
N  N35  1  0.11180000  0.74370000  0.23130000  1.0 -0.2919505015
N  N36  1  0.63190000  0.38820000  0.61950000  1.0 -0.2954833157
N  N37  1  0.24370000  0.13190000  0.51240000  1.0 -0.2954833157
N  N38  1  0.11950000  0.73130000  0.98760000  1.0 -0.2954833157
N  N39  1  0.25630000  0.76870000  0.88820000  1.0 -0.2954833157
N  N40  1  0.38050000  0.36810000  0.61180000  1.0 -0.2954833157
N  N41  1  0.51240000  0.24370000  0.13190000  1.0 -0.2919505015
N  N42  1  0.13190000  0.51240000  0.24370000  1.0 -0.2919505015
N  N43  1  0.61180000  0.38050000  0.36810000  1.0 -0.2919505015
N  N44  1  0.73130000  0.98760000  0.11950000  1.0 -0.2919505015
N  N45  1  0.98760000  0.11950000  0.73130000  1.0 -0.2919505015
N  N46  1  0.76870000  0.88820000  0.25630000  1.0 -0.2919505015
N  N47  1  0.88820000  0.25630000  0.76870000  1.0 -0.2954833157
N  N48  1  0.36810000  0.61180000  0.38050000  1.0 -0.2954833157
N  N49  1  0.90820000  0.82150000  0.70130000  1.0 -0.2919505015
N  N50  1  0.62020000  0.20690000  0.79870000  1.0 -0.2919505015
N  N51  1  0.59180000  0.29310000  0.91330000  1.0 -0.2919505015
N  N52  1  0.87980000  0.67850000  0.58670000  1.0 -0.2919505015
N  N53  1  0.70130000  0.90820000  0.82150000  1.0 -0.2919505015
N  N54  1  0.82150000  0.70130000  0.90820000  1.0 -0.2919505015
N  N55  1  0.58670000  0.87980000  0.67850000  1.0 -0.2919505015
N  N56  1  0.20690000  0.79870000  0.62020000  1.0 -0.2919505015
N  N57  1  0.79870000  0.62020000  0.20690000  1.0 -0.2919505015
N  N58  1  0.29310000  0.91330000  0.59180000  1.0 -0.2919505015
N  N59  1  0.91330000  0.59180000  0.29310000  1.0 -0.2919505015
N  N60  1  0.67850000  0.58670000  0.87980000  1.0 -0.2919505015
N  N61  1  0.09180000  0.17850000  0.29870000  1.0 -0.2919505015
N  N62  1  0.37980000  0.79310000  0.20130000  1.0 -0.2919505015
N  N63  1  0.40820000  0.70690000  0.08670000  1.0 -0.2919505015
N  N64  1  0.12020000  0.32150000  0.41330000  1.0 -0.2919505015
N  N65  1  0.29870000  0.09180000  0.17850000  1.0 -0.2919505015
N  N66  1  0.17850000  0.29870000  0.09180000  1.0 -0.2919505015
N  N67  1  0.41330000  0.12020000  0.32150000  1.0 -0.2919505015
N  N68  1  0.79310000  0.20130000  0.37980000  1.0 -0.2919505015
N  N69  1  0.20130000  0.37980000  0.79310000  1.0 -0.2919505015
N  N70  1  0.70690000  0.08670000  0.40820000  1.0 -0.2919505015
N  N71  1  0.08670000  0.40820000  0.70690000  1.0 -0.2919505015
N  N72  1  0.32150000  0.41330000  0.12020000  1.0 -0.2919505015
O  O1  1  0.56600000  0.55747000  0.44513000  1.0 -0.4536695424
O  O2  1  0.61234000  0.12087000  0.05487000  1.0 -0.4536695424
O  O3  1  0.93400000  0.37913000  0.99147000  1.0 -0.4536695424
O  O4  1  0.88766000  0.94253000  0.50853000  1.0 -0.4536695424
O  O5  1  0.44513000  0.56600000  0.55747000  1.0 -0.4536695424
O  O6  1  0.55747000  0.44513000  0.56600000  1.0 -0.4536695424
O  O7  1  0.50853000  0.88766000  0.94253000  1.0 -0.4536695424
O  O8  1  0.12087000  0.05487000  0.61234000  1.0 -0.4536695424
O  O9  1  0.05487000  0.61234000  0.12087000  1.0 -0.4536695424
O  O10  1  0.37913000  0.99147000  0.93400000  1.0 -0.4536695424
O  O11  1  0.99147000  0.93400000  0.37913000  1.0 -0.4536695424
O  O12  1  0.94253000  0.50853000  0.88766000  1.0 -0.4536695424
O  O13  1  0.43400000  0.44253000  0.55487000  1.0 -0.4536695424
O  O14  1  0.38766000  0.87913000  0.94513000  1.0 -0.4536695424
O  O15  1  0.06600000  0.62087000  0.00853000  1.0 -0.4536695424
O  O16  1  0.11234000  0.05747000  0.49147000  1.0 -0.4536695424
O  O17  1  0.55487000  0.43400000  0.44253000  1.0 -0.4536695424
O  O18  1  0.44253000  0.55487000  0.43400000  1.0 -0.4536695424
O  O19  1  0.49147000  0.11234000  0.05747000  1.0 -0.4536695424
O  O20  1  0.87913000  0.94513000  0.38766000  1.0 -0.4536695424
O  O21  1  0.94513000  0.38766000  0.87913000  1.0 -0.4536695424
O  O22  1  0.62087000  0.00853000  0.06600000  1.0 -0.4536695424
O  O23  1  0.00853000  0.06600000  0.62087000  1.0 -0.4536695424
O  O24  1  0.05747000  0.49147000  0.11234000  1.0 -0.4536695424
O  O25  1  0.63560000  0.58128000  0.55082000  1.0 -0.6664040356
O  O26  1  0.53046000  0.08478000  0.94918000  1.0 -0.6664040356
O  O27  1  0.86440000  0.41522000  0.94568000  1.0 -0.6664040356
O  O28  1  0.96954000  0.91872000  0.55432000  1.0 -0.6664040356
O  O29  1  0.55082000  0.63560000  0.58128000  1.0 -0.6664040356
O  O30  1  0.58128000  0.55082000  0.63560000  1.0 -0.6664040356
O  O31  1  0.55432000  0.96954000  0.91872000  1.0 -0.6664040356
O  O32  1  0.08478000  0.94918000  0.53046000  1.0 -0.6664040356
O  O33  1  0.94918000  0.53046000  0.08478000  1.0 -0.6664040356
O  O34  1  0.41522000  0.94568000  0.86440000  1.0 -0.6664040356
O  O35  1  0.94568000  0.86440000  0.41522000  1.0 -0.6664040356
O  O36  1  0.91872000  0.55432000  0.96954000  1.0 -0.6664040356
O  O37  1  0.36440000  0.41872000  0.44918000  1.0 -0.6664040356
O  O38  1  0.46954000  0.91522000  0.05082000  1.0 -0.6664040356
O  O39  1  0.13560000  0.58478000  0.05432000  1.0 -0.6664040356
O  O40  1  0.03046000  0.08128000  0.44568000  1.0 -0.6664040356
O  O41  1  0.44918000  0.36440000  0.41872000  1.0 -0.6664040356
O  O42  1  0.41872000  0.44918000  0.36440000  1.0 -0.6664040356
O  O43  1  0.44568000  0.03046000  0.08128000  1.0 -0.6664040356
O  O44  1  0.91522000  0.05082000  0.46954000  1.0 -0.6664040356
O  O45  1  0.05082000  0.46954000  0.91522000  1.0 -0.6664040356
O  O46  1  0.58478000  0.05432000  0.13560000  1.0 -0.6664040356
O  O47  1  0.05432000  0.13560000  0.58478000  1.0 -0.6664040356
O  O48  1  0.08128000  0.44568000  0.03046000  1.0 -0.6664040356
O  O49  1  0.86922000  0.75914000  0.44436000  1.0 -0.5525442678
O  O50  1  0.81478000  0.42486000  0.05564000  1.0 -0.5525442678
O  O51  1  0.63078000  0.07514000  0.88992000  1.0 -0.5525442678
O  O52  1  0.68522000  0.74086000  0.61008000  1.0 -0.5525442678
O  O53  1  0.44436000  0.86922000  0.75914000  1.0 -0.5525442678
O  O54  1  0.75914000  0.44436000  0.86922000  1.0 -0.5525442678
O  O55  1  0.61008000  0.68522000  0.74086000  1.0 -0.5525442678
O  O56  1  0.42486000  0.05564000  0.81478000  1.0 -0.5525442678
O  O57  1  0.05564000  0.81478000  0.42486000  1.0 -0.5525442678
O  O58  1  0.07514000  0.88992000  0.63078000  1.0 -0.5525442678
O  O59  1  0.88992000  0.63078000  0.07514000  1.0 -0.5525442678
O  O60  1  0.74086000  0.61008000  0.68522000  1.0 -0.5525442678
O  O61  1  0.13078000  0.24086000  0.55564000  1.0 -0.5525442678
O  O62  1  0.18522000  0.57514000  0.94436000  1.0 -0.5525442678
O  O63  1  0.36922000  0.92486000  0.11008000  1.0 -0.5525442678
O  O64  1  0.31478000  0.25914000  0.38992000  1.0 -0.5525442678
O  O65  1  0.55564000  0.13078000  0.24086000  1.0 -0.5525442678
O  O66  1  0.24086000  0.55564000  0.13078000  1.0 -0.5525442678
O  O67  1  0.38992000  0.31478000  0.25914000  1.0 -0.5525442678
O  O68  1  0.57514000  0.94436000  0.18522000  1.0 -0.5525442678
O  O69  1  0.94436000  0.18522000  0.57514000  1.0 -0.5525442678
O  O70  1  0.92486000  0.11008000  0.36922000  1.0 -0.5525442678
O  O71  1  0.11008000  0.36922000  0.92486000  1.0 -0.5525442678
O  O72  1  0.25914000  0.38992000  0.31478000  1.0 -0.5525442678
O  O73  1  0.93373000  0.74549000  0.52718000  1.0 -0.5236402371
O  O74  1  0.71831000  0.40655000  0.97282000  1.0 -0.5236402371
O  O75  1  0.56627000  0.09345000  0.81176000  1.0 -0.5236402371
O  O76  1  0.78169000  0.75451000  0.68824000  1.0 -0.5236402371
O  O77  1  0.52718000  0.93373000  0.74549000  1.0 -0.5236402371
O  O78  1  0.74549000  0.52718000  0.93373000  1.0 -0.5236402371
O  O79  1  0.68824000  0.78169000  0.75451000  1.0 -0.5236402371
O  O80  1  0.40655000  0.97282000  0.71831000  1.0 -0.5236402371
O  O81  1  0.97282000  0.71831000  0.40655000  1.0 -0.5236402371
O  O82  1  0.09345000  0.81176000  0.56627000  1.0 -0.5236402371
O  O83  1  0.81176000  0.56627000  0.09345000  1.0 -0.5236402371
O  O84  1  0.75451000  0.68824000  0.78169000  1.0 -0.5236402371
O  O85  1  0.06627000  0.25451000  0.47282000  1.0 -0.5236402371
O  O86  1  0.28169000  0.59345000  0.02718000  1.0 -0.5236402371
O  O87  1  0.43373000  0.90655000  0.18824000  1.0 -0.5236402371
O  O88  1  0.21831000  0.24549000  0.31176000  1.0 -0.5236402371
O  O89  1  0.47282000  0.06627000  0.25451000  1.0 -0.5236402371
O  O90  1  0.25451000  0.47282000  0.06627000  1.0 -0.5236402371
O  O91  1  0.31176000  0.21831000  0.24549000  1.0 -0.5236402371
O  O92  1  0.59345000  0.02718000  0.28169000  1.0 -0.5236402371
O  O93  1  0.02718000  0.28169000  0.59345000  1.0 -0.5236402371
O  O94  1  0.90655000  0.18824000  0.43373000  1.0 -0.5236402371
O  O95  1  0.18824000  0.43373000  0.90655000  1.0 -0.5236402371
O  O96  1  0.24549000  0.31176000  0.21831000  1.0 -0.5236402371
