# DDEC6 charges by PACMAN v1.1 (https://github.com/mtap-research/PACMAN-charge/)
data_KAYKAZ_ASR_pacman
_symmetry_space_group_name_H-M   'P 1'
_cell_length_a   10.98300000
_cell_length_b   11.01400000
_cell_length_c   20.55000000
_cell_angle_alpha   88.39000000
_cell_angle_beta   101.55000000
_cell_angle_gamma   104.29000000
_symmetry_Int_Tables_number   1
_chemical_formula_structural   Zn2H24C41S2N2(O4F3)2
_chemical_formula_sum   'Zn4 H48 C82 S4 N4 O16 F12'
_cell_volume   2359.57549251
_cell_formula_units_Z   2
loop_
 _symmetry_equiv_pos_site_id
 _symmetry_equiv_pos_as_xyz
  1  'x, y, z'
loop_
 _atom_site_type_symbol
 _atom_site_label
 _atom_site_symmetry_multiplicity
 _atom_site_fract_x
 _atom_site_fract_y
 _atom_site_fract_z
 _atom_site_occupancy
 _atom_site_charge
Zn  Zn1  1  0.67374000  0.34612000  0.77599000  1.0 0.8667197237
Zn  Zn2  1  0.72725000  0.34921000  0.92717000  1.0 0.8581823716
Zn  Zn3  1  0.32626000  0.65388000  0.22401000  1.0 0.8667197237
Zn  Zn4  1  0.27275000  0.65079000  0.07283000  1.0 0.8581823716
H  H1  1  0.76590000  0.75410000  0.94530000  1.0 0.1111761322
H  H2  1  0.27970000  0.34300000  0.75960000  1.0 0.1111761322
H  H3  1  0.34200000  0.35900000  0.96200000  1.0 0.120206773
H  H4  1  0.61500000  0.93730000  0.74690000  1.0 0.120206773
H  H5  1  0.64110000  0.73130000  0.74420000  1.0 0.120206773
H  H6  1  0.76020000  0.96480000  0.94600000  1.0 0.1304656376
H  H7  1  0.13070000  0.36620000  0.95550000  1.0 0.120206773
H  H8  1  0.28060000  0.13480000  0.61850000  1.0 0.1409020748
H  H9  1  0.06510000  0.35600000  0.75380000  1.0 0.120206773
H  H10  1  0.61870000  0.48810000  0.64390000  1.0 0.1111761322
H  H11  1  0.46350000  0.14940000  0.70150000  1.0 0.120206773
H  H12  1  0.44120000  0.47400000  0.55310000  1.0 0.1304656376
H  H13  1  0.59850000  0.32280000  0.04740000  1.0 0.1304656376
H  H14  1  0.07700000  0.22950000  0.58080000  1.0 0.1516301343
H  H15  1  0.68560000  0.23900000  0.26680000  1.0 0.1409020748
H  H16  1  0.07530000  0.49270000  0.37850000  1.0 0.1409020748
H  H17  1  0.95060000  0.45730000  0.41100000  1.0 0.1409020748
H  H18  1  0.08970000  0.50450000  0.45720000  1.0 0.1409020748
H  H19  1  0.01080000  0.31950000  0.15120000  1.0 0.1409020748
H  H20  1  0.95000000  0.06130000  0.32100000  1.0 0.1409020748
H  H21  1  0.08720000  0.10620000  0.36920000  1.0 0.1409020748
H  H22  1  0.96060000  0.06350000  0.39980000  1.0 0.1304656376
H  H23  1  0.96060000  0.34940000  0.03850000  1.0 0.120206773
H  H24  1  0.63710000  0.29120000  0.15720000  1.0 0.1409020748
H  H25  1  0.23410000  0.24590000  0.05470000  1.0 0.1111761322
H  H26  1  0.72030000  0.65700000  0.24040000  1.0 0.1111761322
H  H27  1  0.65800000  0.64100000  0.03800000  1.0 0.120206773
H  H28  1  0.38500000  0.06270000  0.25310000  1.0 0.120206773
H  H29  1  0.35890000  0.26870000  0.25580000  1.0 0.120206773
H  H30  1  0.23980000  0.03520000  0.05400000  1.0 0.1304656376
H  H31  1  0.86930000  0.63380000  0.04450000  1.0 0.120206773
H  H32  1  0.71940000  0.86520000  0.38150000  1.0 0.1409020748
H  H33  1  0.93490000  0.64400000  0.24620000  1.0 0.120206773
H  H34  1  0.38130000  0.51190000  0.35610000  1.0 0.1111761322
H  H35  1  0.53650000  0.85060000  0.29850000  1.0 0.120206773
H  H36  1  0.55880000  0.52600000  0.44690000  1.0 0.1304656376
H  H37  1  0.40150000  0.67720000  0.95260000  1.0 0.1304656376
H  H38  1  0.92300000  0.77050000  0.41920000  1.0 0.1516301343
H  H39  1  0.31440000  0.76100000  0.73320000  1.0 0.1409020748
H  H40  1  0.92470000  0.50730000  0.62150000  1.0 0.1409020748
H  H41  1  0.04940000  0.54270000  0.58900000  1.0 0.1409020748
H  H42  1  0.91030000  0.49550000  0.54280000  1.0 0.1409020748
H  H43  1  0.98920000  0.68050000  0.84880000  1.0 0.1409020748
H  H44  1  0.05000000  0.93870000  0.67900000  1.0 0.1409020748
H  H45  1  0.91280000  0.89380000  0.63080000  1.0 0.1409020748
H  H46  1  0.03940000  0.93650000  0.60020000  1.0 0.1304656376
H  H47  1  0.03940000  0.65060000  0.96150000  1.0 0.120206773
H  H48  1  0.36290000  0.70880000  0.84280000  1.0 0.1409020748
C  C1  1  0.73840000  0.79120000  0.90450000  1.0 -0.0994946202
C  C2  1  0.68960000  0.97130000  0.84830000  1.0 -0.0098187886
C  C3  1  0.24940000  0.34690000  0.79950000  1.0 -0.1107949928
C  C4  1  0.28650000  0.35570000  0.91980000  1.0 -0.1107949928
C  C5  1  0.46670000  0.33560000  0.86520000  1.0 0.6004101048
C  C6  1  0.07580000  0.36520000  0.85280000  1.0 -0.0189416399
C  C7  1  0.33190000  0.34360000  0.86110000  1.0 -0.0320388814
C  C8  1  0.64940000  0.90050000  0.78640000  1.0 -0.1235544169
C  C9  1  0.66150000  0.77640000  0.78520000  1.0 -0.0994946202
C  C10  1  0.73330000  0.91750000  0.90550000  1.0 -0.1107949928
C  C11  1  0.67800000  0.10810000  0.84630000  1.0 0.6004101048
C  C12  1  0.16140000  0.36280000  0.91570000  1.0 -0.1107949928
C  C13  1  0.71640000  0.58700000  0.84470000  1.0 0.5814913819
C  C14  1  0.70490000  0.71740000  0.84610000  1.0 -0.0544598373
C  C15  1  0.93550000  0.36870000  0.85140000  1.0 0.5874488363
C  C16  1  0.34930000  0.20780000  0.62220000  1.0 -0.1893332926
C  C17  1  0.12010000  0.35620000  0.79580000  1.0 -0.1107949928
C  C18  1  0.55110000  0.41400000  0.63800000  1.0 0.120206773
C  C19  1  0.34030000  0.30190000  0.57940000  1.0 0.120206773
C  C20  1  0.45920000  0.21700000  0.67210000  1.0 0.083258451
C  C21  1  0.00200000  0.26270000  0.48280000  1.0 0.0591300251
C  C22  1  0.44280000  0.40840000  0.58400000  1.0 -0.2055077394
C  C23  1  0.85700000  0.22200000  0.47230000  1.0 -0.0906788995
C  C24  1  0.68300000  0.32160000  0.06930000  1.0 0.0543612847
C  C25  1  0.83330000  0.24000000  0.35120000  1.0 0.073796914
C  C26  1  0.85690000  0.28300000  0.24170000  1.0 0.029979256
C  C27  1  0.09570000  0.25730000  0.53890000  1.0 -0.1817639312
C  C28  1  0.20980000  0.29390000  0.52810000  1.0 0.0226604213
C  C29  1  0.64700000  0.20000000  0.48860000  1.0 0.2469420442
C  C30  1  0.77560000  0.25230000  0.28190000  1.0 -0.1893332926
C  C31  1  0.77700000  0.18030000  0.52230000  1.0 0.3315286944
C  C32  1  0.05340000  0.31520000  0.42430000  1.0 0.0980455736
C  C33  1  0.98210000  0.24330000  0.35980000  1.0 0.1111761322
C  C34  1  0.04110000  0.45590000  0.41710000  1.0 -0.4751786282
C  C35  1  0.92560000  0.32150000  0.13100000  1.0 -0.1817639312
C  C36  1  0.83370000  0.30830000  0.16960000  1.0 0.1304656376
C  C37  1  0.99630000  0.10580000  0.36270000  1.0 -0.4573572269
C  C38  1  0.78650000  0.21830000  0.40770000  1.0 -0.1107949928
C  C39  1  0.65000000  0.19630000  0.41340000  1.0 0.353788496
C  C40  1  0.89440000  0.33760000  0.06330000  1.0 0.1304656376
C  C41  1  0.70560000  0.30520000  0.13390000  1.0 -0.1620412236
C  C42  1  0.26160000  0.20880000  0.09550000  1.0 -0.0994946202
C  C43  1  0.31040000  0.02870000  0.15170000  1.0 -0.0098187886
C  C44  1  0.75060000  0.65310000  0.20050000  1.0 -0.1107949928
C  C45  1  0.71350000  0.64430000  0.08020000  1.0 -0.1107949928
C  C46  1  0.53330000  0.66440000  0.13480000  1.0 0.6004101048
C  C47  1  0.92420000  0.63480000  0.14720000  1.0 -0.0189416399
C  C48  1  0.66810000  0.65640000  0.13890000  1.0 -0.0320388814
C  C49  1  0.35060000  0.09950000  0.21360000  1.0 -0.1235544169
C  C50  1  0.33850000  0.22360000  0.21480000  1.0 -0.0994946202
C  C51  1  0.26670000  0.08250000  0.09450000  1.0 -0.1107949928
C  C52  1  0.32200000  0.89190000  0.15370000  1.0 0.6004101048
C  C53  1  0.83860000  0.63720000  0.08430000  1.0 -0.1107949928
C  C54  1  0.28360000  0.41300000  0.15530000  1.0 0.5814913819
C  C55  1  0.29510000  0.28260000  0.15390000  1.0 -0.0544598373
C  C56  1  0.06450000  0.63130000  0.14860000  1.0 0.5874488363
C  C57  1  0.65070000  0.79220000  0.37780000  1.0 -0.1893332926
C  C58  1  0.87990000  0.64380000  0.20420000  1.0 -0.1107949928
C  C59  1  0.44890000  0.58600000  0.36200000  1.0 0.120206773
C  C60  1  0.65970000  0.69810000  0.42060000  1.0 0.120206773
C  C61  1  0.54080000  0.78300000  0.32790000  1.0 0.083258451
C  C62  1  0.99800000  0.73730000  0.51720000  1.0 0.0591300251
C  C63  1  0.55720000  0.59160000  0.41600000  1.0 -0.2055077394
C  C64  1  0.14300000  0.77800000  0.52770000  1.0 -0.0906788995
C  C65  1  0.31700000  0.67840000  0.93070000  1.0 0.0543612847
C  C66  1  0.16670000  0.76000000  0.64880000  1.0 0.073796914
C  C67  1  0.14310000  0.71700000  0.75830000  1.0 0.029979256
C  C68  1  0.90430000  0.74270000  0.46110000  1.0 -0.1817639312
C  C69  1  0.79020000  0.70610000  0.47190000  1.0 0.0226604213
C  C70  1  0.35300000  0.80000000  0.51140000  1.0 0.2469420442
C  C71  1  0.22440000  0.74770000  0.71810000  1.0 -0.1893332926
C  C72  1  0.22300000  0.81970000  0.47770000  1.0 0.3315286944
C  C73  1  0.94660000  0.68480000  0.57570000  1.0 0.0980455736
C  C74  1  0.01790000  0.75670000  0.64020000  1.0 0.1111761322
C  C75  1  0.95890000  0.54410000  0.58290000  1.0 -0.4751786282
C  C76  1  0.07440000  0.67850000  0.86900000  1.0 -0.1817639312
C  C77  1  0.16630000  0.69170000  0.83040000  1.0 0.1304656376
C  C78  1  0.00370000  0.89420000  0.63730000  1.0 -0.4573572269
C  C79  1  0.21350000  0.78170000  0.59230000  1.0 -0.1107949928
C  C80  1  0.35000000  0.80370000  0.58660000  1.0 0.353788496
C  C81  1  0.10560000  0.66240000  0.93670000  1.0 0.1304656376
C  C82  1  0.29440000  0.69480000  0.86610000  1.0 -0.1620412236
S  S1  1  0.22840000  0.32140000  0.44390000  1.0 -0.0006937809
S  S2  1  0.02710000  0.30810000  0.28180000  1.0 0.0108508207
S  S3  1  0.77160000  0.67860000  0.55610000  1.0 -0.0006937809
S  S4  1  0.97290000  0.69190000  0.71820000  1.0 0.0108508207
N  N1  1  0.56130000  0.32140000  0.67970000  1.0 -0.2200345238
N  N2  1  0.77880000  0.33740000  0.03160000  1.0 -0.2200345238
N  N3  1  0.43870000  0.67860000  0.32030000  1.0 -0.2200345238
N  N4  1  0.22120000  0.66260000  0.96840000  1.0 -0.2200345238
O  O1  1  0.53660000  0.33410000  0.92380000  1.0 -0.5590130752
O  O2  1  0.86720000  0.36780000  0.79410000  1.0 -0.5416125646
O  O3  1  0.69520000  0.16020000  0.90430000  1.0 -0.5590130752
O  O4  1  0.50730000  0.33080000  0.81090000  1.0 -0.579943656
O  O5  1  0.90540000  0.37080000  0.90880000  1.0 -0.579943656
O  O6  1  0.73840000  0.53580000  0.90020000  1.0 -0.5590130752
O  O7  1  0.66000000  0.16000000  0.78990000  1.0 -0.5590130752
O  O8  1  0.69560000  0.53480000  0.78580000  1.0 -0.574109613
O  O9  1  0.46340000  0.66590000  0.07620000  1.0 -0.5590130752
O  O10  1  0.13280000  0.63220000  0.20590000  1.0 -0.5416125646
O  O11  1  0.30480000  0.83980000  0.09570000  1.0 -0.5590130752
O  O12  1  0.49270000  0.66920000  0.18910000  1.0 -0.579943656
O  O13  1  0.09460000  0.62920000  0.09120000  1.0 -0.579943656
O  O14  1  0.26160000  0.46420000  0.09980000  1.0 -0.5590130752
O  O15  1  0.34000000  0.84000000  0.21010000  1.0 -0.5590130752
O  O16  1  0.30440000  0.46520000  0.21420000  1.0 -0.574109613
F  F1  1  0.57940000  0.27730000  0.37840000  1.0 -0.1817639312
F  F2  1  0.75140000  0.04460000  0.52950000  1.0 -0.2015280416
F  F3  1  0.57250000  0.08100000  0.38890000  1.0 -0.1620412236
F  F4  1  0.82670000  0.22570000  0.58430000  1.0 -0.1495055323
F  F5  1  0.54240000  0.13530000  0.50910000  1.0 -0.1235544169
F  F6  1  0.66350000  0.32960000  0.50390000  1.0 -0.1817639312
F  F7  1  0.42060000  0.72270000  0.62160000  1.0 -0.1817639312
F  F8  1  0.24860000  0.95540000  0.47050000  1.0 -0.2015280416
F  F9  1  0.42750000  0.91900000  0.61110000  1.0 -0.1620412236
F  F10  1  0.17330000  0.77430000  0.41570000  1.0 -0.1495055323
F  F11  1  0.45760000  0.86470000  0.49090000  1.0 -0.1235544169
F  F12  1  0.33650000  0.67040000  0.49610000  1.0 -0.1817639312
