# DDEC6 charges by PACMAN v1.1 (https://github.com/mtap-research/PACMAN-charge/)
data_KEBFAA_ion_pacman
_symmetry_space_group_name_H-M   'P 1'
_cell_length_a   7.81020000
_cell_length_b   19.40480000
_cell_length_c   17.91570000
_cell_angle_alpha   90.00000000
_cell_angle_beta   100.22500000
_cell_angle_gamma   90.00000000
_symmetry_Int_Tables_number   1
_chemical_formula_structural   EuAgH22C16N4O13
_chemical_formula_sum   'Eu4 Ag4 H88 C64 N16 O52'
_cell_volume   2672.09806059
_cell_formula_units_Z   4
loop_
 _symmetry_equiv_pos_site_id
 _symmetry_equiv_pos_as_xyz
  1  'x, y, z'
loop_
 _atom_site_type_symbol
 _atom_site_label
 _atom_site_symmetry_multiplicity
 _atom_site_fract_x
 _atom_site_fract_y
 _atom_site_fract_z
 _atom_site_occupancy
 _atom_site_charge
Eu  Eu1  1  0.75474000  0.46911000  0.51476000  1.0 2.0353309817
Eu  Eu2  1  0.24526000  0.96911000  0.98524000  1.0 2.0353309817
Eu  Eu3  1  0.24526000  0.53089000  0.48524000  1.0 2.0353309817
Eu  Eu4  1  0.75474000  0.03089000  0.01476000  1.0 2.0341736979
Ag  Ag1  1  0.80153000  0.00587000  0.52408000  1.0 0.2448611564
Ag  Ag2  1  0.19847000  0.50587000  0.97592000  1.0 0.2448611564
Ag  Ag3  1  0.19847000  0.99413000  0.47592000  1.0 0.2448611564
Ag  Ag4  1  0.80153000  0.49413000  0.02408000  1.0 0.2448611564
H  H1  1  0.03640000  0.97010000  0.67710000  1.0 0.1028248115
H  H2  1  0.96360000  0.47010000  0.82290000  1.0 0.1028248115
H  H3  1  0.96360000  0.02990000  0.32290000  1.0 0.1028248115
H  H4  1  0.03640000  0.52990000  0.17710000  1.0 0.1028248115
H  H5  1  0.11320000  0.87800000  0.75520000  1.0 0.1221972251
H  H6  1  0.88680000  0.37800000  0.74480000  1.0 0.1221972251
H  H7  1  0.88680000  0.12200000  0.24480000  1.0 0.1221972251
H  H8  1  0.11320000  0.62200000  0.25520000  1.0 0.1221972251
H  H9  1  0.01680000  0.76870000  0.71630000  1.0 0.1221972251
H  H10  1  0.98320000  0.26870000  0.78370000  1.0 0.1221972251
H  H11  1  0.98320000  0.23130000  0.28370000  1.0 0.1221972251
H  H12  1  0.01680000  0.73130000  0.21630000  1.0 0.1221972251
H  H13  1  0.76690000  0.85030000  0.52390000  1.0 0.1094547368
H  H14  1  0.23310000  0.35030000  0.97610000  1.0 0.1094547368
H  H15  1  0.23310000  0.14970000  0.47610000  1.0 0.1094547368
H  H16  1  0.76690000  0.64970000  0.02390000  1.0 0.1094547368
H  H17  1  0.75720000  0.70650000  0.62740000  1.0 0.1221972251
H  H18  1  0.24280000  0.20650000  0.87260000  1.0 0.1221972251
H  H19  1  0.24280000  0.29350000  0.37260000  1.0 0.1221972251
H  H20  1  0.75720000  0.79350000  0.12740000  1.0 0.1221972251
H  H21  1  0.71670000  0.73460000  0.54400000  1.0 0.1094547368
H  H22  1  0.28330000  0.23460000  0.95600000  1.0 0.1094547368
H  H23  1  0.28330000  0.26540000  0.45600000  1.0 0.1094547368
H  H24  1  0.71670000  0.76540000  0.04400000  1.0 0.1094547368
H  H25  1  0.04180000  0.67790000  0.60990000  1.0 0.1479474462
H  H26  1  0.95820000  0.17790000  0.89010000  1.0 0.1479474462
H  H27  1  0.95820000  0.32210000  0.39010000  1.0 0.1479474462
H  H28  1  0.04180000  0.82210000  0.10990000  1.0 0.1479474462
H  H29  1  0.99540000  0.70340000  0.52570000  1.0 0.1294056631
H  H30  1  0.00460000  0.20340000  0.97430000  1.0 0.1294056631
H  H31  1  0.00460000  0.29660000  0.47430000  1.0 0.1294056631
H  H32  1  0.99540000  0.79660000  0.02570000  1.0 0.1294056631
H  H33  1  0.22950000  0.66500000  0.99490000  1.0 0.1094547368
H  H34  1  0.77050000  0.16500000  0.50510000  1.0 0.1094547368
H  H35  1  0.77050000  0.33500000  0.00510000  1.0 0.1094547368
H  H36  1  0.22950000  0.83500000  0.49490000  1.0 0.1094547368
H  H37  1  0.34990000  0.74550000  0.08140000  1.0 0.1294056631
H  H38  1  0.65010000  0.24550000  0.41860000  1.0 0.1294056631
H  H39  1  0.65010000  0.25450000  0.91860000  1.0 0.1294056631
H  H40  1  0.34990000  0.75450000  0.58140000  1.0 0.1294056631
H  H41  1  0.51780000  0.71000000  0.19500000  1.0 0.1294056631
H  H42  1  0.48220000  0.21000000  0.30500000  1.0 0.1294056631
H  H43  1  0.48220000  0.29000000  0.80500000  1.0 0.1294056631
H  H44  1  0.51780000  0.79000000  0.69500000  1.0 0.1294056631
H  H45  1  0.44770000  0.51620000  0.12370000  1.0 0.1094547368
H  H46  1  0.55230000  0.01620000  0.37630000  1.0 0.1094547368
H  H47  1  0.55230000  0.48380000  0.87630000  1.0 0.1094547368
H  H48  1  0.44770000  0.98380000  0.62370000  1.0 0.1094547368
H  H49  1  0.66000000  0.53700000  0.23440000  1.0 0.1028248115
H  H50  1  0.34000000  0.03700000  0.26560000  1.0 0.1028248115
H  H51  1  0.34000000  0.46300000  0.76560000  1.0 0.1028248115
H  H52  1  0.66000000  0.96300000  0.73440000  1.0 0.1028248115
H  H53  1  0.70020000  0.61260000  0.26340000  1.0 0.1094547368
H  H54  1  0.29980000  0.11260000  0.23660000  1.0 0.1094547368
H  H55  1  0.29980000  0.38740000  0.73660000  1.0 0.1094547368
H  H56  1  0.70020000  0.88740000  0.76340000  1.0 0.1094547368
H  H57  1  0.39460000  0.54170000  0.28190000  1.0 0.1400021135
H  H58  1  0.60540000  0.04170000  0.21810000  1.0 0.1400021135
H  H59  1  0.60540000  0.45830000  0.71810000  1.0 0.1400021135
H  H60  1  0.39460000  0.95830000  0.78190000  1.0 0.1400021135
H  H61  1  0.44750000  0.61470000  0.31530000  1.0 0.1400021135
H  H62  1  0.55250000  0.11470000  0.18470000  1.0 0.1400021135
H  H63  1  0.55250000  0.38530000  0.68470000  1.0 0.1400021135
H  H64  1  0.44750000  0.88530000  0.81530000  1.0 0.1400021135
H  H65  1  0.90200000  0.50800000  0.66000000  1.0 0.2656279511
H  H66  1  0.09800000  0.00800000  0.84000000  1.0 0.2656279511
H  H67  1  0.09800000  0.49200000  0.34000000  1.0 0.2656279511
H  H68  1  0.90200000  0.99200000  0.16000000  1.0 0.2656279511
H  H69  1  0.02200000  0.47400000  0.64000000  1.0 0.302228809
H  H70  1  0.97800000  0.97400000  0.86000000  1.0 0.302228809
H  H71  1  0.97800000  0.52600000  0.36000000  1.0 0.302228809
H  H72  1  0.02200000  0.02600000  0.14000000  1.0 0.302228809
H  H73  1  0.88200000  0.33000000  0.58800000  1.0 0.2790172703
H  H74  1  0.11800000  0.83000000  0.91200000  1.0 0.2790172703
H  H75  1  0.11800000  0.67000000  0.41200000  1.0 0.2790172703
H  H76  1  0.88200000  0.17000000  0.08800000  1.0 0.2790172703
H  H77  1  0.73900000  0.33500000  0.58100000  1.0 0.2514024085
H  H78  1  0.26100000  0.83500000  0.91900000  1.0 0.2514024085
H  H79  1  0.26100000  0.66500000  0.41900000  1.0 0.2514024085
H  H80  1  0.73900000  0.16500000  0.08100000  1.0 0.2514024085
H  H81  1  0.60100000  0.38500000  0.39100000  1.0 0.2583776197
H  H82  1  0.39900000  0.88500000  0.10900000  1.0 0.2583776197
H  H83  1  0.39900000  0.61500000  0.60900000  1.0 0.2583776197
H  H84  1  0.60100000  0.11500000  0.89100000  1.0 0.2583776197
H  H85  1  0.48900000  0.38240000  0.43200000  1.0 0.2931468344
H  H86  1  0.51100000  0.88240000  0.06800000  1.0 0.2931468344
H  H87  1  0.51100000  0.61760000  0.56800000  1.0 0.2931468344
H  H88  1  0.48900000  0.11760000  0.93200000  1.0 0.2931468344
C  C1  1  0.99590000  0.92648000  0.66127000  1.0 0.037059243
C  C2  1  0.00410000  0.42648000  0.83873000  1.0 0.037059243
C  C3  1  0.00410000  0.07352000  0.33873000  1.0 0.037059243
C  C4  1  0.99590000  0.57352000  0.16127000  1.0 0.037059243
C  C5  1  0.04280000  0.87159000  0.70811000  1.0 -0.1266068238
C  C6  1  0.95720000  0.37159000  0.79189000  1.0 -0.1266068238
C  C7  1  0.95720000  0.12841000  0.29189000  1.0 -0.1266068238
C  C8  1  0.04280000  0.62841000  0.20811000  1.0 -0.1266068238
C  C9  1  0.98480000  0.80650000  0.68509000  1.0 -0.0932412365
C  C10  1  0.01520000  0.30650000  0.81491000  1.0 -0.0932412365
C  C11  1  0.01520000  0.19350000  0.31491000  1.0 -0.0932412365
C  C12  1  0.98480000  0.69350000  0.18509000  1.0 -0.0932412365
C  C13  1  0.87870000  0.79797000  0.61523000  1.0 0.0885698224
C  C14  1  0.12130000  0.29797000  0.88477000  1.0 0.0885698224
C  C15  1  0.12130000  0.20203000  0.38477000  1.0 0.0885698224
C  C16  1  0.87870000  0.70203000  0.11523000  1.0 0.0885698224
C  C17  1  0.83720000  0.85562000  0.57123000  1.0 -0.0198805739
C  C18  1  0.16280000  0.35562000  0.92877000  1.0 -0.0198805739
C  C19  1  0.16280000  0.14438000  0.42877000  1.0 -0.0198805739
C  C20  1  0.83720000  0.64438000  0.07123000  1.0 -0.0198805739
C  C21  1  0.80810000  0.72847000  0.58780000  1.0 -0.1917979115
C  C22  1  0.19190000  0.22847000  0.91220000  1.0 -0.1917979115
C  C23  1  0.19190000  0.27153000  0.41220000  1.0 -0.1917979115
C  C24  1  0.80810000  0.77153000  0.08780000  1.0 -0.1917979115
C  C25  1  0.94810000  0.68200000  0.56661000  1.0 -0.340754337
C  C26  1  0.05190000  0.18200000  0.93339000  1.0 -0.340754337
C  C27  1  0.05190000  0.31800000  0.43339000  1.0 -0.340754337
C  C28  1  0.94810000  0.81800000  0.06661000  1.0 -0.340754337
C  C29  1  0.88450000  0.61147000  0.54227000  1.0 0.681291104
C  C30  1  0.11550000  0.11147000  0.95773000  1.0 0.681291104
C  C31  1  0.11550000  0.38853000  0.45773000  1.0 0.681291104
C  C32  1  0.88450000  0.88853000  0.04227000  1.0 0.681291104
C  C33  1  0.29960000  0.65047000  0.03960000  1.0 0.037059243
C  C34  1  0.70040000  0.15047000  0.46040000  1.0 0.037059243
C  C35  1  0.70040000  0.34953000  0.96040000  1.0 0.037059243
C  C36  1  0.29960000  0.84953000  0.53960000  1.0 0.037059243
C  C37  1  0.36990000  0.69885000  0.09130000  1.0 -0.1266068238
C  C38  1  0.63010000  0.19885000  0.40870000  1.0 -0.1245779687
C  C39  1  0.63010000  0.30115000  0.90870000  1.0 -0.1245779687
C  C40  1  0.36990000  0.80115000  0.59130000  1.0 -0.1266068238
C  C41  1  0.47110000  0.67770000  0.15862000  1.0 -0.1002150544
C  C42  1  0.52890000  0.17770000  0.34138000  1.0 -0.1002150544
C  C43  1  0.52890000  0.32230000  0.84138000  1.0 -0.1002150544
C  C44  1  0.47110000  0.82230000  0.65862000  1.0 -0.1002150544
C  C45  1  0.50280000  0.60811000  0.17165000  1.0 0.0885698224
C  C46  1  0.49720000  0.10811000  0.32835000  1.0 0.0885698224
C  C47  1  0.49720000  0.39189000  0.82835000  1.0 0.0885698224
C  C48  1  0.50280000  0.89189000  0.67165000  1.0 0.0885698224
C  C49  1  0.42770000  0.56311000  0.11574000  1.0 -0.0198805739
C  C50  1  0.57230000  0.06311000  0.38426000  1.0 -0.0198805739
C  C51  1  0.57230000  0.43689000  0.88426000  1.0 -0.0198805739
C  C52  1  0.42770000  0.93689000  0.61574000  1.0 -0.0198805739
C  C53  1  0.60740000  0.58057000  0.24432000  1.0 -0.1917979115
C  C54  1  0.39260000  0.08057000  0.25568000  1.0 -0.1917979115
C  C55  1  0.39260000  0.41943000  0.75568000  1.0 -0.1917979115
C  C56  1  0.60740000  0.91943000  0.74432000  1.0 -0.1917979115
C  C57  1  0.49290000  0.57024000  0.30363000  1.0 -0.340754337
C  C58  1  0.50710000  0.07024000  0.19637000  1.0 -0.340754337
C  C59  1  0.50710000  0.42976000  0.69637000  1.0 -0.340754337
C  C60  1  0.49290000  0.92976000  0.80363000  1.0 -0.340754337
C  C61  1  0.58090000  0.53784000  0.37585000  1.0 0.681291104
C  C62  1  0.41910000  0.03784000  0.12415000  1.0 0.681291104
C  C63  1  0.41910000  0.46216000  0.62415000  1.0 0.681291104
C  C64  1  0.58090000  0.96216000  0.87585000  1.0 0.681291104
N  N1  1  0.89310000  0.91952000  0.59301000  1.0 -0.1780692109
N  N2  1  0.10690000  0.41952000  0.90699000  1.0 -0.1780692109
N  N3  1  0.10690000  0.08048000  0.40699000  1.0 -0.1780692109
N  N4  1  0.89310000  0.58048000  0.09301000  1.0 -0.1780692109
N  N5  1  0.32760000  0.58289000  0.05061000  1.0 -0.1780692109
N  N6  1  0.67240000  0.08289000  0.44939000  1.0 -0.1780692109
N  N7  1  0.67240000  0.41711000  0.94939000  1.0 -0.1780692109
N  N8  1  0.32760000  0.91711000  0.55061000  1.0 -0.1780692109
N  N9  1  0.59540000  0.12080000  0.73640000  1.0 0.640212842
N  N10  1  0.40460000  0.62080000  0.76360000  1.0 0.640212842
N  N11  1  0.40460000  0.87920000  0.26360000  1.0 0.640212842
N  N12  1  0.59540000  0.37920000  0.23640000  1.0 0.640212842
N  N13  1  0.13720000  0.24490000  0.13550000  1.0 0.640212842
N  N14  1  0.86280000  0.74490000  0.36450000  1.0 0.640212842
N  N15  1  0.86280000  0.75510000  0.86450000  1.0 0.640212842
N  N16  1  0.13720000  0.25510000  0.63550000  1.0 0.640212842
O  O1  1  0.98670000  0.56943000  0.51793000  1.0 -0.7808539712
O  O2  1  0.01330000  0.06943000  0.98207000  1.0 -0.7808539712
O  O3  1  0.01330000  0.43057000  0.48207000  1.0 -0.7808539712
O  O4  1  0.98670000  0.93057000  0.01793000  1.0 -0.7808539712
O  O5  1  0.73420000  0.59214000  0.54698000  1.0 -0.6037917429
O  O6  1  0.26580000  0.09214000  0.95302000  1.0 -0.6037917429
O  O7  1  0.26580000  0.40786000  0.45302000  1.0 -0.6037917429
O  O8  1  0.73420000  0.90786000  0.04698000  1.0 -0.6037917429
O  O9  1  0.73580000  0.51851000  0.38587000  1.0 -0.6088618481
O  O10  1  0.26420000  0.01851000  0.11413000  1.0 -0.6088618481
O  O11  1  0.26420000  0.48149000  0.61413000  1.0 -0.6088618481
O  O12  1  0.73580000  0.98149000  0.88587000  1.0 -0.6088618481
O  O13  1  0.49280000  0.52846000  0.42848000  1.0 -0.7808539712
O  O14  1  0.50720000  0.02846000  0.07152000  1.0 -0.7808539712
O  O15  1  0.50720000  0.47154000  0.57152000  1.0 -0.7808539712
O  O16  1  0.49280000  0.97154000  0.92848000  1.0 -0.7808539712
O  O17  1  0.92530000  0.48183000  0.64230000  1.0 -0.6037917429
O  O18  1  0.07470000  0.98183000  0.85770000  1.0 -0.6037917429
O  O19  1  0.07470000  0.51817000  0.35770000  1.0 -0.6037917429
O  O20  1  0.92530000  0.01817000  0.14230000  1.0 -0.6037917429
O  O21  1  0.78540000  0.35811000  0.57650000  1.0 -0.6580852934
O  O22  1  0.21460000  0.85811000  0.92350000  1.0 -0.6580852934
O  O23  1  0.21460000  0.64189000  0.42350000  1.0 -0.6580852934
O  O24  1  0.78540000  0.14189000  0.07650000  1.0 -0.6580852934
O  O25  1  0.59730000  0.38311000  0.42877000  1.0 -0.6580852934
O  O26  1  0.40270000  0.88311000  0.07123000  1.0 -0.6580852934
O  O27  1  0.40270000  0.61689000  0.57123000  1.0 -0.6580852934
O  O28  1  0.59730000  0.11689000  0.92877000  1.0 -0.6580852934
O  O29  1  0.47990000  0.09520000  0.76040000  1.0 -0.3278227219
O  O30  1  0.59500000  0.11140000  0.66750000  1.0 -0.400414496
O  O31  1  0.70220000  0.15020000  0.77590000  1.0 -0.3278227219
O  O32  1  0.52010000  0.59520000  0.73960000  1.0 -0.3278227219
O  O33  1  0.40500000  0.61140000  0.83250000  1.0 -0.400414496
O  O34  1  0.29780000  0.65020000  0.72410000  1.0 -0.3278227219
O  O35  1  0.52010000  0.90480000  0.23960000  1.0 -0.3278227219
O  O36  1  0.40500000  0.88860000  0.33250000  1.0 -0.400414496
O  O37  1  0.29780000  0.84980000  0.22410000  1.0 -0.3278227219
O  O38  1  0.47990000  0.40480000  0.26040000  1.0 -0.3278227219
O  O39  1  0.59500000  0.38860000  0.16750000  1.0 -0.400414496
O  O40  1  0.70220000  0.34980000  0.27590000  1.0 -0.3278227219
O  O41  1  0.25380000  0.27750000  0.17520000  1.0 -0.3809278303
O  O42  1  0.99440000  0.26960000  0.11880000  1.0 -0.3809278303
O  O43  1  0.15690000  0.18600000  0.12300000  1.0 -0.340754337
O  O44  1  0.74620000  0.77750000  0.32480000  1.0 -0.3809278303
O  O45  1  0.00560000  0.76960000  0.38120000  1.0 -0.3809278303
O  O46  1  0.84310000  0.68600000  0.37700000  1.0 -0.340754337
O  O47  1  0.74620000  0.72250000  0.82480000  1.0 -0.3809278303
O  O48  1  0.00560000  0.73040000  0.88120000  1.0 -0.3809278303
O  O49  1  0.84310000  0.81400000  0.87700000  1.0 -0.340754337
O  O50  1  0.25380000  0.22250000  0.67520000  1.0 -0.3809278303
O  O51  1  0.99440000  0.23040000  0.61880000  1.0 -0.3809278303
O  O52  1  0.15690000  0.31400000  0.62300000  1.0 -0.340754337
