# DDEC6 charges by PACMAN v1.1 (https://github.com/mtap-research/PACMAN-charge/)
data_KECKUC_ASR_pacman
_symmetry_space_group_name_H-M   'P 1'
_cell_length_a   34.81790000
_cell_length_b   34.81790000
_cell_length_c   34.81790000
_cell_angle_alpha   60.00000000
_cell_angle_beta   60.00000000
_cell_angle_gamma   60.00000000
_symmetry_Int_Tables_number   1
_chemical_formula_structural   CuH14C24N5O4
_chemical_formula_sum   'Cu12 H168 C288 N60 O48'
_cell_volume   29846.45277599
_cell_formula_units_Z   12
loop_
 _symmetry_equiv_pos_site_id
 _symmetry_equiv_pos_as_xyz
  1  'x, y, z'
loop_
 _atom_site_type_symbol
 _atom_site_label
 _atom_site_symmetry_multiplicity
 _atom_site_fract_x
 _atom_site_fract_y
 _atom_site_fract_z
 _atom_site_occupancy
 _atom_site_charge
Cu  Cu1  1  0.64119000  0.35881000  0.35881000  1.0 0.8715114734
Cu  Cu2  1  0.69457000  0.30543000  0.30543000  1.0 0.8860950789
Cu  Cu3  1  0.35881000  0.64119000  0.64119000  1.0 0.8715114734
Cu  Cu4  1  0.30543000  0.69457000  0.69457000  1.0 0.8848734936
Cu  Cu5  1  0.35881000  0.35881000  0.64119000  1.0 0.8715114734
Cu  Cu6  1  0.30543000  0.30543000  0.69457000  1.0 0.8860950789
Cu  Cu7  1  0.64119000  0.64119000  0.35881000  1.0 0.8715114734
Cu  Cu8  1  0.69457000  0.69457000  0.30543000  1.0 0.8860950789
Cu  Cu9  1  0.35881000  0.64119000  0.35881000  1.0 0.8715114734
Cu  Cu10  1  0.30543000  0.69457000  0.30543000  1.0 0.8860950789
Cu  Cu11  1  0.64119000  0.35881000  0.64119000  1.0 0.8715114734
Cu  Cu12  1  0.69457000  0.30543000  0.69457000  1.0 0.8860950789
H  H1  1  0.56500000  0.08900000  0.50380000  1.0 0.092384358
H  H2  1  0.56600000  0.02320000  0.49940000  1.0 0.0431417116
H  H3  1  0.50380000  0.84220000  0.56500000  1.0 0.092384358
H  H4  1  0.49940000  0.91140000  0.56600000  1.0 0.0431417116
H  H5  1  0.08900000  0.56500000  0.84220000  1.0 0.092384358
H  H6  1  0.02320000  0.56600000  0.91140000  1.0 0.0431417116
H  H7  1  0.84220000  0.50380000  0.08900000  1.0 0.092384358
H  H8  1  0.91140000  0.49940000  0.02320000  1.0 0.0431417116
H  H9  1  0.08900000  0.50380000  0.56500000  1.0 0.092384358
H  H10  1  0.02320000  0.49940000  0.56600000  1.0 0.0431417116
H  H11  1  0.84220000  0.56500000  0.50380000  1.0 0.092384358
H  H12  1  0.91140000  0.56600000  0.49940000  1.0 0.0431417116
H  H13  1  0.56500000  0.84220000  0.08900000  1.0 0.092384358
H  H14  1  0.56600000  0.91140000  0.02320000  1.0 0.0431417116
H  H15  1  0.50380000  0.08900000  0.84220000  1.0 0.092384358
H  H16  1  0.49940000  0.02320000  0.91140000  1.0 0.0431417116
H  H17  1  0.50380000  0.56500000  0.08900000  1.0 0.092384358
H  H18  1  0.49940000  0.56600000  0.02320000  1.0 0.0431417116
H  H19  1  0.56500000  0.50380000  0.84220000  1.0 0.092384358
H  H20  1  0.56600000  0.49940000  0.91140000  1.0 0.0431417116
H  H21  1  0.84220000  0.08900000  0.56500000  1.0 0.092384358
H  H22  1  0.91140000  0.02320000  0.56600000  1.0 0.0431417116
H  H23  1  0.08900000  0.84220000  0.50380000  1.0 0.092384358
H  H24  1  0.02320000  0.91140000  0.49940000  1.0 0.0431417116
H  H25  1  0.43500000  0.15780000  0.49620000  1.0 0.092384358
H  H26  1  0.43400000  0.08860000  0.50060000  1.0 0.0431417116
H  H27  1  0.49620000  0.91100000  0.43500000  1.0 0.092384358
H  H28  1  0.50060000  0.97680000  0.43400000  1.0 0.0431417116
H  H29  1  0.91100000  0.49620000  0.15780000  1.0 0.092384358
H  H30  1  0.97680000  0.50060000  0.08860000  1.0 0.0431417116
H  H31  1  0.15780000  0.43500000  0.91100000  1.0 0.092384358
H  H32  1  0.08860000  0.43400000  0.97680000  1.0 0.0431417116
H  H33  1  0.91100000  0.15780000  0.43500000  1.0 0.092384358
H  H34  1  0.97680000  0.08860000  0.43400000  1.0 0.0431417116
H  H35  1  0.15780000  0.91100000  0.49620000  1.0 0.092384358
H  H36  1  0.08860000  0.97680000  0.50060000  1.0 0.0431417116
H  H37  1  0.43500000  0.49620000  0.91100000  1.0 0.092384358
H  H38  1  0.43400000  0.50060000  0.97680000  1.0 0.0431417116
H  H39  1  0.49620000  0.43500000  0.15780000  1.0 0.092384358
H  H40  1  0.50060000  0.43400000  0.08860000  1.0 0.0431417116
H  H41  1  0.49620000  0.15780000  0.91100000  1.0 0.092384358
H  H42  1  0.50060000  0.08860000  0.97680000  1.0 0.0431417116
H  H43  1  0.43500000  0.91100000  0.15780000  1.0 0.092384358
H  H44  1  0.43400000  0.97680000  0.08860000  1.0 0.0431417116
H  H45  1  0.15780000  0.49620000  0.43500000  1.0 0.092384358
H  H46  1  0.08860000  0.50060000  0.43400000  1.0 0.0431417116
H  H47  1  0.91100000  0.43500000  0.49620000  1.0 0.092384358
H  H48  1  0.97680000  0.43400000  0.50060000  1.0 0.0431417116
H  H49  1  0.43500000  0.91100000  0.49620000  1.0 0.092384358
H  H50  1  0.43400000  0.97680000  0.50060000  1.0 0.0431417116
H  H51  1  0.49620000  0.15780000  0.43500000  1.0 0.092384358
H  H52  1  0.50060000  0.08860000  0.43400000  1.0 0.0431417116
H  H53  1  0.91100000  0.43500000  0.15780000  1.0 0.092384358
H  H54  1  0.97680000  0.43400000  0.08860000  1.0 0.0431417116
H  H55  1  0.15780000  0.49620000  0.91100000  1.0 0.092384358
H  H56  1  0.08860000  0.50060000  0.97680000  1.0 0.0431417116
H  H57  1  0.91100000  0.49620000  0.43500000  1.0 0.092384358
H  H58  1  0.97680000  0.50060000  0.43400000  1.0 0.0431417116
H  H59  1  0.15780000  0.43500000  0.49620000  1.0 0.092384358
H  H60  1  0.08860000  0.43400000  0.50060000  1.0 0.0431417116
H  H61  1  0.43500000  0.15780000  0.91100000  1.0 0.092384358
H  H62  1  0.43400000  0.08860000  0.97680000  1.0 0.0431417116
H  H63  1  0.49620000  0.91100000  0.15780000  1.0 0.092384358
H  H64  1  0.50060000  0.97680000  0.08860000  1.0 0.0431417116
H  H65  1  0.49620000  0.43500000  0.91100000  1.0 0.092384358
H  H66  1  0.50060000  0.43400000  0.97680000  1.0 0.0431417116
H  H67  1  0.43500000  0.49620000  0.15780000  1.0 0.092384358
H  H68  1  0.43400000  0.50060000  0.08860000  1.0 0.0431417116
H  H69  1  0.15780000  0.91100000  0.43500000  1.0 0.092384358
H  H70  1  0.08860000  0.97680000  0.43400000  1.0 0.0431417116
H  H71  1  0.91100000  0.15780000  0.49620000  1.0 0.092384358
H  H72  1  0.97680000  0.08860000  0.50060000  1.0 0.0431417116
H  H73  1  0.56500000  0.84220000  0.50380000  1.0 0.092384358
H  H74  1  0.56600000  0.91140000  0.49940000  1.0 0.0431417116
H  H75  1  0.50380000  0.08900000  0.56500000  1.0 0.092384358
H  H76  1  0.49940000  0.02320000  0.56600000  1.0 0.0431417116
H  H77  1  0.08900000  0.50380000  0.84220000  1.0 0.092384358
H  H78  1  0.02320000  0.49940000  0.91140000  1.0 0.0431417116
H  H79  1  0.84220000  0.56500000  0.08900000  1.0 0.092384358
H  H80  1  0.91140000  0.56600000  0.02320000  1.0 0.0431417116
H  H81  1  0.08900000  0.84220000  0.56500000  1.0 0.092384358
H  H82  1  0.02320000  0.91140000  0.56600000  1.0 0.0431417116
H  H83  1  0.84220000  0.08900000  0.50380000  1.0 0.092384358
H  H84  1  0.91140000  0.02320000  0.49940000  1.0 0.0431417116
H  H85  1  0.56500000  0.50380000  0.08900000  1.0 0.092384358
H  H86  1  0.56600000  0.49940000  0.02320000  1.0 0.0431417116
H  H87  1  0.50380000  0.56500000  0.84220000  1.0 0.092384358
H  H88  1  0.49940000  0.56600000  0.91140000  1.0 0.0431417116
H  H89  1  0.50380000  0.84220000  0.08900000  1.0 0.092384358
H  H90  1  0.49940000  0.91140000  0.02320000  1.0 0.0431417116
H  H91  1  0.56500000  0.08900000  0.84220000  1.0 0.092384358
H  H92  1  0.56600000  0.02320000  0.91140000  1.0 0.0431417116
H  H93  1  0.84220000  0.50380000  0.56500000  1.0 0.092384358
H  H94  1  0.91140000  0.49940000  0.56600000  1.0 0.0431417116
H  H95  1  0.08900000  0.56500000  0.50380000  1.0 0.092384358
H  H96  1  0.02320000  0.56600000  0.49940000  1.0 0.0431417116
H  H97  1  0.54050000  0.28590000  0.45950000  1.0 0.14129811
H  H98  1  0.62300000  0.20460000  0.37700000  1.0 0.1313104231
H  H99  1  0.57820000  0.15700000  0.42180000  1.0 0.1313104231
H  H100  1  0.45950000  0.71410000  0.54050000  1.0 0.14129811
H  H101  1  0.37700000  0.79540000  0.62300000  1.0 0.1313104231
H  H102  1  0.42180000  0.84300000  0.57820000  1.0 0.1313104231
H  H103  1  0.28590000  0.54050000  0.71410000  1.0 0.14129811
H  H104  1  0.20460000  0.62300000  0.79540000  1.0 0.1313104231
H  H105  1  0.15700000  0.57820000  0.84300000  1.0 0.1313104231
H  H106  1  0.71410000  0.45950000  0.28590000  1.0 0.14129811
H  H107  1  0.79540000  0.37700000  0.20460000  1.0 0.1313104231
H  H108  1  0.84300000  0.42180000  0.15700000  1.0 0.1313104231
H  H109  1  0.28590000  0.45950000  0.54050000  1.0 0.14129811
H  H110  1  0.20460000  0.37700000  0.62300000  1.0 0.1313104231
H  H111  1  0.15700000  0.42180000  0.57820000  1.0 0.1313104231
H  H112  1  0.71410000  0.54050000  0.45950000  1.0 0.14129811
H  H113  1  0.79540000  0.62300000  0.37700000  1.0 0.1313104231
H  H114  1  0.84300000  0.57820000  0.42180000  1.0 0.1313104231
H  H115  1  0.54050000  0.71410000  0.28590000  1.0 0.14129811
H  H116  1  0.62300000  0.79540000  0.20460000  1.0 0.1313104231
H  H117  1  0.57820000  0.84300000  0.15700000  1.0 0.1313104231
H  H118  1  0.45950000  0.28590000  0.71410000  1.0 0.14129811
H  H119  1  0.37700000  0.20460000  0.79540000  1.0 0.1313104231
H  H120  1  0.42180000  0.15700000  0.84300000  1.0 0.1313104231
H  H121  1  0.45950000  0.54050000  0.28590000  1.0 0.14129811
H  H122  1  0.37700000  0.62300000  0.20460000  1.0 0.1313104231
H  H123  1  0.42180000  0.57820000  0.15700000  1.0 0.1313104231
H  H124  1  0.54050000  0.45950000  0.71410000  1.0 0.14129811
H  H125  1  0.62300000  0.37700000  0.79540000  1.0 0.1313104231
H  H126  1  0.57820000  0.42180000  0.84300000  1.0 0.1313104231
H  H127  1  0.71410000  0.28590000  0.54050000  1.0 0.14129811
H  H128  1  0.79540000  0.20460000  0.62300000  1.0 0.1313104231
H  H129  1  0.84300000  0.15700000  0.57820000  1.0 0.1313104231
H  H130  1  0.28590000  0.71410000  0.45950000  1.0 0.14129811
H  H131  1  0.20460000  0.79540000  0.37700000  1.0 0.1313104231
H  H132  1  0.15700000  0.84300000  0.42180000  1.0 0.1313104231
H  H133  1  0.45950000  0.28590000  0.54050000  1.0 0.14129811
H  H134  1  0.37700000  0.20460000  0.62300000  1.0 0.1313104231
H  H135  1  0.42180000  0.15700000  0.57820000  1.0 0.1313104231
H  H136  1  0.54050000  0.71410000  0.45950000  1.0 0.14129811
H  H137  1  0.62300000  0.79540000  0.37700000  1.0 0.1313104231
H  H138  1  0.57820000  0.84300000  0.42180000  1.0 0.1313104231
H  H139  1  0.71410000  0.54050000  0.28590000  1.0 0.14129811
H  H140  1  0.79540000  0.62300000  0.20460000  1.0 0.1313104231
H  H141  1  0.84300000  0.57820000  0.15700000  1.0 0.1313104231
H  H142  1  0.28590000  0.45950000  0.71410000  1.0 0.14129811
H  H143  1  0.20460000  0.37700000  0.79540000  1.0 0.1313104231
H  H144  1  0.15700000  0.42180000  0.84300000  1.0 0.1313104231
H  H145  1  0.71410000  0.28590000  0.45950000  1.0 0.14129811
H  H146  1  0.79540000  0.20460000  0.37700000  1.0 0.1313104231
H  H147  1  0.84300000  0.15700000  0.42180000  1.0 0.1313104231
H  H148  1  0.28590000  0.71410000  0.54050000  1.0 0.14129811
H  H149  1  0.20460000  0.79540000  0.62300000  1.0 0.1313104231
H  H150  1  0.15700000  0.84300000  0.57820000  1.0 0.1313104231
H  H151  1  0.45950000  0.54050000  0.71410000  1.0 0.14129811
H  H152  1  0.37700000  0.62300000  0.79540000  1.0 0.1313104231
H  H153  1  0.42180000  0.57820000  0.84300000  1.0 0.1313104231
H  H154  1  0.54050000  0.45950000  0.28590000  1.0 0.14129811
H  H155  1  0.62300000  0.37700000  0.20460000  1.0 0.1313104231
H  H156  1  0.57820000  0.42180000  0.15700000  1.0 0.1313104231
H  H157  1  0.54050000  0.28590000  0.71410000  1.0 0.14129811
H  H158  1  0.62300000  0.20460000  0.79540000  1.0 0.1313104231
H  H159  1  0.57820000  0.15700000  0.84300000  1.0 0.1313104231
H  H160  1  0.45950000  0.71410000  0.28590000  1.0 0.14129811
H  H161  1  0.37700000  0.79540000  0.20460000  1.0 0.1313104231
H  H162  1  0.42180000  0.84300000  0.15700000  1.0 0.1313104231
H  H163  1  0.28590000  0.54050000  0.45950000  1.0 0.14129811
H  H164  1  0.20460000  0.62300000  0.37700000  1.0 0.1313104231
H  H165  1  0.15700000  0.57820000  0.42180000  1.0 0.1313104231
H  H166  1  0.71410000  0.45950000  0.54050000  1.0 0.14129811
H  H167  1  0.79540000  0.37700000  0.62300000  1.0 0.1313104231
H  H168  1  0.84300000  0.42180000  0.57820000  1.0 0.1313104231
C  C1  1  0.53929000  0.08923000  0.50171000  1.0 -0.0923423383
C  C2  1  0.53915000  0.04975000  0.50025000  1.0 -0.1101700262
C  C3  1  0.50171000  0.86977000  0.53929000  1.0 -0.0923423383
C  C4  1  0.50025000  0.91085000  0.53915000  1.0 -0.1101700262
C  C5  1  0.08923000  0.53929000  0.86977000  1.0 -0.0923423383
C  C6  1  0.04975000  0.53915000  0.91085000  1.0 -0.1101700262
C  C7  1  0.86977000  0.50171000  0.08923000  1.0 -0.0923423383
C  C8  1  0.91085000  0.50025000  0.04975000  1.0 -0.1101700262
C  C9  1  0.08923000  0.50171000  0.53929000  1.0 -0.0923423383
C  C10  1  0.04975000  0.50025000  0.53915000  1.0 -0.1101700262
C  C11  1  0.86977000  0.53929000  0.50171000  1.0 -0.0923423383
C  C12  1  0.91085000  0.53915000  0.50025000  1.0 -0.1101700262
C  C13  1  0.53929000  0.86977000  0.08923000  1.0 -0.0923423383
C  C14  1  0.53915000  0.91085000  0.04975000  1.0 -0.1101700262
C  C15  1  0.50171000  0.08923000  0.86977000  1.0 -0.0923423383
C  C16  1  0.50025000  0.04975000  0.91085000  1.0 -0.1101700262
C  C17  1  0.50171000  0.53929000  0.08923000  1.0 -0.0923423383
C  C18  1  0.50025000  0.53915000  0.04975000  1.0 -0.1101700262
C  C19  1  0.53929000  0.50171000  0.86977000  1.0 -0.0923423383
C  C20  1  0.53915000  0.50025000  0.91085000  1.0 -0.1101700262
C  C21  1  0.86977000  0.08923000  0.53929000  1.0 -0.0923423383
C  C22  1  0.91085000  0.04975000  0.53915000  1.0 -0.1101700262
C  C23  1  0.08923000  0.86977000  0.50171000  1.0 -0.0923423383
C  C24  1  0.04975000  0.91085000  0.50025000  1.0 -0.1101700262
C  C25  1  0.46071000  0.13023000  0.49829000  1.0 -0.0923423383
C  C26  1  0.46085000  0.08915000  0.49975000  1.0 -0.1101700262
C  C27  1  0.49829000  0.91077000  0.46071000  1.0 -0.0923423383
C  C28  1  0.49975000  0.95025000  0.46085000  1.0 -0.1101700262
C  C29  1  0.91077000  0.49829000  0.13023000  1.0 -0.0923423383
C  C30  1  0.95025000  0.49975000  0.08915000  1.0 -0.1101700262
C  C31  1  0.13023000  0.46071000  0.91077000  1.0 -0.0923423383
C  C32  1  0.08915000  0.46085000  0.95025000  1.0 -0.1101700262
C  C33  1  0.91077000  0.13023000  0.46071000  1.0 -0.0923423383
C  C34  1  0.95025000  0.08915000  0.46085000  1.0 -0.1101700262
C  C35  1  0.13023000  0.91077000  0.49829000  1.0 -0.0923423383
C  C36  1  0.08915000  0.95025000  0.49975000  1.0 -0.1101700262
C  C37  1  0.46071000  0.49829000  0.91077000  1.0 -0.0923423383
C  C38  1  0.46085000  0.49975000  0.95025000  1.0 -0.1101700262
C  C39  1  0.49829000  0.46071000  0.13023000  1.0 -0.0923423383
C  C40  1  0.49975000  0.46085000  0.08915000  1.0 -0.1101700262
C  C41  1  0.49829000  0.13023000  0.91077000  1.0 -0.0923423383
C  C42  1  0.49975000  0.08915000  0.95025000  1.0 -0.1101700262
C  C43  1  0.46071000  0.91077000  0.13023000  1.0 -0.0923423383
C  C44  1  0.46085000  0.95025000  0.08915000  1.0 -0.1101700262
C  C45  1  0.13023000  0.49829000  0.46071000  1.0 -0.0923423383
C  C46  1  0.08915000  0.49975000  0.46085000  1.0 -0.1101700262
C  C47  1  0.91077000  0.46071000  0.49829000  1.0 -0.0923423383
C  C48  1  0.95025000  0.46085000  0.49975000  1.0 -0.1101700262
C  C49  1  0.46071000  0.91077000  0.49829000  1.0 -0.0923423383
C  C50  1  0.46085000  0.95025000  0.49975000  1.0 -0.1101700262
C  C51  1  0.49829000  0.13023000  0.46071000  1.0 -0.0923423383
C  C52  1  0.49975000  0.08915000  0.46085000  1.0 -0.1101700262
C  C53  1  0.91077000  0.46071000  0.13023000  1.0 -0.0923423383
C  C54  1  0.95025000  0.46085000  0.08915000  1.0 -0.1101700262
C  C55  1  0.13023000  0.49829000  0.91077000  1.0 -0.0923423383
C  C56  1  0.08915000  0.49975000  0.95025000  1.0 -0.1101700262
C  C57  1  0.91077000  0.49829000  0.46071000  1.0 -0.0923423383
C  C58  1  0.95025000  0.49975000  0.46085000  1.0 -0.1101700262
C  C59  1  0.13023000  0.46071000  0.49829000  1.0 -0.0923423383
C  C60  1  0.08915000  0.46085000  0.49975000  1.0 -0.1101700262
C  C61  1  0.46071000  0.13023000  0.91077000  1.0 -0.0923423383
C  C62  1  0.46085000  0.08915000  0.95025000  1.0 -0.1101700262
C  C63  1  0.49829000  0.91077000  0.13023000  1.0 -0.0923423383
C  C64  1  0.49975000  0.95025000  0.08915000  1.0 -0.1101700262
C  C65  1  0.49829000  0.46071000  0.91077000  1.0 -0.0923423383
C  C66  1  0.49975000  0.46085000  0.95025000  1.0 -0.1101700262
C  C67  1  0.46071000  0.49829000  0.13023000  1.0 -0.0923423383
C  C68  1  0.46085000  0.49975000  0.08915000  1.0 -0.1101700262
C  C69  1  0.13023000  0.91077000  0.46071000  1.0 -0.0923423383
C  C70  1  0.08915000  0.95025000  0.46085000  1.0 -0.1101700262
C  C71  1  0.91077000  0.13023000  0.49829000  1.0 -0.0923423383
C  C72  1  0.95025000  0.08915000  0.49975000  1.0 -0.1101700262
C  C73  1  0.53929000  0.86977000  0.50171000  1.0 -0.0923423383
C  C74  1  0.53915000  0.91085000  0.50025000  1.0 -0.1101700262
C  C75  1  0.50171000  0.08923000  0.53929000  1.0 -0.0923423383
C  C76  1  0.50025000  0.04975000  0.53915000  1.0 -0.1101700262
C  C77  1  0.08923000  0.50171000  0.86977000  1.0 -0.0923423383
C  C78  1  0.04975000  0.50025000  0.91085000  1.0 -0.1101700262
C  C79  1  0.86977000  0.53929000  0.08923000  1.0 -0.0923423383
C  C80  1  0.91085000  0.53915000  0.04975000  1.0 -0.1101700262
C  C81  1  0.08923000  0.86977000  0.53929000  1.0 -0.0923423383
C  C82  1  0.04975000  0.91085000  0.53915000  1.0 -0.1101700262
C  C83  1  0.86977000  0.08923000  0.50171000  1.0 -0.0923423383
C  C84  1  0.91085000  0.04975000  0.50025000  1.0 -0.1101700262
C  C85  1  0.53929000  0.50171000  0.08923000  1.0 -0.0923423383
C  C86  1  0.53915000  0.50025000  0.04975000  1.0 -0.1101700262
C  C87  1  0.50171000  0.53929000  0.86977000  1.0 -0.0923423383
C  C88  1  0.50025000  0.53915000  0.91085000  1.0 -0.1101700262
C  C89  1  0.50171000  0.86977000  0.08923000  1.0 -0.0923423383
C  C90  1  0.50025000  0.91085000  0.04975000  1.0 -0.1101700262
C  C91  1  0.53929000  0.08923000  0.86977000  1.0 -0.0923423383
C  C92  1  0.53915000  0.04975000  0.91085000  1.0 -0.1101700262
C  C93  1  0.86977000  0.50171000  0.53929000  1.0 -0.0923423383
C  C94  1  0.91085000  0.50025000  0.53915000  1.0 -0.1101700262
C  C95  1  0.08923000  0.53929000  0.50171000  1.0 -0.0923423383
C  C96  1  0.04975000  0.53915000  0.50025000  1.0 -0.1101700262
C  C97  1  0.52074000  0.23170000  0.47926000  1.0 -0.0159894693
C  C98  1  0.54804000  0.26026000  0.45196000  1.0 -0.1101700262
C  C99  1  0.61648000  0.28108000  0.38352000  1.0 0.5889164996
C  C100  1  0.58633000  0.25093000  0.41367000  1.0 -0.0289245837
C  C101  1  0.59700000  0.21102000  0.40300000  1.0 -0.0639966661
C  C102  1  0.57073000  0.18267000  0.42927000  1.0 -0.1617957909
C  C103  1  0.53217000  0.19287000  0.46783000  1.0 0.1721694517
C  C104  1  0.47926000  0.76830000  0.52074000  1.0 -0.0159894693
C  C105  1  0.45196000  0.73974000  0.54804000  1.0 -0.1101700262
C  C106  1  0.38352000  0.71892000  0.61648000  1.0 0.5889164996
C  C107  1  0.41367000  0.74907000  0.58633000  1.0 -0.0289245837
C  C108  1  0.40300000  0.78898000  0.59700000  1.0 -0.0639966661
C  C109  1  0.42927000  0.81733000  0.57073000  1.0 -0.1617957909
C  C110  1  0.46783000  0.80713000  0.53217000  1.0 0.1721694517
C  C111  1  0.23170000  0.52074000  0.76830000  1.0 -0.0159894693
C  C112  1  0.26026000  0.54804000  0.73974000  1.0 -0.1101700262
C  C113  1  0.28108000  0.61648000  0.71892000  1.0 0.5889164996
C  C114  1  0.25093000  0.58633000  0.74907000  1.0 -0.0289245837
C  C115  1  0.21102000  0.59700000  0.78898000  1.0 -0.0639966661
C  C116  1  0.18267000  0.57073000  0.81733000  1.0 -0.1617957909
C  C117  1  0.19287000  0.53217000  0.80713000  1.0 0.1721694517
C  C118  1  0.76830000  0.47926000  0.23170000  1.0 -0.0159894693
C  C119  1  0.73974000  0.45196000  0.26026000  1.0 -0.1101700262
C  C120  1  0.71892000  0.38352000  0.28108000  1.0 0.5889164996
C  C121  1  0.74907000  0.41367000  0.25093000  1.0 -0.0289245837
C  C122  1  0.78898000  0.40300000  0.21102000  1.0 -0.0639966661
C  C123  1  0.81733000  0.42927000  0.18267000  1.0 -0.1617957909
C  C124  1  0.80713000  0.46783000  0.19287000  1.0 0.1721694517
C  C125  1  0.23170000  0.47926000  0.52074000  1.0 -0.0159894693
C  C126  1  0.26026000  0.45196000  0.54804000  1.0 -0.1101700262
C  C127  1  0.28108000  0.38352000  0.61648000  1.0 0.5889164996
C  C128  1  0.25093000  0.41367000  0.58633000  1.0 -0.0289245837
C  C129  1  0.21102000  0.40300000  0.59700000  1.0 -0.0639966661
C  C130  1  0.18267000  0.42927000  0.57073000  1.0 -0.1617957909
C  C131  1  0.19287000  0.46783000  0.53217000  1.0 0.1721694517
C  C132  1  0.76830000  0.52074000  0.47926000  1.0 -0.0159894693
C  C133  1  0.73974000  0.54804000  0.45196000  1.0 -0.1101700262
C  C134  1  0.71892000  0.61648000  0.38352000  1.0 0.5889164996
C  C135  1  0.74907000  0.58633000  0.41367000  1.0 -0.0289245837
C  C136  1  0.78898000  0.59700000  0.40300000  1.0 -0.0639966661
C  C137  1  0.81733000  0.57073000  0.42927000  1.0 -0.1617957909
C  C138  1  0.80713000  0.53217000  0.46783000  1.0 0.1721694517
C  C139  1  0.52074000  0.76830000  0.23170000  1.0 -0.0159894693
C  C140  1  0.54804000  0.73974000  0.26026000  1.0 -0.1101700262
C  C141  1  0.61648000  0.71892000  0.28108000  1.0 0.5889164996
C  C142  1  0.58633000  0.74907000  0.25093000  1.0 -0.0289245837
C  C143  1  0.59700000  0.78898000  0.21102000  1.0 -0.0639966661
C  C144  1  0.57073000  0.81733000  0.18267000  1.0 -0.1617957909
C  C145  1  0.53217000  0.80713000  0.19287000  1.0 0.1721694517
C  C146  1  0.47926000  0.23170000  0.76830000  1.0 -0.0159894693
C  C147  1  0.45196000  0.26026000  0.73974000  1.0 -0.1101700262
C  C148  1  0.38352000  0.28108000  0.71892000  1.0 0.5889164996
C  C149  1  0.41367000  0.25093000  0.74907000  1.0 -0.0289245837
C  C150  1  0.40300000  0.21102000  0.78898000  1.0 -0.0639966661
C  C151  1  0.42927000  0.18267000  0.81733000  1.0 -0.1617957909
C  C152  1  0.46783000  0.19287000  0.80713000  1.0 0.1721694517
C  C153  1  0.47926000  0.52074000  0.23170000  1.0 -0.0159894693
C  C154  1  0.45196000  0.54804000  0.26026000  1.0 -0.1101700262
C  C155  1  0.38352000  0.61648000  0.28108000  1.0 0.5889164996
C  C156  1  0.41367000  0.58633000  0.25093000  1.0 -0.0289245837
C  C157  1  0.40300000  0.59700000  0.21102000  1.0 -0.0639966661
C  C158  1  0.42927000  0.57073000  0.18267000  1.0 -0.1617957909
C  C159  1  0.46783000  0.53217000  0.19287000  1.0 0.1721694517
C  C160  1  0.52074000  0.47926000  0.76830000  1.0 -0.0159894693
C  C161  1  0.54804000  0.45196000  0.73974000  1.0 -0.1101700262
C  C162  1  0.61648000  0.38352000  0.71892000  1.0 0.5889164996
C  C163  1  0.58633000  0.41367000  0.74907000  1.0 -0.0289245837
C  C164  1  0.59700000  0.40300000  0.78898000  1.0 -0.0639966661
C  C165  1  0.57073000  0.42927000  0.81733000  1.0 -0.1617957909
C  C166  1  0.53217000  0.46783000  0.80713000  1.0 0.1721694517
C  C167  1  0.76830000  0.23170000  0.52074000  1.0 -0.0159894693
C  C168  1  0.73974000  0.26026000  0.54804000  1.0 -0.1101700262
C  C169  1  0.71892000  0.28108000  0.61648000  1.0 0.5889164996
C  C170  1  0.74907000  0.25093000  0.58633000  1.0 -0.0289245837
C  C171  1  0.78898000  0.21102000  0.59700000  1.0 -0.0639966661
C  C172  1  0.81733000  0.18267000  0.57073000  1.0 -0.1617957909
C  C173  1  0.80713000  0.19287000  0.53217000  1.0 0.1721694517
C  C174  1  0.23170000  0.76830000  0.47926000  1.0 -0.0159894693
C  C175  1  0.26026000  0.73974000  0.45196000  1.0 -0.1101700262
C  C176  1  0.28108000  0.71892000  0.38352000  1.0 0.5889164996
C  C177  1  0.25093000  0.74907000  0.41367000  1.0 -0.0289245837
C  C178  1  0.21102000  0.78898000  0.40300000  1.0 -0.0639966661
C  C179  1  0.18267000  0.81733000  0.42927000  1.0 -0.1617957909
C  C180  1  0.19287000  0.80713000  0.46783000  1.0 0.1721694517
C  C181  1  0.47926000  0.23170000  0.52074000  1.0 -0.0159894693
C  C182  1  0.45196000  0.26026000  0.54804000  1.0 -0.1101700262
C  C183  1  0.38352000  0.28108000  0.61648000  1.0 0.5889164996
C  C184  1  0.41367000  0.25093000  0.58633000  1.0 -0.0289245837
C  C185  1  0.40300000  0.21102000  0.59700000  1.0 -0.0639966661
C  C186  1  0.42927000  0.18267000  0.57073000  1.0 -0.1617957909
C  C187  1  0.46783000  0.19287000  0.53217000  1.0 0.1721694517
C  C188  1  0.52074000  0.76830000  0.47926000  1.0 -0.0159894693
C  C189  1  0.54804000  0.73974000  0.45196000  1.0 -0.1101700262
C  C190  1  0.61648000  0.71892000  0.38352000  1.0 0.5889164996
C  C191  1  0.58633000  0.74907000  0.41367000  1.0 -0.0289245837
C  C192  1  0.59700000  0.78898000  0.40300000  1.0 -0.0639966661
C  C193  1  0.57073000  0.81733000  0.42927000  1.0 -0.1617957909
C  C194  1  0.53217000  0.80713000  0.46783000  1.0 0.1721694517
C  C195  1  0.76830000  0.52074000  0.23170000  1.0 -0.0159894693
C  C196  1  0.73974000  0.54804000  0.26026000  1.0 -0.1101700262
C  C197  1  0.71892000  0.61648000  0.28108000  1.0 0.5889164996
C  C198  1  0.74907000  0.58633000  0.25093000  1.0 -0.0289245837
C  C199  1  0.78898000  0.59700000  0.21102000  1.0 -0.0639966661
C  C200  1  0.81733000  0.57073000  0.18267000  1.0 -0.1617957909
C  C201  1  0.80713000  0.53217000  0.19287000  1.0 0.1721694517
C  C202  1  0.23170000  0.47926000  0.76830000  1.0 -0.0159894693
C  C203  1  0.26026000  0.45196000  0.73974000  1.0 -0.1101700262
C  C204  1  0.28108000  0.38352000  0.71892000  1.0 0.5889164996
C  C205  1  0.25093000  0.41367000  0.74907000  1.0 -0.0289245837
C  C206  1  0.21102000  0.40300000  0.78898000  1.0 -0.0639966661
C  C207  1  0.18267000  0.42927000  0.81733000  1.0 -0.1617957909
C  C208  1  0.19287000  0.46783000  0.80713000  1.0 0.1721694517
C  C209  1  0.76830000  0.23170000  0.47926000  1.0 -0.0159894693
C  C210  1  0.73974000  0.26026000  0.45196000  1.0 -0.1101700262
C  C211  1  0.71892000  0.28108000  0.38352000  1.0 0.5889164996
C  C212  1  0.74907000  0.25093000  0.41367000  1.0 -0.0289245837
C  C213  1  0.78898000  0.21102000  0.40300000  1.0 -0.0639966661
C  C214  1  0.81733000  0.18267000  0.42927000  1.0 -0.1617957909
C  C215  1  0.80713000  0.19287000  0.46783000  1.0 0.1721694517
C  C216  1  0.23170000  0.76830000  0.52074000  1.0 -0.0159894693
C  C217  1  0.26026000  0.73974000  0.54804000  1.0 -0.1101700262
C  C218  1  0.28108000  0.71892000  0.61648000  1.0 0.5889164996
C  C219  1  0.25093000  0.74907000  0.58633000  1.0 -0.0289245837
C  C220  1  0.21102000  0.78898000  0.59700000  1.0 -0.0639966661
C  C221  1  0.18267000  0.81733000  0.57073000  1.0 -0.1617957909
C  C222  1  0.19287000  0.80713000  0.53217000  1.0 0.1721694517
C  C223  1  0.47926000  0.52074000  0.76830000  1.0 -0.0159894693
C  C224  1  0.45196000  0.54804000  0.73974000  1.0 -0.1101700262
C  C225  1  0.38352000  0.61648000  0.71892000  1.0 0.5889164996
C  C226  1  0.41367000  0.58633000  0.74907000  1.0 -0.0289245837
C  C227  1  0.40300000  0.59700000  0.78898000  1.0 -0.0639966661
C  C228  1  0.42927000  0.57073000  0.81733000  1.0 -0.1617957909
C  C229  1  0.46783000  0.53217000  0.80713000  1.0 0.1721694517
C  C230  1  0.52074000  0.47926000  0.23170000  1.0 -0.0149023318
C  C231  1  0.54804000  0.45196000  0.26026000  1.0 -0.1101700262
C  C232  1  0.61648000  0.38352000  0.28108000  1.0 0.5889164996
C  C233  1  0.58633000  0.41367000  0.25093000  1.0 -0.0289245837
C  C234  1  0.59700000  0.40300000  0.21102000  1.0 -0.0639966661
C  C235  1  0.57073000  0.42927000  0.18267000  1.0 -0.1617957909
C  C236  1  0.53217000  0.46783000  0.19287000  1.0 0.1721694517
C  C237  1  0.52074000  0.23170000  0.76830000  1.0 -0.0159894693
C  C238  1  0.54804000  0.26026000  0.73974000  1.0 -0.1101700262
C  C239  1  0.61648000  0.28108000  0.71892000  1.0 0.5889164996
C  C240  1  0.58633000  0.25093000  0.74907000  1.0 -0.0289245837
C  C241  1  0.59700000  0.21102000  0.78898000  1.0 -0.0639966661
C  C242  1  0.57073000  0.18267000  0.81733000  1.0 -0.1617957909
C  C243  1  0.53217000  0.19287000  0.80713000  1.0 0.1721694517
C  C244  1  0.47926000  0.76830000  0.23170000  1.0 -0.0159894693
C  C245  1  0.45196000  0.73974000  0.26026000  1.0 -0.1101700262
C  C246  1  0.38352000  0.71892000  0.28108000  1.0 0.5889164996
C  C247  1  0.41367000  0.74907000  0.25093000  1.0 -0.0289245837
C  C248  1  0.40300000  0.78898000  0.21102000  1.0 -0.0639966661
C  C249  1  0.42927000  0.81733000  0.18267000  1.0 -0.1617957909
C  C250  1  0.46783000  0.80713000  0.19287000  1.0 0.1721694517
C  C251  1  0.23170000  0.52074000  0.47926000  1.0 -0.0159894693
C  C252  1  0.26026000  0.54804000  0.45196000  1.0 -0.1101700262
C  C253  1  0.28108000  0.61648000  0.38352000  1.0 0.5889164996
C  C254  1  0.25093000  0.58633000  0.41367000  1.0 -0.0289245837
C  C255  1  0.21102000  0.59700000  0.40300000  1.0 -0.0639966661
C  C256  1  0.18267000  0.57073000  0.42927000  1.0 -0.1617957909
C  C257  1  0.19287000  0.53217000  0.46783000  1.0 0.1721694517
C  C258  1  0.76830000  0.47926000  0.52074000  1.0 -0.0159894693
C  C259  1  0.73974000  0.45196000  0.54804000  1.0 -0.1101700262
C  C260  1  0.71892000  0.38352000  0.61648000  1.0 0.5889164996
C  C261  1  0.74907000  0.41367000  0.58633000  1.0 -0.0289245837
C  C262  1  0.78898000  0.40300000  0.59700000  1.0 -0.0639966661
C  C263  1  0.81733000  0.42927000  0.57073000  1.0 -0.1617957909
C  C264  1  0.80713000  0.46783000  0.53217000  1.0 0.1721694517
C  C265  1  0.50000000  0.12756000  0.50000000  1.0 0.14129811
C  C266  1  0.50000000  0.04984000  0.50000000  1.0 0.1313104231
C  C267  1  0.50000000  0.87244000  0.50000000  1.0 0.14129811
C  C268  1  0.50000000  0.95016000  0.50000000  1.0 0.1313104231
C  C269  1  0.12756000  0.50000000  0.87244000  1.0 0.14129811
C  C270  1  0.04984000  0.50000000  0.95016000  1.0 0.1313104231
C  C271  1  0.87244000  0.50000000  0.12756000  1.0 0.14129811
C  C272  1  0.95016000  0.50000000  0.04984000  1.0 0.1313104231
C  C273  1  0.12756000  0.50000000  0.50000000  1.0 0.14129811
C  C274  1  0.04984000  0.50000000  0.50000000  1.0 0.1313104231
C  C275  1  0.87244000  0.50000000  0.50000000  1.0 0.14129811
C  C276  1  0.95016000  0.50000000  0.50000000  1.0 0.1313104231
C  C277  1  0.50000000  0.87244000  0.12756000  1.0 0.1313104231
C  C278  1  0.50000000  0.95016000  0.04984000  1.0 0.1246594405
C  C279  1  0.50000000  0.12756000  0.87244000  1.0 0.1313104231
C  C280  1  0.50000000  0.04984000  0.95016000  1.0 0.1313104231
C  C281  1  0.50000000  0.50000000  0.12756000  1.0 0.14129811
C  C282  1  0.50000000  0.50000000  0.04984000  1.0 0.1313104231
C  C283  1  0.50000000  0.50000000  0.87244000  1.0 0.14129811
C  C284  1  0.50000000  0.50000000  0.95016000  1.0 0.1313104231
C  C285  1  0.87244000  0.12756000  0.50000000  1.0 0.14129811
C  C286  1  0.95016000  0.04984000  0.50000000  1.0 0.1313104231
C  C287  1  0.12756000  0.87244000  0.50000000  1.0 0.14129811
C  C288  1  0.04984000  0.95016000  0.50000000  1.0 0.1313104231
N  N1  1  0.51590000  0.99950000  0.50410000  1.0 -0.0488200389
N  N2  1  0.50410000  0.98050000  0.51590000  1.0 -0.0488200389
N  N3  1  0.99950000  0.51590000  0.98050000  1.0 -0.0488200389
N  N4  1  0.98050000  0.50410000  0.99950000  1.0 -0.0488200389
N  N5  1  0.99950000  0.50410000  0.51590000  1.0 -0.0488200389
N  N6  1  0.98050000  0.51590000  0.50410000  1.0 -0.0488200389
N  N7  1  0.51590000  0.98050000  0.99950000  1.0 -0.0488200389
N  N8  1  0.50410000  0.99950000  0.98050000  1.0 -0.0488200389
N  N9  1  0.50410000  0.51590000  0.99950000  1.0 -0.0488200389
N  N10  1  0.51590000  0.50410000  0.98050000  1.0 -0.0488200389
N  N11  1  0.98050000  0.99950000  0.51590000  1.0 -0.0488200389
N  N12  1  0.99950000  0.98050000  0.50410000  1.0 -0.0488200389
N  N13  1  0.48410000  0.01950000  0.49590000  1.0 -0.0488200389
N  N14  1  0.49590000  0.00050000  0.48410000  1.0 -0.0488200389
N  N15  1  0.00050000  0.49590000  0.01950000  1.0 -0.0488200389
N  N16  1  0.01950000  0.48410000  0.00050000  1.0 -0.0488200389
N  N17  1  0.00050000  0.01950000  0.48410000  1.0 -0.0488200389
N  N18  1  0.01950000  0.00050000  0.49590000  1.0 -0.0488200389
N  N19  1  0.48410000  0.49590000  0.00050000  1.0 -0.0488200389
N  N20  1  0.49590000  0.48410000  0.01950000  1.0 -0.0488200389
N  N21  1  0.49590000  0.01950000  0.00050000  1.0 -0.0488200389
N  N22  1  0.48410000  0.00050000  0.01950000  1.0 -0.0488200389
N  N23  1  0.01950000  0.49590000  0.48410000  1.0 -0.0488200389
N  N24  1  0.00050000  0.48410000  0.49590000  1.0 -0.0488200389
N  N25  1  0.48410000  0.00050000  0.49590000  1.0 -0.0488200389
N  N26  1  0.49590000  0.01950000  0.48410000  1.0 -0.0488200389
N  N27  1  0.00050000  0.48410000  0.01950000  1.0 -0.0488200389
N  N28  1  0.01950000  0.49590000  0.00050000  1.0 -0.0488200389
N  N29  1  0.00050000  0.49590000  0.48410000  1.0 -0.0488200389
N  N30  1  0.01950000  0.48410000  0.49590000  1.0 -0.0488200389
N  N31  1  0.48410000  0.01950000  0.00050000  1.0 -0.0488200389
N  N32  1  0.49590000  0.00050000  0.01950000  1.0 -0.0488200389
N  N33  1  0.49590000  0.48410000  0.00050000  1.0 -0.0488200389
N  N34  1  0.48410000  0.49590000  0.01950000  1.0 -0.0488200389
N  N35  1  0.01950000  0.00050000  0.48410000  1.0 -0.0488200389
N  N36  1  0.00050000  0.01950000  0.49590000  1.0 -0.0488200389
N  N37  1  0.51590000  0.98050000  0.50410000  1.0 -0.0488200389
N  N38  1  0.50410000  0.99950000  0.51590000  1.0 -0.0488200389
N  N39  1  0.99950000  0.50410000  0.98050000  1.0 -0.0488200389
N  N40  1  0.98050000  0.51590000  0.99950000  1.0 -0.0488200389
N  N41  1  0.99950000  0.98050000  0.51590000  1.0 -0.0488200389
N  N42  1  0.98050000  0.99950000  0.50410000  1.0 -0.0488200389
N  N43  1  0.51590000  0.50410000  0.99950000  1.0 -0.0488200389
N  N44  1  0.50410000  0.51590000  0.98050000  1.0 -0.0488200389
N  N45  1  0.50410000  0.98050000  0.99950000  1.0 -0.0488200389
N  N46  1  0.51590000  0.99950000  0.98050000  1.0 -0.0488200389
N  N47  1  0.98050000  0.50410000  0.51590000  1.0 -0.0488200389
N  N48  1  0.99950000  0.51590000  0.50410000  1.0 -0.0488200389
N  N49  1  0.50000000  0.17048000  0.50000000  1.0 -0.187876499
N  N50  1  0.50000000  0.82952000  0.50000000  1.0 -0.187876499
N  N51  1  0.17048000  0.50000000  0.82952000  1.0 -0.187876499
N  N52  1  0.82952000  0.50000000  0.17048000  1.0 -0.187876499
N  N53  1  0.17048000  0.50000000  0.50000000  1.0 -0.187876499
N  N54  1  0.82952000  0.50000000  0.50000000  1.0 -0.187876499
N  N55  1  0.50000000  0.82952000  0.17048000  1.0 -0.1831323364
N  N56  1  0.50000000  0.17048000  0.82952000  1.0 -0.187876499
N  N57  1  0.50000000  0.50000000  0.17048000  1.0 -0.187876499
N  N58  1  0.50000000  0.50000000  0.82952000  1.0 -0.187876499
N  N59  1  0.82952000  0.17048000  0.50000000  1.0 -0.187876499
N  N60  1  0.17048000  0.82952000  0.50000000  1.0 -0.187876499
O  O1  1  0.60574000  0.31534000  0.39426000  1.0 -0.5094953113
O  O2  1  0.65115000  0.27005000  0.34885000  1.0 -0.5237603778
O  O3  1  0.39426000  0.68466000  0.60574000  1.0 -0.5094953113
O  O4  1  0.34885000  0.72995000  0.65115000  1.0 -0.5237603778
O  O5  1  0.31534000  0.60574000  0.68466000  1.0 -0.5094953113
O  O6  1  0.27005000  0.65115000  0.72995000  1.0 -0.5237603778
O  O7  1  0.68466000  0.39426000  0.31534000  1.0 -0.5094953113
O  O8  1  0.72995000  0.34885000  0.27005000  1.0 -0.5237603778
O  O9  1  0.31534000  0.39426000  0.60574000  1.0 -0.5094953113
O  O10  1  0.27005000  0.34885000  0.65115000  1.0 -0.5237603778
O  O11  1  0.68466000  0.60574000  0.39426000  1.0 -0.5094953113
O  O12  1  0.72995000  0.65115000  0.34885000  1.0 -0.5237603778
O  O13  1  0.60574000  0.68466000  0.31534000  1.0 -0.5094953113
O  O14  1  0.65115000  0.72995000  0.27005000  1.0 -0.5237603778
O  O15  1  0.39426000  0.31534000  0.68466000  1.0 -0.5094953113
O  O16  1  0.34885000  0.27005000  0.72995000  1.0 -0.5237603778
O  O17  1  0.39426000  0.60574000  0.31534000  1.0 -0.5094953113
O  O18  1  0.34885000  0.65115000  0.27005000  1.0 -0.5237603778
O  O19  1  0.60574000  0.39426000  0.68466000  1.0 -0.5094953113
O  O20  1  0.65115000  0.34885000  0.72995000  1.0 -0.5237603778
O  O21  1  0.68466000  0.31534000  0.60574000  1.0 -0.5094953113
O  O22  1  0.72995000  0.27005000  0.65115000  1.0 -0.5237603778
O  O23  1  0.31534000  0.68466000  0.39426000  1.0 -0.5094953113
O  O24  1  0.27005000  0.72995000  0.34885000  1.0 -0.5237603778
O  O25  1  0.39426000  0.31534000  0.60574000  1.0 -0.5094953113
O  O26  1  0.34885000  0.27005000  0.65115000  1.0 -0.5237603778
O  O27  1  0.60574000  0.68466000  0.39426000  1.0 -0.5094953113
O  O28  1  0.65115000  0.72995000  0.34885000  1.0 -0.5250840941
O  O29  1  0.68466000  0.60574000  0.31534000  1.0 -0.5094953113
O  O30  1  0.72995000  0.65115000  0.27005000  1.0 -0.5237603778
O  O31  1  0.31534000  0.39426000  0.68466000  1.0 -0.5094953113
O  O32  1  0.27005000  0.34885000  0.72995000  1.0 -0.5237603778
O  O33  1  0.68466000  0.31534000  0.39426000  1.0 -0.5094953113
O  O34  1  0.72995000  0.27005000  0.34885000  1.0 -0.5237603778
O  O35  1  0.31534000  0.68466000  0.60574000  1.0 -0.5094953113
O  O36  1  0.27005000  0.72995000  0.65115000  1.0 -0.5237603778
O  O37  1  0.39426000  0.60574000  0.68466000  1.0 -0.5094953113
O  O38  1  0.34885000  0.65115000  0.72995000  1.0 -0.5237603778
O  O39  1  0.60574000  0.39426000  0.31534000  1.0 -0.5094953113
O  O40  1  0.65115000  0.34885000  0.27005000  1.0 -0.5250840941
O  O41  1  0.60574000  0.31534000  0.68466000  1.0 -0.5094953113
O  O42  1  0.65115000  0.27005000  0.72995000  1.0 -0.5237603778
O  O43  1  0.39426000  0.68466000  0.31534000  1.0 -0.5094953113
O  O44  1  0.34885000  0.72995000  0.27005000  1.0 -0.5237603778
O  O45  1  0.31534000  0.60574000  0.39426000  1.0 -0.5094953113
O  O46  1  0.27005000  0.65115000  0.34885000  1.0 -0.5237603778
O  O47  1  0.68466000  0.39426000  0.60574000  1.0 -0.5094953113
O  O48  1  0.72995000  0.34885000  0.65115000  1.0 -0.5237603778
