# DDEC6 charges by PACMAN v1.1 (https://github.com/mtap-research/PACMAN-charge/)
data_KECLAJ_FSR_pacman
_symmetry_space_group_name_H-M   'P 1'
_cell_length_a   37.55860000
_cell_length_b   37.55860000
_cell_length_c   37.55860000
_cell_angle_alpha   90.00000000
_cell_angle_beta   90.00000000
_cell_angle_gamma   90.00000000
_symmetry_Int_Tables_number   1
_chemical_formula_structural   CuH10C20(NO2)2
_chemical_formula_sum   'Cu48 H480 C960 N96 O192'
_cell_volume   52981.98027173
_cell_formula_units_Z   48
loop_
 _symmetry_equiv_pos_site_id
 _symmetry_equiv_pos_as_xyz
  1  'x, y, z'
loop_
 _atom_site_type_symbol
 _atom_site_label
 _atom_site_symmetry_multiplicity
 _atom_site_fract_x
 _atom_site_fract_y
 _atom_site_fract_z
 _atom_site_occupancy
 _atom_site_charge
Cu  Cu1  1  0.63139000  0.60293000  0.44463000  1.0 0.7822546437
Cu  Cu2  1  0.68516000  0.64414000  0.41989000  1.0 0.7893657375
Cu  Cu3  1  0.86861000  0.39707000  0.94463000  1.0 0.7893657375
Cu  Cu4  1  0.81484000  0.35586000  0.91989000  1.0 0.7822546437
Cu  Cu5  1  0.36861000  0.10293000  0.05537000  1.0 0.7893657375
Cu  Cu6  1  0.31484000  0.14414000  0.08011000  1.0 0.7963210845
Cu  Cu7  1  0.13139000  0.89707000  0.55537000  1.0 0.7725027506
Cu  Cu8  1  0.18516000  0.85586000  0.58011000  1.0 0.7822546437
Cu  Cu9  1  0.44463000  0.63139000  0.60293000  1.0 0.7822546437
Cu  Cu10  1  0.41989000  0.68516000  0.64414000  1.0 0.7963210845
Cu  Cu11  1  0.94463000  0.86861000  0.39707000  1.0 0.7822546437
Cu  Cu12  1  0.91989000  0.81484000  0.35586000  1.0 0.7822546437
Cu  Cu13  1  0.05537000  0.36861000  0.10293000  1.0 0.7893657375
Cu  Cu14  1  0.08011000  0.31484000  0.14414000  1.0 0.7963210845
Cu  Cu15  1  0.55537000  0.13139000  0.89707000  1.0 0.7725027506
Cu  Cu16  1  0.58011000  0.18516000  0.85586000  1.0 0.7822546437
Cu  Cu17  1  0.60293000  0.44463000  0.63139000  1.0 0.7822546437
Cu  Cu18  1  0.64414000  0.41989000  0.68516000  1.0 0.7893657375
Cu  Cu19  1  0.39707000  0.94463000  0.86861000  1.0 0.7893657375
Cu  Cu20  1  0.35586000  0.91989000  0.81484000  1.0 0.7822546437
Cu  Cu21  1  0.10293000  0.05537000  0.36861000  1.0 0.7893657375
Cu  Cu22  1  0.14414000  0.08011000  0.31484000  1.0 0.7963210845
Cu  Cu23  1  0.89707000  0.55537000  0.13139000  1.0 0.7725027506
Cu  Cu24  1  0.85586000  0.58011000  0.18516000  1.0 0.7822546437
Cu  Cu25  1  0.36861000  0.39707000  0.55537000  1.0 0.7822546437
Cu  Cu26  1  0.31484000  0.35586000  0.58011000  1.0 0.7963210845
Cu  Cu27  1  0.13139000  0.60293000  0.05537000  1.0 0.7893657375
Cu  Cu28  1  0.18516000  0.64414000  0.08011000  1.0 0.7893657375
Cu  Cu29  1  0.63139000  0.89707000  0.94463000  1.0 0.7822546437
Cu  Cu30  1  0.68516000  0.85586000  0.91989000  1.0 0.7893657375
Cu  Cu31  1  0.86861000  0.10293000  0.44463000  1.0 0.7725027506
Cu  Cu32  1  0.81484000  0.14414000  0.41989000  1.0 0.7893657375
Cu  Cu33  1  0.55537000  0.36861000  0.39707000  1.0 0.7822546437
Cu  Cu34  1  0.58011000  0.31484000  0.35586000  1.0 0.7893657375
Cu  Cu35  1  0.05537000  0.13139000  0.60293000  1.0 0.7893657375
Cu  Cu36  1  0.08011000  0.18516000  0.64414000  1.0 0.7893657375
Cu  Cu37  1  0.94463000  0.63139000  0.89707000  1.0 0.7822546437
Cu  Cu38  1  0.91989000  0.68516000  0.85586000  1.0 0.7893657375
Cu  Cu39  1  0.44463000  0.86861000  0.10293000  1.0 0.7725027506
Cu  Cu40  1  0.41989000  0.81484000  0.14414000  1.0 0.7893657375
Cu  Cu41  1  0.39707000  0.55537000  0.36861000  1.0 0.7822546437
Cu  Cu42  1  0.35586000  0.58011000  0.31484000  1.0 0.7893657375
Cu  Cu43  1  0.60293000  0.05537000  0.13139000  1.0 0.7893657375
Cu  Cu44  1  0.64414000  0.08011000  0.18516000  1.0 0.7822546437
Cu  Cu45  1  0.89707000  0.94463000  0.63139000  1.0 0.7822546437
Cu  Cu46  1  0.85586000  0.91989000  0.68516000  1.0 0.7893657375
Cu  Cu47  1  0.10293000  0.44463000  0.86861000  1.0 0.7725027506
Cu  Cu48  1  0.14414000  0.41989000  0.81484000  1.0 0.7963210845
H  H1  1  0.63752000  0.88910000  0.53756000  1.0 0.112894188
H  H2  1  0.61020000  0.83944000  0.57048000  1.0 0.1205576175
H  H3  1  0.52772000  0.80938000  0.58747000  1.0 0.1205576175
H  H4  1  0.76459000  0.87467000  0.34472000  1.0 0.1205576175
H  H5  1  0.48603000  0.76626000  0.61562000  1.0 0.1205576175
H  H6  1  0.82358000  0.84821000  0.34407000  1.0 0.1261561039
H  H7  1  0.54147000  0.67902000  0.56474000  1.0 0.1261561039
H  H8  1  0.87176000  0.95145000  0.36033000  1.0 0.1261561039
H  H9  1  0.59215000  0.67171000  0.52446000  1.0 0.1261561039
H  H10  1  0.85180000  0.01187000  0.37335000  1.0 0.1261561039
H  H11  1  0.64612000  0.74004000  0.44823000  1.0 0.1205576175
H  H12  1  0.75223000  0.06859000  0.37484000  1.0 0.1205576175
H  H13  1  0.62044000  0.79294000  0.47748000  1.0 0.112894188
H  H14  1  0.71918000  0.01156000  0.36926000  1.0 0.1205576175
H  H15  1  0.69022000  0.93152000  0.33168000  1.0 0.1205576175
H  H16  1  0.64127000  0.90226000  0.36380000  1.0 0.112894188
H  H17  1  0.54584000  0.81397000  0.48070000  1.0 0.1261561039
H  H18  1  0.57456000  0.86032000  0.44615000  1.0 0.112894188
H  H19  1  0.75137000  0.93140000  0.42862000  1.0 0.1261561039
H  H20  1  0.69955000  0.90968000  0.46147000  1.0 0.112894188
H  H21  1  0.86248000  0.11090000  0.03756000  1.0 0.112894188
H  H22  1  0.88980000  0.16056000  0.07048000  1.0 0.1205576175
H  H23  1  0.97228000  0.19062000  0.08747000  1.0 0.1205576175
H  H24  1  0.73541000  0.12533000  0.84472000  1.0 0.1205576175
H  H25  1  0.01397000  0.23374000  0.11562000  1.0 0.1205576175
H  H26  1  0.67642000  0.15179000  0.84407000  1.0 0.1261561039
H  H27  1  0.95853000  0.32098000  0.06474000  1.0 0.1261561039
H  H28  1  0.62824000  0.04855000  0.86033000  1.0 0.1261561039
H  H29  1  0.90785000  0.32829000  0.02446000  1.0 0.1261561039
H  H30  1  0.64820000  0.98813000  0.87335000  1.0 0.1261561039
H  H31  1  0.85388000  0.25996000  0.94823000  1.0 0.1205576175
H  H32  1  0.74777000  0.93141000  0.87484000  1.0 0.1205576175
H  H33  1  0.87956000  0.20706000  0.97748000  1.0 0.112894188
H  H34  1  0.78082000  0.98844000  0.86926000  1.0 0.1205576175
H  H35  1  0.80978000  0.06848000  0.83168000  1.0 0.1205576175
H  H36  1  0.85873000  0.09774000  0.86380000  1.0 0.112894188
H  H37  1  0.95416000  0.18603000  0.98070000  1.0 0.1261561039
H  H38  1  0.92544000  0.13968000  0.94615000  1.0 0.112894188
H  H39  1  0.74863000  0.06860000  0.92862000  1.0 0.1261561039
H  H40  1  0.80045000  0.09032000  0.96147000  1.0 0.112894188
H  H41  1  0.36248000  0.38910000  0.96244000  1.0 0.112894188
H  H42  1  0.38980000  0.33944000  0.92952000  1.0 0.1205576175
H  H43  1  0.47228000  0.30938000  0.91253000  1.0 0.1205576175
H  H44  1  0.23541000  0.37467000  0.15528000  1.0 0.1205576175
H  H45  1  0.51397000  0.26626000  0.88438000  1.0 0.1205576175
H  H46  1  0.17642000  0.34821000  0.15593000  1.0 0.1261561039
H  H47  1  0.45853000  0.17902000  0.93526000  1.0 0.1261561039
H  H48  1  0.12824000  0.45145000  0.13967000  1.0 0.1261561039
H  H49  1  0.40785000  0.17171000  0.97554000  1.0 0.1261561039
H  H50  1  0.14820000  0.51187000  0.12665000  1.0 0.1261561039
H  H51  1  0.35388000  0.24004000  0.05177000  1.0 0.1205576175
H  H52  1  0.24777000  0.56859000  0.12516000  1.0 0.1205576175
H  H53  1  0.37956000  0.29294000  0.02252000  1.0 0.112894188
H  H54  1  0.28082000  0.51156000  0.13074000  1.0 0.1205576175
H  H55  1  0.30978000  0.43152000  0.16832000  1.0 0.1205576175
H  H56  1  0.35873000  0.40226000  0.13620000  1.0 0.112894188
H  H57  1  0.45416000  0.31397000  0.01930000  1.0 0.1261561039
H  H58  1  0.42544000  0.36032000  0.05385000  1.0 0.112894188
H  H59  1  0.24863000  0.43140000  0.07138000  1.0 0.1261561039
H  H60  1  0.30045000  0.40968000  0.03853000  1.0 0.112894188
H  H61  1  0.13752000  0.61090000  0.46244000  1.0 0.112894188
H  H62  1  0.11020000  0.66056000  0.42952000  1.0 0.1205576175
H  H63  1  0.02772000  0.69062000  0.41253000  1.0 0.1205576175
H  H64  1  0.26459000  0.62533000  0.65528000  1.0 0.1205576175
H  H65  1  0.98603000  0.73374000  0.38438000  1.0 0.1205576175
H  H66  1  0.32358000  0.65179000  0.65593000  1.0 0.1261561039
H  H67  1  0.04147000  0.82098000  0.43526000  1.0 0.1261561039
H  H68  1  0.37176000  0.54855000  0.63967000  1.0 0.1261561039
H  H69  1  0.09215000  0.82829000  0.47554000  1.0 0.1261561039
H  H70  1  0.35180000  0.48813000  0.62665000  1.0 0.1261561039
H  H71  1  0.14612000  0.75996000  0.55177000  1.0 0.1205576175
H  H72  1  0.25223000  0.43141000  0.62516000  1.0 0.1205576175
H  H73  1  0.12044000  0.70706000  0.52252000  1.0 0.112894188
H  H74  1  0.21918000  0.48844000  0.63074000  1.0 0.1205576175
H  H75  1  0.19022000  0.56848000  0.66832000  1.0 0.1205576175
H  H76  1  0.14127000  0.59774000  0.63620000  1.0 0.112894188
H  H77  1  0.04584000  0.68603000  0.51930000  1.0 0.1261561039
H  H78  1  0.07456000  0.63968000  0.55385000  1.0 0.112894188
H  H79  1  0.25137000  0.56860000  0.57138000  1.0 0.1261561039
H  H80  1  0.19955000  0.59032000  0.53853000  1.0 0.112894188
H  H81  1  0.53756000  0.63752000  0.88910000  1.0 0.112894188
H  H82  1  0.57048000  0.61020000  0.83944000  1.0 0.1205576175
H  H83  1  0.58747000  0.52772000  0.80938000  1.0 0.1205576175
H  H84  1  0.34472000  0.76459000  0.87467000  1.0 0.1205576175
H  H85  1  0.61562000  0.48603000  0.76626000  1.0 0.1205576175
H  H86  1  0.34407000  0.82358000  0.84821000  1.0 0.1261561039
H  H87  1  0.56474000  0.54147000  0.67902000  1.0 0.1261561039
H  H88  1  0.36033000  0.87176000  0.95145000  1.0 0.1261561039
H  H89  1  0.52446000  0.59215000  0.67171000  1.0 0.1261561039
H  H90  1  0.37335000  0.85180000  0.01187000  1.0 0.1261561039
H  H91  1  0.44823000  0.64612000  0.74004000  1.0 0.1205576175
H  H92  1  0.37484000  0.75223000  0.06859000  1.0 0.1205576175
H  H93  1  0.47748000  0.62044000  0.79294000  1.0 0.112894188
H  H94  1  0.36926000  0.71918000  0.01156000  1.0 0.1205576175
H  H95  1  0.33168000  0.69022000  0.93152000  1.0 0.1205576175
H  H96  1  0.36380000  0.64127000  0.90226000  1.0 0.112894188
H  H97  1  0.48070000  0.54584000  0.81397000  1.0 0.1261561039
H  H98  1  0.44615000  0.57456000  0.86032000  1.0 0.112894188
H  H99  1  0.42862000  0.75137000  0.93140000  1.0 0.1261561039
H  H100  1  0.46147000  0.69955000  0.90968000  1.0 0.112894188
H  H101  1  0.03756000  0.86248000  0.11090000  1.0 0.112894188
H  H102  1  0.07048000  0.88980000  0.16056000  1.0 0.1205576175
H  H103  1  0.08747000  0.97228000  0.19062000  1.0 0.1205576175
H  H104  1  0.84472000  0.73541000  0.12533000  1.0 0.1205576175
H  H105  1  0.11562000  0.01397000  0.23374000  1.0 0.1205576175
H  H106  1  0.84407000  0.67642000  0.15179000  1.0 0.1261561039
H  H107  1  0.06474000  0.95853000  0.32098000  1.0 0.1261561039
H  H108  1  0.86033000  0.62824000  0.04855000  1.0 0.1261561039
H  H109  1  0.02446000  0.90785000  0.32829000  1.0 0.1261561039
H  H110  1  0.87335000  0.64820000  0.98813000  1.0 0.1261561039
H  H111  1  0.94823000  0.85388000  0.25996000  1.0 0.1205576175
H  H112  1  0.87484000  0.74777000  0.93141000  1.0 0.1205576175
H  H113  1  0.97748000  0.87956000  0.20706000  1.0 0.112894188
H  H114  1  0.86926000  0.78082000  0.98844000  1.0 0.1205576175
H  H115  1  0.83168000  0.80978000  0.06848000  1.0 0.1205576175
H  H116  1  0.86380000  0.85873000  0.09774000  1.0 0.112894188
H  H117  1  0.98070000  0.95416000  0.18603000  1.0 0.1261561039
H  H118  1  0.94615000  0.92544000  0.13968000  1.0 0.112894188
H  H119  1  0.92862000  0.74863000  0.06860000  1.0 0.1261561039
H  H120  1  0.96147000  0.80045000  0.09032000  1.0 0.112894188
H  H121  1  0.96244000  0.36248000  0.38910000  1.0 0.112894188
H  H122  1  0.92952000  0.38980000  0.33944000  1.0 0.1205576175
H  H123  1  0.91253000  0.47228000  0.30938000  1.0 0.1205576175
H  H124  1  0.15528000  0.23541000  0.37467000  1.0 0.1205576175
H  H125  1  0.88438000  0.51397000  0.26626000  1.0 0.1205576175
H  H126  1  0.15593000  0.17642000  0.34821000  1.0 0.1261561039
H  H127  1  0.93526000  0.45853000  0.17902000  1.0 0.1261561039
H  H128  1  0.13967000  0.12824000  0.45145000  1.0 0.1261561039
H  H129  1  0.97554000  0.40785000  0.17171000  1.0 0.1261561039
H  H130  1  0.12665000  0.14820000  0.51187000  1.0 0.1261561039
H  H131  1  0.05177000  0.35388000  0.24004000  1.0 0.1205576175
H  H132  1  0.12516000  0.24777000  0.56859000  1.0 0.1205576175
H  H133  1  0.02252000  0.37956000  0.29294000  1.0 0.112894188
H  H134  1  0.13074000  0.28082000  0.51156000  1.0 0.1205576175
H  H135  1  0.16832000  0.30978000  0.43152000  1.0 0.1205576175
H  H136  1  0.13620000  0.35873000  0.40226000  1.0 0.112894188
H  H137  1  0.01930000  0.45416000  0.31397000  1.0 0.1261561039
H  H138  1  0.05385000  0.42544000  0.36032000  1.0 0.112894188
H  H139  1  0.07138000  0.24863000  0.43140000  1.0 0.1261561039
H  H140  1  0.03853000  0.30045000  0.40968000  1.0 0.112894188
H  H141  1  0.46244000  0.13752000  0.61090000  1.0 0.112894188
H  H142  1  0.42952000  0.11020000  0.66056000  1.0 0.1205576175
H  H143  1  0.41253000  0.02772000  0.69062000  1.0 0.1205576175
H  H144  1  0.65528000  0.26459000  0.62533000  1.0 0.1205576175
H  H145  1  0.38438000  0.98603000  0.73374000  1.0 0.1205576175
H  H146  1  0.65593000  0.32358000  0.65179000  1.0 0.1261561039
H  H147  1  0.43526000  0.04147000  0.82098000  1.0 0.1261561039
H  H148  1  0.63967000  0.37176000  0.54855000  1.0 0.1261561039
H  H149  1  0.47554000  0.09215000  0.82829000  1.0 0.1261561039
H  H150  1  0.62665000  0.35180000  0.48813000  1.0 0.1261561039
H  H151  1  0.55177000  0.14612000  0.75996000  1.0 0.1205576175
H  H152  1  0.62516000  0.25223000  0.43141000  1.0 0.1205576175
H  H153  1  0.52252000  0.12044000  0.70706000  1.0 0.112894188
H  H154  1  0.63074000  0.21918000  0.48844000  1.0 0.1205576175
H  H155  1  0.66832000  0.19022000  0.56848000  1.0 0.1205576175
H  H156  1  0.63620000  0.14127000  0.59774000  1.0 0.112894188
H  H157  1  0.51930000  0.04584000  0.68603000  1.0 0.1261561039
H  H158  1  0.55385000  0.07456000  0.63968000  1.0 0.112894188
H  H159  1  0.57138000  0.25137000  0.56860000  1.0 0.1261561039
H  H160  1  0.53853000  0.19955000  0.59032000  1.0 0.112894188
H  H161  1  0.88910000  0.53756000  0.63752000  1.0 0.112894188
H  H162  1  0.83944000  0.57048000  0.61020000  1.0 0.1205576175
H  H163  1  0.80938000  0.58747000  0.52772000  1.0 0.1205576175
H  H164  1  0.87467000  0.34472000  0.76459000  1.0 0.1205576175
H  H165  1  0.76626000  0.61562000  0.48603000  1.0 0.1205576175
H  H166  1  0.84821000  0.34407000  0.82358000  1.0 0.1261561039
H  H167  1  0.67902000  0.56474000  0.54147000  1.0 0.1261561039
H  H168  1  0.95145000  0.36033000  0.87176000  1.0 0.1261561039
H  H169  1  0.67171000  0.52446000  0.59215000  1.0 0.1261561039
H  H170  1  0.01187000  0.37335000  0.85180000  1.0 0.1261561039
H  H171  1  0.74004000  0.44823000  0.64612000  1.0 0.1205576175
H  H172  1  0.06859000  0.37484000  0.75223000  1.0 0.1205576175
H  H173  1  0.79294000  0.47748000  0.62044000  1.0 0.112894188
H  H174  1  0.01156000  0.36926000  0.71918000  1.0 0.1205576175
H  H175  1  0.93152000  0.33168000  0.69022000  1.0 0.1205576175
H  H176  1  0.90226000  0.36380000  0.64127000  1.0 0.112894188
H  H177  1  0.81397000  0.48070000  0.54584000  1.0 0.1261561039
H  H178  1  0.86032000  0.44615000  0.57456000  1.0 0.112894188
H  H179  1  0.93140000  0.42862000  0.75137000  1.0 0.1261561039
H  H180  1  0.90968000  0.46147000  0.69955000  1.0 0.112894188
H  H181  1  0.11090000  0.03756000  0.86248000  1.0 0.112894188
H  H182  1  0.16056000  0.07048000  0.88980000  1.0 0.1205576175
H  H183  1  0.19062000  0.08747000  0.97228000  1.0 0.1205576175
H  H184  1  0.12533000  0.84472000  0.73541000  1.0 0.1205576175
H  H185  1  0.23374000  0.11562000  0.01397000  1.0 0.1205576175
H  H186  1  0.15179000  0.84407000  0.67642000  1.0 0.1261561039
H  H187  1  0.32098000  0.06474000  0.95853000  1.0 0.1261561039
H  H188  1  0.04855000  0.86033000  0.62824000  1.0 0.1261561039
H  H189  1  0.32829000  0.02446000  0.90785000  1.0 0.1261561039
H  H190  1  0.98813000  0.87335000  0.64820000  1.0 0.1261561039
H  H191  1  0.25996000  0.94823000  0.85388000  1.0 0.1205576175
H  H192  1  0.93141000  0.87484000  0.74777000  1.0 0.1205576175
H  H193  1  0.20706000  0.97748000  0.87956000  1.0 0.112894188
H  H194  1  0.98844000  0.86926000  0.78082000  1.0 0.1205576175
H  H195  1  0.06848000  0.83168000  0.80978000  1.0 0.1205576175
H  H196  1  0.09774000  0.86380000  0.85873000  1.0 0.112894188
H  H197  1  0.18603000  0.98070000  0.95416000  1.0 0.1261561039
H  H198  1  0.13968000  0.94615000  0.92544000  1.0 0.112894188
H  H199  1  0.06860000  0.92862000  0.74863000  1.0 0.1261561039
H  H200  1  0.09032000  0.96147000  0.80045000  1.0 0.112894188
H  H201  1  0.38910000  0.96244000  0.36248000  1.0 0.112894188
H  H202  1  0.33944000  0.92952000  0.38980000  1.0 0.1205576175
H  H203  1  0.30938000  0.91253000  0.47228000  1.0 0.1205576175
H  H204  1  0.37467000  0.15528000  0.23541000  1.0 0.1205576175
H  H205  1  0.26626000  0.88438000  0.51397000  1.0 0.1205576175
H  H206  1  0.34821000  0.15593000  0.17642000  1.0 0.1261561039
H  H207  1  0.17902000  0.93526000  0.45853000  1.0 0.1261561039
H  H208  1  0.45145000  0.13967000  0.12824000  1.0 0.1261561039
H  H209  1  0.17171000  0.97554000  0.40785000  1.0 0.1261561039
H  H210  1  0.51187000  0.12665000  0.14820000  1.0 0.1261561039
H  H211  1  0.24004000  0.05177000  0.35388000  1.0 0.1205576175
H  H212  1  0.56859000  0.12516000  0.24777000  1.0 0.1205576175
H  H213  1  0.29294000  0.02252000  0.37956000  1.0 0.112894188
H  H214  1  0.51156000  0.13074000  0.28082000  1.0 0.1205576175
H  H215  1  0.43152000  0.16832000  0.30978000  1.0 0.1205576175
H  H216  1  0.40226000  0.13620000  0.35873000  1.0 0.112894188
H  H217  1  0.31397000  0.01930000  0.45416000  1.0 0.1261561039
H  H218  1  0.36032000  0.05385000  0.42544000  1.0 0.112894188
H  H219  1  0.43140000  0.07138000  0.24863000  1.0 0.1261561039
H  H220  1  0.40968000  0.03853000  0.30045000  1.0 0.112894188
H  H221  1  0.61090000  0.46244000  0.13752000  1.0 0.112894188
H  H222  1  0.66056000  0.42952000  0.11020000  1.0 0.1205576175
H  H223  1  0.69062000  0.41253000  0.02772000  1.0 0.1205576175
H  H224  1  0.62533000  0.65528000  0.26459000  1.0 0.1205576175
H  H225  1  0.73374000  0.38438000  0.98603000  1.0 0.1205576175
H  H226  1  0.65179000  0.65593000  0.32358000  1.0 0.1261561039
H  H227  1  0.82098000  0.43526000  0.04147000  1.0 0.1261561039
H  H228  1  0.54855000  0.63967000  0.37176000  1.0 0.1261561039
H  H229  1  0.82829000  0.47554000  0.09215000  1.0 0.1261561039
H  H230  1  0.48813000  0.62665000  0.35180000  1.0 0.1261561039
H  H231  1  0.75996000  0.55177000  0.14612000  1.0 0.1205576175
H  H232  1  0.43141000  0.62516000  0.25223000  1.0 0.1205576175
H  H233  1  0.70706000  0.52252000  0.12044000  1.0 0.112894188
H  H234  1  0.48844000  0.63074000  0.21918000  1.0 0.1205576175
H  H235  1  0.56848000  0.66832000  0.19022000  1.0 0.1205576175
H  H236  1  0.59774000  0.63620000  0.14127000  1.0 0.112894188
H  H237  1  0.68603000  0.51930000  0.04584000  1.0 0.1261561039
H  H238  1  0.63968000  0.55385000  0.07456000  1.0 0.112894188
H  H239  1  0.56860000  0.57138000  0.25137000  1.0 0.1261561039
H  H240  1  0.59032000  0.53853000  0.19955000  1.0 0.112894188
H  H241  1  0.36248000  0.11090000  0.46244000  1.0 0.112894188
H  H242  1  0.38980000  0.16056000  0.42952000  1.0 0.1205576175
H  H243  1  0.47228000  0.19062000  0.41253000  1.0 0.1205576175
H  H244  1  0.23541000  0.12533000  0.65528000  1.0 0.1205576175
H  H245  1  0.51397000  0.23374000  0.38438000  1.0 0.1205576175
H  H246  1  0.17642000  0.15179000  0.65593000  1.0 0.1261561039
H  H247  1  0.45853000  0.32098000  0.43526000  1.0 0.1261561039
H  H248  1  0.12824000  0.04855000  0.63967000  1.0 0.1261561039
H  H249  1  0.40785000  0.32829000  0.47554000  1.0 0.1261561039
H  H250  1  0.14820000  0.98813000  0.62665000  1.0 0.1261561039
H  H251  1  0.35388000  0.25996000  0.55177000  1.0 0.1205576175
H  H252  1  0.24777000  0.93141000  0.62516000  1.0 0.1205576175
H  H253  1  0.37956000  0.20706000  0.52252000  1.0 0.112894188
H  H254  1  0.28082000  0.98844000  0.63074000  1.0 0.1205576175
H  H255  1  0.30978000  0.06848000  0.66832000  1.0 0.1205576175
H  H256  1  0.35873000  0.09774000  0.63620000  1.0 0.112894188
H  H257  1  0.45416000  0.18603000  0.51930000  1.0 0.1261561039
H  H258  1  0.42544000  0.13968000  0.55385000  1.0 0.112894188
H  H259  1  0.24863000  0.06860000  0.57138000  1.0 0.1261561039
H  H260  1  0.30045000  0.09032000  0.53853000  1.0 0.112894188
H  H261  1  0.13752000  0.88910000  0.96244000  1.0 0.112894188
H  H262  1  0.11020000  0.83944000  0.92952000  1.0 0.1205576175
H  H263  1  0.02772000  0.80938000  0.91253000  1.0 0.1205576175
H  H264  1  0.26459000  0.87467000  0.15528000  1.0 0.1205576175
H  H265  1  0.98603000  0.76626000  0.88438000  1.0 0.1205576175
H  H266  1  0.32358000  0.84821000  0.15593000  1.0 0.1261561039
H  H267  1  0.04147000  0.67902000  0.93526000  1.0 0.1261561039
H  H268  1  0.37176000  0.95145000  0.13967000  1.0 0.1261561039
H  H269  1  0.09215000  0.67171000  0.97554000  1.0 0.1261561039
H  H270  1  0.35180000  0.01187000  0.12665000  1.0 0.1261561039
H  H271  1  0.14612000  0.74004000  0.05177000  1.0 0.1205576175
H  H272  1  0.25223000  0.06859000  0.12516000  1.0 0.1205576175
H  H273  1  0.12044000  0.79294000  0.02252000  1.0 0.112894188
H  H274  1  0.21918000  0.01156000  0.13074000  1.0 0.1205576175
H  H275  1  0.19022000  0.93152000  0.16832000  1.0 0.1205576175
H  H276  1  0.14127000  0.90226000  0.13620000  1.0 0.112894188
H  H277  1  0.04584000  0.81397000  0.01930000  1.0 0.1261561039
H  H278  1  0.07456000  0.86032000  0.05385000  1.0 0.112894188
H  H279  1  0.25137000  0.93140000  0.07138000  1.0 0.1261561039
H  H280  1  0.19955000  0.90968000  0.03853000  1.0 0.112894188
H  H281  1  0.63752000  0.61090000  0.03756000  1.0 0.112894188
H  H282  1  0.61020000  0.66056000  0.07048000  1.0 0.1205576175
H  H283  1  0.52772000  0.69062000  0.08747000  1.0 0.1205576175
H  H284  1  0.76459000  0.62533000  0.84472000  1.0 0.1205576175
H  H285  1  0.48603000  0.73374000  0.11562000  1.0 0.1205576175
H  H286  1  0.82358000  0.65179000  0.84407000  1.0 0.1261561039
H  H287  1  0.54147000  0.82098000  0.06474000  1.0 0.1261561039
H  H288  1  0.87176000  0.54855000  0.86033000  1.0 0.1261561039
H  H289  1  0.59215000  0.82829000  0.02446000  1.0 0.1261561039
H  H290  1  0.85180000  0.48813000  0.87335000  1.0 0.1261561039
H  H291  1  0.64612000  0.75996000  0.94823000  1.0 0.1205576175
H  H292  1  0.75223000  0.43141000  0.87484000  1.0 0.1205576175
H  H293  1  0.62044000  0.70706000  0.97748000  1.0 0.112894188
H  H294  1  0.71918000  0.48844000  0.86926000  1.0 0.1205576175
H  H295  1  0.69022000  0.56848000  0.83168000  1.0 0.1205576175
H  H296  1  0.64127000  0.59774000  0.86380000  1.0 0.112894188
H  H297  1  0.54584000  0.68603000  0.98070000  1.0 0.1261561039
H  H298  1  0.57456000  0.63968000  0.94615000  1.0 0.112894188
H  H299  1  0.75137000  0.56860000  0.92862000  1.0 0.1261561039
H  H300  1  0.69955000  0.59032000  0.96147000  1.0 0.112894188
H  H301  1  0.86248000  0.38910000  0.53756000  1.0 0.112894188
H  H302  1  0.88980000  0.33944000  0.57048000  1.0 0.1205576175
H  H303  1  0.97228000  0.30938000  0.58747000  1.0 0.1205576175
H  H304  1  0.73541000  0.37467000  0.34472000  1.0 0.1205576175
H  H305  1  0.01397000  0.26626000  0.61562000  1.0 0.1205576175
H  H306  1  0.67642000  0.34821000  0.34407000  1.0 0.1261561039
H  H307  1  0.95853000  0.17902000  0.56474000  1.0 0.1261561039
H  H308  1  0.62824000  0.45145000  0.36033000  1.0 0.1261561039
H  H309  1  0.90785000  0.17171000  0.52446000  1.0 0.1261561039
H  H310  1  0.64820000  0.51187000  0.37335000  1.0 0.1261561039
H  H311  1  0.85388000  0.24004000  0.44823000  1.0 0.1205576175
H  H312  1  0.74777000  0.56859000  0.37484000  1.0 0.1205576175
H  H313  1  0.87956000  0.29294000  0.47748000  1.0 0.112894188
H  H314  1  0.78082000  0.51156000  0.36926000  1.0 0.1205576175
H  H315  1  0.80978000  0.43152000  0.33168000  1.0 0.1205576175
H  H316  1  0.85873000  0.40226000  0.36380000  1.0 0.112894188
H  H317  1  0.95416000  0.31397000  0.48070000  1.0 0.1261561039
H  H318  1  0.92544000  0.36032000  0.44615000  1.0 0.112894188
H  H319  1  0.74863000  0.43140000  0.42862000  1.0 0.1261561039
H  H320  1  0.80045000  0.40968000  0.46147000  1.0 0.112894188
H  H321  1  0.46244000  0.36248000  0.11090000  1.0 0.112894188
H  H322  1  0.42952000  0.38980000  0.16056000  1.0 0.1205576175
H  H323  1  0.41253000  0.47228000  0.19062000  1.0 0.1205576175
H  H324  1  0.65528000  0.23541000  0.12533000  1.0 0.1205576175
H  H325  1  0.38438000  0.51397000  0.23374000  1.0 0.1205576175
H  H326  1  0.65593000  0.17642000  0.15179000  1.0 0.1261561039
H  H327  1  0.43526000  0.45853000  0.32098000  1.0 0.1261561039
H  H328  1  0.63967000  0.12824000  0.04855000  1.0 0.1261561039
H  H329  1  0.47554000  0.40785000  0.32829000  1.0 0.1261561039
H  H330  1  0.62665000  0.14820000  0.98813000  1.0 0.1261561039
H  H331  1  0.55177000  0.35388000  0.25996000  1.0 0.1205576175
H  H332  1  0.62516000  0.24777000  0.93141000  1.0 0.1205576175
H  H333  1  0.52252000  0.37956000  0.20706000  1.0 0.112894188
H  H334  1  0.63074000  0.28082000  0.98844000  1.0 0.1205576175
H  H335  1  0.66832000  0.30978000  0.06848000  1.0 0.1205576175
H  H336  1  0.63620000  0.35873000  0.09774000  1.0 0.112894188
H  H337  1  0.51930000  0.45416000  0.18603000  1.0 0.1261561039
H  H338  1  0.55385000  0.42544000  0.13968000  1.0 0.112894188
H  H339  1  0.57138000  0.24863000  0.06860000  1.0 0.1261561039
H  H340  1  0.53853000  0.30045000  0.09032000  1.0 0.112894188
H  H341  1  0.96244000  0.13752000  0.88910000  1.0 0.112894188
H  H342  1  0.92952000  0.11020000  0.83944000  1.0 0.1205576175
H  H343  1  0.91253000  0.02772000  0.80938000  1.0 0.1205576175
H  H344  1  0.15528000  0.26459000  0.87467000  1.0 0.1205576175
H  H345  1  0.88438000  0.98603000  0.76626000  1.0 0.1205576175
H  H346  1  0.15593000  0.32358000  0.84821000  1.0 0.1261561039
H  H347  1  0.93526000  0.04147000  0.67902000  1.0 0.1261561039
H  H348  1  0.13967000  0.37176000  0.95145000  1.0 0.1261561039
H  H349  1  0.97554000  0.09215000  0.67171000  1.0 0.1261561039
H  H350  1  0.12665000  0.35180000  0.01187000  1.0 0.1261561039
H  H351  1  0.05177000  0.14612000  0.74004000  1.0 0.1205576175
H  H352  1  0.12516000  0.25223000  0.06859000  1.0 0.1205576175
H  H353  1  0.02252000  0.12044000  0.79294000  1.0 0.112894188
H  H354  1  0.13074000  0.21918000  0.01156000  1.0 0.1205576175
H  H355  1  0.16832000  0.19022000  0.93152000  1.0 0.1205576175
H  H356  1  0.13620000  0.14127000  0.90226000  1.0 0.112894188
H  H357  1  0.01930000  0.04584000  0.81397000  1.0 0.1261561039
H  H358  1  0.05385000  0.07456000  0.86032000  1.0 0.112894188
H  H359  1  0.07138000  0.25137000  0.93140000  1.0 0.1261561039
H  H360  1  0.03853000  0.19955000  0.90968000  1.0 0.112894188
H  H361  1  0.03756000  0.63752000  0.61090000  1.0 0.112894188
H  H362  1  0.07048000  0.61020000  0.66056000  1.0 0.1205576175
H  H363  1  0.08747000  0.52772000  0.69062000  1.0 0.1205576175
H  H364  1  0.84472000  0.76459000  0.62533000  1.0 0.1205576175
H  H365  1  0.11562000  0.48603000  0.73374000  1.0 0.1205576175
H  H366  1  0.84407000  0.82358000  0.65179000  1.0 0.1261561039
H  H367  1  0.06474000  0.54147000  0.82098000  1.0 0.1261561039
H  H368  1  0.86033000  0.87176000  0.54855000  1.0 0.1261561039
H  H369  1  0.02446000  0.59215000  0.82829000  1.0 0.1261561039
H  H370  1  0.87335000  0.85180000  0.48813000  1.0 0.1261561039
H  H371  1  0.94823000  0.64612000  0.75996000  1.0 0.1205576175
H  H372  1  0.87484000  0.75223000  0.43141000  1.0 0.1205576175
H  H373  1  0.97748000  0.62044000  0.70706000  1.0 0.112894188
H  H374  1  0.86926000  0.71918000  0.48844000  1.0 0.1205576175
H  H375  1  0.83168000  0.69022000  0.56848000  1.0 0.1205576175
H  H376  1  0.86380000  0.64127000  0.59774000  1.0 0.112894188
H  H377  1  0.98070000  0.54584000  0.68603000  1.0 0.1261561039
H  H378  1  0.94615000  0.57456000  0.63968000  1.0 0.112894188
H  H379  1  0.92862000  0.75137000  0.56860000  1.0 0.1261561039
H  H380  1  0.96147000  0.69955000  0.59032000  1.0 0.112894188
H  H381  1  0.53756000  0.86248000  0.38910000  1.0 0.112894188
H  H382  1  0.57048000  0.88980000  0.33944000  1.0 0.1205576175
H  H383  1  0.58747000  0.97228000  0.30938000  1.0 0.1205576175
H  H384  1  0.34472000  0.73541000  0.37467000  1.0 0.1205576175
H  H385  1  0.61562000  0.01397000  0.26626000  1.0 0.1205576175
H  H386  1  0.34407000  0.67642000  0.34821000  1.0 0.1261561039
H  H387  1  0.56474000  0.95853000  0.17902000  1.0 0.1261561039
H  H388  1  0.36033000  0.62824000  0.45145000  1.0 0.1261561039
H  H389  1  0.52446000  0.90785000  0.17171000  1.0 0.1261561039
H  H390  1  0.37335000  0.64820000  0.51187000  1.0 0.1261561039
H  H391  1  0.44823000  0.85388000  0.24004000  1.0 0.1205576175
H  H392  1  0.37484000  0.74777000  0.56859000  1.0 0.1205576175
H  H393  1  0.47748000  0.87956000  0.29294000  1.0 0.112894188
H  H394  1  0.36926000  0.78082000  0.51156000  1.0 0.1205576175
H  H395  1  0.33168000  0.80978000  0.43152000  1.0 0.1205576175
H  H396  1  0.36380000  0.85873000  0.40226000  1.0 0.112894188
H  H397  1  0.48070000  0.95416000  0.31397000  1.0 0.1261561039
H  H398  1  0.44615000  0.92544000  0.36032000  1.0 0.112894188
H  H399  1  0.42862000  0.74863000  0.43140000  1.0 0.1261561039
H  H400  1  0.46147000  0.80045000  0.40968000  1.0 0.112894188
H  H401  1  0.11090000  0.46244000  0.36248000  1.0 0.112894188
H  H402  1  0.16056000  0.42952000  0.38980000  1.0 0.1205576175
H  H403  1  0.19062000  0.41253000  0.47228000  1.0 0.1205576175
H  H404  1  0.12533000  0.65528000  0.23541000  1.0 0.1205576175
H  H405  1  0.23374000  0.38438000  0.51397000  1.0 0.1205576175
H  H406  1  0.15179000  0.65593000  0.17642000  1.0 0.1261561039
H  H407  1  0.32098000  0.43526000  0.45853000  1.0 0.1261561039
H  H408  1  0.04855000  0.63967000  0.12824000  1.0 0.1261561039
H  H409  1  0.32829000  0.47554000  0.40785000  1.0 0.1261561039
H  H410  1  0.98813000  0.62665000  0.14820000  1.0 0.1261561039
H  H411  1  0.25996000  0.55177000  0.35388000  1.0 0.1205576175
H  H412  1  0.93141000  0.62516000  0.24777000  1.0 0.1205576175
H  H413  1  0.20706000  0.52252000  0.37956000  1.0 0.112894188
H  H414  1  0.98844000  0.63074000  0.28082000  1.0 0.1205576175
H  H415  1  0.06848000  0.66832000  0.30978000  1.0 0.1205576175
H  H416  1  0.09774000  0.63620000  0.35873000  1.0 0.112894188
H  H417  1  0.18603000  0.51930000  0.45416000  1.0 0.1261561039
H  H418  1  0.13968000  0.55385000  0.42544000  1.0 0.112894188
H  H419  1  0.06860000  0.57138000  0.24863000  1.0 0.1261561039
H  H420  1  0.09032000  0.53853000  0.30045000  1.0 0.112894188
H  H421  1  0.88910000  0.96244000  0.13752000  1.0 0.112894188
H  H422  1  0.83944000  0.92952000  0.11020000  1.0 0.1205576175
H  H423  1  0.80938000  0.91253000  0.02772000  1.0 0.1205576175
H  H424  1  0.87467000  0.15528000  0.26459000  1.0 0.1205576175
H  H425  1  0.76626000  0.88438000  0.98603000  1.0 0.1205576175
H  H426  1  0.84821000  0.15593000  0.32358000  1.0 0.1261561039
H  H427  1  0.67902000  0.93526000  0.04147000  1.0 0.1261561039
H  H428  1  0.95145000  0.13967000  0.37176000  1.0 0.1261561039
H  H429  1  0.67171000  0.97554000  0.09215000  1.0 0.1261561039
H  H430  1  0.01187000  0.12665000  0.35180000  1.0 0.1261561039
H  H431  1  0.74004000  0.05177000  0.14612000  1.0 0.1205576175
H  H432  1  0.06859000  0.12516000  0.25223000  1.0 0.1205576175
H  H433  1  0.79294000  0.02252000  0.12044000  1.0 0.112894188
H  H434  1  0.01156000  0.13074000  0.21918000  1.0 0.1205576175
H  H435  1  0.93152000  0.16832000  0.19022000  1.0 0.1205576175
H  H436  1  0.90226000  0.13620000  0.14127000  1.0 0.112894188
H  H437  1  0.81397000  0.01930000  0.04584000  1.0 0.1261561039
H  H438  1  0.86032000  0.05385000  0.07456000  1.0 0.112894188
H  H439  1  0.93140000  0.07138000  0.25137000  1.0 0.1261561039
H  H440  1  0.90968000  0.03853000  0.19955000  1.0 0.112894188
H  H441  1  0.61090000  0.03756000  0.63752000  1.0 0.112894188
H  H442  1  0.66056000  0.07048000  0.61020000  1.0 0.1205576175
H  H443  1  0.69062000  0.08747000  0.52772000  1.0 0.1205576175
H  H444  1  0.62533000  0.84472000  0.76459000  1.0 0.1205576175
H  H445  1  0.73374000  0.11562000  0.48603000  1.0 0.1205576175
H  H446  1  0.65179000  0.84407000  0.82358000  1.0 0.1261561039
H  H447  1  0.82098000  0.06474000  0.54147000  1.0 0.1261561039
H  H448  1  0.54855000  0.86033000  0.87176000  1.0 0.1261561039
H  H449  1  0.82829000  0.02446000  0.59215000  1.0 0.1261561039
H  H450  1  0.48813000  0.87335000  0.85180000  1.0 0.1261561039
H  H451  1  0.75996000  0.94823000  0.64612000  1.0 0.1205576175
H  H452  1  0.43141000  0.87484000  0.75223000  1.0 0.1205576175
H  H453  1  0.70706000  0.97748000  0.62044000  1.0 0.112894188
H  H454  1  0.48844000  0.86926000  0.71918000  1.0 0.1205576175
H  H455  1  0.56848000  0.83168000  0.69022000  1.0 0.1205576175
H  H456  1  0.59774000  0.86380000  0.64127000  1.0 0.112894188
H  H457  1  0.68603000  0.98070000  0.54584000  1.0 0.1261561039
H  H458  1  0.63968000  0.94615000  0.57456000  1.0 0.112894188
H  H459  1  0.56860000  0.92862000  0.75137000  1.0 0.1261561039
H  H460  1  0.59032000  0.96147000  0.69955000  1.0 0.112894188
H  H461  1  0.38910000  0.53756000  0.86248000  1.0 0.112894188
H  H462  1  0.33944000  0.57048000  0.88980000  1.0 0.1205576175
H  H463  1  0.30938000  0.58747000  0.97228000  1.0 0.1205576175
H  H464  1  0.37467000  0.34472000  0.73541000  1.0 0.1205576175
H  H465  1  0.26626000  0.61562000  0.01397000  1.0 0.1205576175
H  H466  1  0.34821000  0.34407000  0.67642000  1.0 0.1261561039
H  H467  1  0.17902000  0.56474000  0.95853000  1.0 0.1261561039
H  H468  1  0.45145000  0.36033000  0.62824000  1.0 0.1261561039
H  H469  1  0.17171000  0.52446000  0.90785000  1.0 0.1261561039
H  H470  1  0.51187000  0.37335000  0.64820000  1.0 0.1261561039
H  H471  1  0.24004000  0.44823000  0.85388000  1.0 0.1205576175
H  H472  1  0.56859000  0.37484000  0.74777000  1.0 0.1205576175
H  H473  1  0.29294000  0.47748000  0.87956000  1.0 0.112894188
H  H474  1  0.51156000  0.36926000  0.78082000  1.0 0.1205576175
H  H475  1  0.43152000  0.33168000  0.80978000  1.0 0.1205576175
H  H476  1  0.40226000  0.36380000  0.85873000  1.0 0.112894188
H  H477  1  0.31397000  0.48070000  0.95416000  1.0 0.1261561039
H  H478  1  0.36032000  0.44615000  0.92544000  1.0 0.112894188
H  H479  1  0.43140000  0.42862000  0.74863000  1.0 0.1261561039
H  H480  1  0.40968000  0.46147000  0.80045000  1.0 0.112894188
C  C1  1  0.61663000  0.87357000  0.52530000  1.0 -0.1484745522
C  C2  1  0.60060000  0.84596000  0.54436000  1.0 -0.1484745522
C  C3  1  0.55624000  0.76804000  0.56042000  1.0 0.112894188
C  C4  1  0.78480000  0.92869000  0.35146000  1.0 0.112894188
C  C5  1  0.53060000  0.78115000  0.58344000  1.0 -0.188384117
C  C6  1  0.78736000  0.89179000  0.34752000  1.0 -0.1835953508
C  C7  1  0.50756000  0.75648000  0.59965000  1.0 -0.0897949137
C  C8  1  0.82106000  0.87656000  0.34747000  1.0 -0.0897949137
C  C9  1  0.51034000  0.71952000  0.59225000  1.0 -0.0272966449
C  C10  1  0.85138000  0.89775000  0.35300000  1.0 -0.0187440113
C  C11  1  0.48247000  0.69490000  0.60677000  1.0 0.6067858541
C  C12  1  0.88529000  0.87796000  0.35955000  1.0 0.5843264853
C  C13  1  0.53888000  0.70691000  0.57169000  1.0 -0.1333517212
C  C14  1  0.84868000  0.93480000  0.35560000  1.0 -0.1384390009
C  C15  1  0.56060000  0.73193000  0.55572000  1.0 -0.0187440113
C  C16  1  0.81500000  0.94932000  0.35363000  1.0 -0.0187440113
C  C17  1  0.58410000  0.72785000  0.52850000  1.0 -0.0187440113
C  C18  1  0.80405000  0.98310000  0.35984000  1.0 -0.0137616532
C  C19  1  0.59753000  0.69756000  0.51279000  1.0 -0.1172157972
C  C20  1  0.82314000  0.01293000  0.37026000  1.0 -0.1384390009
C  C21  1  0.63709000  0.67142000  0.46635000  1.0 0.5870359687
C  C22  1  0.82003000  0.07519000  0.39630000  1.0 0.6029158112
C  C23  1  0.62241000  0.70224000  0.48527000  1.0 -0.0455805899
C  C24  1  0.80370000  0.04373000  0.37842000  1.0 -0.0272966449
C  C25  1  0.62822000  0.73646000  0.47050000  1.0 -0.0757062147
C  C26  1  0.76658000  0.04415000  0.37282000  1.0 -0.0897949137
C  C27  1  0.61412000  0.76658000  0.48717000  1.0 -0.188384117
C  C28  1  0.74784000  0.01232000  0.36778000  1.0 -0.188384117
C  C29  1  0.59303000  0.76138000  0.51731000  1.0 0.1205576175
C  C30  1  0.76751000  0.98172000  0.36129000  1.0 0.112894188
C  C31  1  0.57591000  0.82360000  0.52784000  1.0 0.1620965543
C  C32  1  0.72436000  0.93406000  0.37753000  1.0 0.1620965543
C  C33  1  0.56365000  0.83210000  0.49386000  1.0 -0.1484745522
C  C34  1  0.69236000  0.92716000  0.36001000  1.0 -0.159762631
C  C35  1  0.58049000  0.85849000  0.47418000  1.0 -0.1484745522
C  C36  1  0.66410000  0.91190000  0.37830000  1.0 -0.1484745522
C  C37  1  0.60817000  0.87845000  0.48937000  1.0 0.1662823538
C  C38  1  0.66524000  0.90800000  0.41506000  1.0 0.1620965543
C  C39  1  0.72650000  0.92783000  0.41456000  1.0 -0.159762631
C  C40  1  0.69701000  0.91505000  0.43334000  1.0 -0.1384390009
C  C41  1  0.88337000  0.12643000  0.02530000  1.0 -0.1484745522
C  C42  1  0.89940000  0.15404000  0.04436000  1.0 -0.1484745522
C  C43  1  0.94376000  0.23196000  0.06042000  1.0 0.112894188
C  C44  1  0.71520000  0.07131000  0.85146000  1.0 0.1205576175
C  C45  1  0.96940000  0.21885000  0.08344000  1.0 -0.1956086005
C  C46  1  0.71264000  0.10821000  0.84752000  1.0 -0.1835953508
C  C47  1  0.99244000  0.24352000  0.09965000  1.0 -0.0897949137
C  C48  1  0.67894000  0.12344000  0.84747000  1.0 -0.0897949137
C  C49  1  0.98966000  0.28048000  0.09225000  1.0 -0.0272966449
C  C50  1  0.64862000  0.10225000  0.85300000  1.0 -0.0187440113
C  C51  1  0.01753000  0.30510000  0.10677000  1.0 0.6029158112
C  C52  1  0.61471000  0.12204000  0.85955000  1.0 0.5843264853
C  C53  1  0.96112000  0.29309000  0.07169000  1.0 -0.1333517212
C  C54  1  0.65132000  0.06520000  0.85560000  1.0 -0.1384390009
C  C55  1  0.93940000  0.26807000  0.05572000  1.0 -0.0187440113
C  C56  1  0.68500000  0.05068000  0.85363000  1.0 -0.0187440113
C  C57  1  0.91590000  0.27215000  0.02850000  1.0 -0.0187440113
C  C58  1  0.69595000  0.01690000  0.85984000  1.0 -0.0137616532
C  C59  1  0.90247000  0.30244000  0.01279000  1.0 -0.1172157972
C  C60  1  0.67686000  0.98707000  0.87026000  1.0 -0.1384390009
C  C61  1  0.86291000  0.32858000  0.96635000  1.0 0.5870359687
C  C62  1  0.67997000  0.92481000  0.89630000  1.0 0.6029158112
C  C63  1  0.87759000  0.29776000  0.98527000  1.0 -0.0455805899
C  C64  1  0.69630000  0.95627000  0.87842000  1.0 -0.0272966449
C  C65  1  0.87178000  0.26354000  0.97050000  1.0 -0.0757062147
C  C66  1  0.73342000  0.95585000  0.87282000  1.0 -0.0897949137
C  C67  1  0.88588000  0.23342000  0.98717000  1.0 -0.188384117
C  C68  1  0.75216000  0.98768000  0.86778000  1.0 -0.188384117
C  C69  1  0.90697000  0.23862000  0.01731000  1.0 0.1205576175
C  C70  1  0.73249000  0.01828000  0.86129000  1.0 0.1205576175
C  C71  1  0.92409000  0.17640000  0.02784000  1.0 0.1620965543
C  C72  1  0.77564000  0.06594000  0.87753000  1.0 0.1620965543
C  C73  1  0.93635000  0.16790000  0.99386000  1.0 -0.1484745522
C  C74  1  0.80764000  0.07284000  0.86001000  1.0 -0.159762631
C  C75  1  0.91951000  0.14151000  0.97418000  1.0 -0.1384390009
C  C76  1  0.83590000  0.08810000  0.87830000  1.0 -0.1484745522
C  C77  1  0.89183000  0.12155000  0.98937000  1.0 0.1662823538
C  C78  1  0.83476000  0.09200000  0.91506000  1.0 0.1620965543
C  C79  1  0.77350000  0.07217000  0.91456000  1.0 -0.159762631
C  C80  1  0.80299000  0.08495000  0.93334000  1.0 -0.1384390009
C  C81  1  0.38337000  0.37357000  0.97470000  1.0 -0.1484745522
C  C82  1  0.39940000  0.34596000  0.95564000  1.0 -0.1484745522
C  C83  1  0.44376000  0.26804000  0.93958000  1.0 0.112894188
C  C84  1  0.21520000  0.42869000  0.14854000  1.0 0.112894188
C  C85  1  0.46940000  0.28115000  0.91656000  1.0 -0.1956086005
C  C86  1  0.21264000  0.39179000  0.15248000  1.0 -0.1835953508
C  C87  1  0.49244000  0.25648000  0.90035000  1.0 -0.0897949137
C  C88  1  0.17894000  0.37656000  0.15253000  1.0 -0.0897949137
C  C89  1  0.48966000  0.21952000  0.90775000  1.0 -0.0272966449
C  C90  1  0.14862000  0.39775000  0.14700000  1.0 -0.0187440113
C  C91  1  0.51753000  0.19490000  0.89323000  1.0 0.6029158112
C  C92  1  0.11471000  0.37796000  0.14045000  1.0 0.5870359687
C  C93  1  0.46112000  0.20691000  0.92831000  1.0 -0.1384390009
C  C94  1  0.15132000  0.43480000  0.14440000  1.0 -0.1384390009
C  C95  1  0.43940000  0.23193000  0.94428000  1.0 -0.0137616532
C  C96  1  0.18500000  0.44932000  0.14637000  1.0 -0.0187440113
C  C97  1  0.41590000  0.22785000  0.97150000  1.0 -0.0187440113
C  C98  1  0.19595000  0.48310000  0.14016000  1.0 -0.0187440113
C  C99  1  0.40247000  0.19756000  0.98721000  1.0 -0.1172157972
C  C100  1  0.17686000  0.51293000  0.12974000  1.0 -0.1384390009
C  C101  1  0.36291000  0.17142000  0.03365000  1.0 0.5870359687
C  C102  1  0.17997000  0.57519000  0.10370000  1.0 0.6029158112
C  C103  1  0.37759000  0.20224000  0.01473000  1.0 -0.0446675192
C  C104  1  0.19630000  0.54373000  0.12158000  1.0 -0.0272966449
C  C105  1  0.37178000  0.23646000  0.02950000  1.0 -0.0757062147
C  C106  1  0.23342000  0.54415000  0.12718000  1.0 -0.0897949137
C  C107  1  0.38588000  0.26658000  0.01283000  1.0 -0.188384117
C  C108  1  0.25216000  0.51232000  0.13222000  1.0 -0.188384117
C  C109  1  0.40697000  0.26138000  0.98269000  1.0 0.1205576175
C  C110  1  0.23249000  0.48172000  0.13871000  1.0 0.1205576175
C  C111  1  0.42409000  0.32360000  0.97216000  1.0 0.1620965543
C  C112  1  0.27564000  0.43406000  0.12247000  1.0 0.1620965543
C  C113  1  0.43635000  0.33210000  0.00614000  1.0 -0.1484745522
C  C114  1  0.30764000  0.42716000  0.13999000  1.0 -0.159762631
C  C115  1  0.41951000  0.35849000  0.02582000  1.0 -0.1384390009
C  C116  1  0.33590000  0.41190000  0.12170000  1.0 -0.1484745522
C  C117  1  0.39183000  0.37845000  0.01063000  1.0 0.1662823538
C  C118  1  0.33476000  0.40800000  0.08494000  1.0 0.1620965543
C  C119  1  0.27350000  0.42783000  0.08544000  1.0 -0.159762631
C  C120  1  0.30299000  0.41505000  0.06666000  1.0 -0.1384390009
C  C121  1  0.11663000  0.62643000  0.47470000  1.0 -0.1484745522
C  C122  1  0.10060000  0.65404000  0.45564000  1.0 -0.159762631
C  C123  1  0.05624000  0.73196000  0.43958000  1.0 0.112894188
C  C124  1  0.28480000  0.57131000  0.64854000  1.0 0.1205576175
C  C125  1  0.03060000  0.71885000  0.41656000  1.0 -0.1956086005
C  C126  1  0.28736000  0.60821000  0.65248000  1.0 -0.1835953508
C  C127  1  0.00756000  0.74352000  0.40035000  1.0 -0.0897949137
C  C128  1  0.32106000  0.62344000  0.65253000  1.0 -0.0897949137
C  C129  1  0.01034000  0.78048000  0.40775000  1.0 -0.0272966449
C  C130  1  0.35138000  0.60225000  0.64700000  1.0 -0.0187440113
C  C131  1  0.98247000  0.80510000  0.39323000  1.0 0.6067858541
C  C132  1  0.38529000  0.62204000  0.64045000  1.0 0.5843264853
C  C133  1  0.03888000  0.79309000  0.42831000  1.0 -0.1384390009
C  C134  1  0.34868000  0.56520000  0.64440000  1.0 -0.1384390009
C  C135  1  0.06060000  0.76807000  0.44428000  1.0 -0.0137616532
C  C136  1  0.31500000  0.55068000  0.64637000  1.0 -0.0187440113
C  C137  1  0.08410000  0.77215000  0.47150000  1.0 -0.0187440113
C  C138  1  0.30405000  0.51690000  0.64016000  1.0 -0.0137616532
C  C139  1  0.09753000  0.80244000  0.48721000  1.0 -0.1172157972
C  C140  1  0.32314000  0.48707000  0.62974000  1.0 -0.1384390009
C  C141  1  0.13709000  0.82858000  0.53365000  1.0 0.5870359687
C  C142  1  0.32003000  0.42481000  0.60370000  1.0 0.6029158112
C  C143  1  0.12241000  0.79776000  0.51473000  1.0 -0.0455805899
C  C144  1  0.30370000  0.45627000  0.62158000  1.0 -0.0272966449
C  C145  1  0.12822000  0.76354000  0.52950000  1.0 -0.0757062147
C  C146  1  0.26658000  0.45585000  0.62718000  1.0 -0.0897949137
C  C147  1  0.11412000  0.73342000  0.51283000  1.0 -0.188384117
C  C148  1  0.24784000  0.48768000  0.63222000  1.0 -0.188384117
C  C149  1  0.09303000  0.73862000  0.48269000  1.0 0.1205576175
C  C150  1  0.26751000  0.51828000  0.63871000  1.0 0.112894188
C  C151  1  0.07591000  0.67640000  0.47216000  1.0 0.1620965543
C  C152  1  0.22436000  0.56594000  0.62247000  1.0 0.1620965543
C  C153  1  0.06365000  0.66790000  0.50614000  1.0 -0.1484745522
C  C154  1  0.19236000  0.57284000  0.63999000  1.0 -0.159762631
C  C155  1  0.08049000  0.64151000  0.52582000  1.0 -0.1484745522
C  C156  1  0.16410000  0.58810000  0.62170000  1.0 -0.1484745522
C  C157  1  0.10817000  0.62155000  0.51063000  1.0 0.1662823538
C  C158  1  0.16524000  0.59200000  0.58494000  1.0 0.1620965543
C  C159  1  0.22650000  0.57217000  0.58544000  1.0 -0.159762631
C  C160  1  0.19701000  0.58495000  0.56666000  1.0 -0.1384390009
C  C161  1  0.52530000  0.61663000  0.87357000  1.0 -0.1484745522
C  C162  1  0.54436000  0.60060000  0.84596000  1.0 -0.1484745522
C  C163  1  0.56042000  0.55624000  0.76804000  1.0 0.112894188
C  C164  1  0.35146000  0.78480000  0.92869000  1.0 0.1205576175
C  C165  1  0.58344000  0.53060000  0.78115000  1.0 -0.188384117
C  C166  1  0.34752000  0.78736000  0.89179000  1.0 -0.1835953508
C  C167  1  0.59965000  0.50756000  0.75648000  1.0 -0.0897949137
C  C168  1  0.34747000  0.82106000  0.87656000  1.0 -0.0897949137
C  C169  1  0.59225000  0.51034000  0.71952000  1.0 -0.0272966449
C  C170  1  0.35300000  0.85138000  0.89775000  1.0 -0.0187440113
C  C171  1  0.60677000  0.48247000  0.69490000  1.0 0.6067858541
C  C172  1  0.35955000  0.88529000  0.87796000  1.0 0.5843264853
C  C173  1  0.57169000  0.53888000  0.70691000  1.0 -0.1333517212
C  C174  1  0.35560000  0.84868000  0.93480000  1.0 -0.1384390009
C  C175  1  0.55572000  0.56060000  0.73193000  1.0 -0.0187440113
C  C176  1  0.35363000  0.81500000  0.94932000  1.0 -0.0187440113
C  C177  1  0.52850000  0.58410000  0.72785000  1.0 -0.0187440113
C  C178  1  0.35984000  0.80405000  0.98310000  1.0 -0.0137616532
C  C179  1  0.51279000  0.59753000  0.69756000  1.0 -0.1172157972
C  C180  1  0.37026000  0.82314000  0.01293000  1.0 -0.1384390009
C  C181  1  0.46635000  0.63709000  0.67142000  1.0 0.5870359687
C  C182  1  0.39630000  0.82003000  0.07519000  1.0 0.6029158112
C  C183  1  0.48527000  0.62241000  0.70224000  1.0 -0.0455805899
C  C184  1  0.37842000  0.80370000  0.04373000  1.0 -0.0272966449
C  C185  1  0.47050000  0.62822000  0.73646000  1.0 -0.0757062147
C  C186  1  0.37282000  0.76658000  0.04415000  1.0 -0.0897949137
C  C187  1  0.48717000  0.61412000  0.76658000  1.0 -0.188384117
C  C188  1  0.36778000  0.74784000  0.01232000  1.0 -0.188384117
C  C189  1  0.51731000  0.59303000  0.76138000  1.0 0.1205576175
C  C190  1  0.36129000  0.76751000  0.98172000  1.0 0.1205576175
C  C191  1  0.52784000  0.57591000  0.82360000  1.0 0.1620965543
C  C192  1  0.37753000  0.72436000  0.93406000  1.0 0.1620965543
C  C193  1  0.49386000  0.56365000  0.83210000  1.0 -0.1484745522
C  C194  1  0.36001000  0.69236000  0.92716000  1.0 -0.159762631
C  C195  1  0.47418000  0.58049000  0.85849000  1.0 -0.1484745522
C  C196  1  0.37830000  0.66410000  0.91190000  1.0 -0.1484745522
C  C197  1  0.48937000  0.60817000  0.87845000  1.0 0.1662823538
C  C198  1  0.41506000  0.66524000  0.90800000  1.0 0.1620965543
C  C199  1  0.41456000  0.72650000  0.92783000  1.0 -0.159762631
C  C200  1  0.43334000  0.69701000  0.91505000  1.0 -0.1384390009
C  C201  1  0.02530000  0.88337000  0.12643000  1.0 -0.1484745522
C  C202  1  0.04436000  0.89940000  0.15404000  1.0 -0.1484745522
C  C203  1  0.06042000  0.94376000  0.23196000  1.0 0.112894188
C  C204  1  0.85146000  0.71520000  0.07131000  1.0 0.112894188
C  C205  1  0.08344000  0.96940000  0.21885000  1.0 -0.1956086005
C  C206  1  0.84752000  0.71264000  0.10821000  1.0 -0.1835953508
C  C207  1  0.09965000  0.99244000  0.24352000  1.0 -0.0897949137
C  C208  1  0.84747000  0.67894000  0.12344000  1.0 -0.0897949137
C  C209  1  0.09225000  0.98966000  0.28048000  1.0 -0.0272966449
C  C210  1  0.85300000  0.64862000  0.10225000  1.0 -0.0187440113
C  C211  1  0.10677000  0.01753000  0.30510000  1.0 0.6029158112
C  C212  1  0.85955000  0.61471000  0.12204000  1.0 0.5843264853
C  C213  1  0.07169000  0.96112000  0.29309000  1.0 -0.1333517212
C  C214  1  0.85560000  0.65132000  0.06520000  1.0 -0.1384390009
C  C215  1  0.05572000  0.93940000  0.26807000  1.0 -0.0187440113
C  C216  1  0.85363000  0.68500000  0.05068000  1.0 -0.0187440113
C  C217  1  0.02850000  0.91590000  0.27215000  1.0 -0.0187440113
C  C218  1  0.85984000  0.69595000  0.01690000  1.0 -0.0137616532
C  C219  1  0.01279000  0.90247000  0.30244000  1.0 -0.1172157972
C  C220  1  0.87026000  0.67686000  0.98707000  1.0 -0.1384390009
C  C221  1  0.96635000  0.86291000  0.32858000  1.0 0.5870359687
C  C222  1  0.89630000  0.67997000  0.92481000  1.0 0.6029158112
C  C223  1  0.98527000  0.87759000  0.29776000  1.0 -0.0455805899
C  C224  1  0.87842000  0.69630000  0.95627000  1.0 -0.0272966449
C  C225  1  0.97050000  0.87178000  0.26354000  1.0 -0.0757062147
C  C226  1  0.87282000  0.73342000  0.95585000  1.0 -0.0897949137
C  C227  1  0.98717000  0.88588000  0.23342000  1.0 -0.188384117
C  C228  1  0.86778000  0.75216000  0.98768000  1.0 -0.188384117
C  C229  1  0.01731000  0.90697000  0.23862000  1.0 0.1205576175
C  C230  1  0.86129000  0.73249000  0.01828000  1.0 0.112894188
C  C231  1  0.02784000  0.92409000  0.17640000  1.0 0.1620965543
C  C232  1  0.87753000  0.77564000  0.06594000  1.0 0.1620965543
C  C233  1  0.99386000  0.93635000  0.16790000  1.0 -0.1484745522
C  C234  1  0.86001000  0.80764000  0.07284000  1.0 -0.159762631
C  C235  1  0.97418000  0.91951000  0.14151000  1.0 -0.1484745522
C  C236  1  0.87830000  0.83590000  0.08810000  1.0 -0.1484745522
C  C237  1  0.98937000  0.89183000  0.12155000  1.0 0.1662823538
C  C238  1  0.91506000  0.83476000  0.09200000  1.0 0.1620965543
C  C239  1  0.91456000  0.77350000  0.07217000  1.0 -0.159762631
C  C240  1  0.93334000  0.80299000  0.08495000  1.0 -0.1384390009
C  C241  1  0.97470000  0.38337000  0.37357000  1.0 -0.1484745522
C  C242  1  0.95564000  0.39940000  0.34596000  1.0 -0.1484745522
C  C243  1  0.93958000  0.44376000  0.26804000  1.0 0.112894188
C  C244  1  0.14854000  0.21520000  0.42869000  1.0 0.112894188
C  C245  1  0.91656000  0.46940000  0.28115000  1.0 -0.1956086005
C  C246  1  0.15248000  0.21264000  0.39179000  1.0 -0.1835953508
C  C247  1  0.90035000  0.49244000  0.25648000  1.0 -0.0897949137
C  C248  1  0.15253000  0.17894000  0.37656000  1.0 -0.0897949137
C  C249  1  0.90775000  0.48966000  0.21952000  1.0 -0.0272966449
C  C250  1  0.14700000  0.14862000  0.39775000  1.0 -0.0187440113
C  C251  1  0.89323000  0.51753000  0.19490000  1.0 0.6029158112
C  C252  1  0.14045000  0.11471000  0.37796000  1.0 0.5843264853
C  C253  1  0.92831000  0.46112000  0.20691000  1.0 -0.1384390009
C  C254  1  0.14440000  0.15132000  0.43480000  1.0 -0.1384390009
C  C255  1  0.94428000  0.43940000  0.23193000  1.0 -0.0137616532
C  C256  1  0.14637000  0.18500000  0.44932000  1.0 -0.0187440113
C  C257  1  0.97150000  0.41590000  0.22785000  1.0 -0.0187440113
C  C258  1  0.14016000  0.19595000  0.48310000  1.0 -0.0187440113
C  C259  1  0.98721000  0.40247000  0.19756000  1.0 -0.1172157972
C  C260  1  0.12974000  0.17686000  0.51293000  1.0 -0.1384390009
C  C261  1  0.03365000  0.36291000  0.17142000  1.0 0.5870359687
C  C262  1  0.10370000  0.17997000  0.57519000  1.0 0.6029158112
C  C263  1  0.01473000  0.37759000  0.20224000  1.0 -0.0455805899
C  C264  1  0.12158000  0.19630000  0.54373000  1.0 -0.0272966449
C  C265  1  0.02950000  0.37178000  0.23646000  1.0 -0.0757062147
C  C266  1  0.12718000  0.23342000  0.54415000  1.0 -0.0897949137
C  C267  1  0.01283000  0.38588000  0.26658000  1.0 -0.188384117
C  C268  1  0.13222000  0.25216000  0.51232000  1.0 -0.188384117
C  C269  1  0.98269000  0.40697000  0.26138000  1.0 0.1205576175
C  C270  1  0.13871000  0.23249000  0.48172000  1.0 0.1205576175
C  C271  1  0.97216000  0.42409000  0.32360000  1.0 0.1620965543
C  C272  1  0.12247000  0.27564000  0.43406000  1.0 0.1620965543
C  C273  1  0.00614000  0.43635000  0.33210000  1.0 -0.1484745522
C  C274  1  0.13999000  0.30764000  0.42716000  1.0 -0.159762631
C  C275  1  0.02582000  0.41951000  0.35849000  1.0 -0.1384390009
C  C276  1  0.12170000  0.33590000  0.41190000  1.0 -0.1484745522
C  C277  1  0.01063000  0.39183000  0.37845000  1.0 0.1662823538
C  C278  1  0.08494000  0.33476000  0.40800000  1.0 0.1620965543
C  C279  1  0.08544000  0.27350000  0.42783000  1.0 -0.159762631
C  C280  1  0.06666000  0.30299000  0.41505000  1.0 -0.1384390009
C  C281  1  0.47470000  0.11663000  0.62643000  1.0 -0.1484745522
C  C282  1  0.45564000  0.10060000  0.65404000  1.0 -0.159762631
C  C283  1  0.43958000  0.05624000  0.73196000  1.0 0.112894188
C  C284  1  0.64854000  0.28480000  0.57131000  1.0 0.1205576175
C  C285  1  0.41656000  0.03060000  0.71885000  1.0 -0.1956086005
C  C286  1  0.65248000  0.28736000  0.60821000  1.0 -0.1835953508
C  C287  1  0.40035000  0.00756000  0.74352000  1.0 -0.0897949137
C  C288  1  0.65253000  0.32106000  0.62344000  1.0 -0.0897949137
C  C289  1  0.40775000  0.01034000  0.78048000  1.0 -0.0272966449
C  C290  1  0.64700000  0.35138000  0.60225000  1.0 -0.0187440113
C  C291  1  0.39323000  0.98247000  0.80510000  1.0 0.6067858541
C  C292  1  0.64045000  0.38529000  0.62204000  1.0 0.5843264853
C  C293  1  0.42831000  0.03888000  0.79309000  1.0 -0.1333517212
C  C294  1  0.64440000  0.34868000  0.56520000  1.0 -0.1384390009
C  C295  1  0.44428000  0.06060000  0.76807000  1.0 -0.0137616532
C  C296  1  0.64637000  0.31500000  0.55068000  1.0 -0.0187440113
C  C297  1  0.47150000  0.08410000  0.77215000  1.0 -0.0187440113
C  C298  1  0.64016000  0.30405000  0.51690000  1.0 -0.0137616532
C  C299  1  0.48721000  0.09753000  0.80244000  1.0 -0.1172157972
C  C300  1  0.62974000  0.32314000  0.48707000  1.0 -0.1384390009
C  C301  1  0.53365000  0.13709000  0.82858000  1.0 0.5870359687
C  C302  1  0.60370000  0.32003000  0.42481000  1.0 0.6029158112
C  C303  1  0.51473000  0.12241000  0.79776000  1.0 -0.0455805899
C  C304  1  0.62158000  0.30370000  0.45627000  1.0 -0.0272966449
C  C305  1  0.52950000  0.12822000  0.76354000  1.0 -0.0757062147
C  C306  1  0.62718000  0.26658000  0.45585000  1.0 -0.0897949137
C  C307  1  0.51283000  0.11412000  0.73342000  1.0 -0.188384117
C  C308  1  0.63222000  0.24784000  0.48768000  1.0 -0.188384117
C  C309  1  0.48269000  0.09303000  0.73862000  1.0 0.1205576175
C  C310  1  0.63871000  0.26751000  0.51828000  1.0 0.112894188
C  C311  1  0.47216000  0.07591000  0.67640000  1.0 0.1620965543
C  C312  1  0.62247000  0.22436000  0.56594000  1.0 0.1620965543
C  C313  1  0.50614000  0.06365000  0.66790000  1.0 -0.1484745522
C  C314  1  0.63999000  0.19236000  0.57284000  1.0 -0.159762631
C  C315  1  0.52582000  0.08049000  0.64151000  1.0 -0.1484745522
C  C316  1  0.62170000  0.16410000  0.58810000  1.0 -0.1484745522
C  C317  1  0.51063000  0.10817000  0.62155000  1.0 0.1662823538
C  C318  1  0.58494000  0.16524000  0.59200000  1.0 0.1620965543
C  C319  1  0.58544000  0.22650000  0.57217000  1.0 -0.159762631
C  C320  1  0.56666000  0.19701000  0.58495000  1.0 -0.1384390009
C  C321  1  0.87357000  0.52530000  0.61663000  1.0 -0.1484745522
C  C322  1  0.84596000  0.54436000  0.60060000  1.0 -0.1484745522
C  C323  1  0.76804000  0.56042000  0.55624000  1.0 0.112894188
C  C324  1  0.92869000  0.35146000  0.78480000  1.0 0.1205576175
C  C325  1  0.78115000  0.58344000  0.53060000  1.0 -0.188384117
C  C326  1  0.89179000  0.34752000  0.78736000  1.0 -0.1835953508
C  C327  1  0.75648000  0.59965000  0.50756000  1.0 -0.0897949137
C  C328  1  0.87656000  0.34747000  0.82106000  1.0 -0.0897949137
C  C329  1  0.71952000  0.59225000  0.51034000  1.0 -0.0272966449
C  C330  1  0.89775000  0.35300000  0.85138000  1.0 -0.0187440113
C  C331  1  0.69490000  0.60677000  0.48247000  1.0 0.6067858541
C  C332  1  0.87796000  0.35955000  0.88529000  1.0 0.5843264853
C  C333  1  0.70691000  0.57169000  0.53888000  1.0 -0.1333517212
C  C334  1  0.93480000  0.35560000  0.84868000  1.0 -0.1384390009
C  C335  1  0.73193000  0.55572000  0.56060000  1.0 -0.0187440113
C  C336  1  0.94932000  0.35363000  0.81500000  1.0 -0.0187440113
C  C337  1  0.72785000  0.52850000  0.58410000  1.0 -0.0187440113
C  C338  1  0.98310000  0.35984000  0.80405000  1.0 -0.0137616532
C  C339  1  0.69756000  0.51279000  0.59753000  1.0 -0.1172157972
C  C340  1  0.01293000  0.37026000  0.82314000  1.0 -0.1384390009
C  C341  1  0.67142000  0.46635000  0.63709000  1.0 0.5870359687
C  C342  1  0.07519000  0.39630000  0.82003000  1.0 0.6029158112
C  C343  1  0.70224000  0.48527000  0.62241000  1.0 -0.0455805899
C  C344  1  0.04373000  0.37842000  0.80370000  1.0 -0.0272966449
C  C345  1  0.73646000  0.47050000  0.62822000  1.0 -0.0757062147
C  C346  1  0.04415000  0.37282000  0.76658000  1.0 -0.0897949137
C  C347  1  0.76658000  0.48717000  0.61412000  1.0 -0.188384117
C  C348  1  0.01232000  0.36778000  0.74784000  1.0 -0.188384117
C  C349  1  0.76138000  0.51731000  0.59303000  1.0 0.1205576175
C  C350  1  0.98172000  0.36129000  0.76751000  1.0 0.1205576175
C  C351  1  0.82360000  0.52784000  0.57591000  1.0 0.1620965543
C  C352  1  0.93406000  0.37753000  0.72436000  1.0 0.1620965543
C  C353  1  0.83210000  0.49386000  0.56365000  1.0 -0.1484745522
C  C354  1  0.92716000  0.36001000  0.69236000  1.0 -0.159762631
C  C355  1  0.85849000  0.47418000  0.58049000  1.0 -0.1484745522
C  C356  1  0.91190000  0.37830000  0.66410000  1.0 -0.1484745522
C  C357  1  0.87845000  0.48937000  0.60817000  1.0 0.1662823538
C  C358  1  0.90800000  0.41506000  0.66524000  1.0 0.1620965543
C  C359  1  0.92783000  0.41456000  0.72650000  1.0 -0.159762631
C  C360  1  0.91505000  0.43334000  0.69701000  1.0 -0.1384390009
C  C361  1  0.12643000  0.02530000  0.88337000  1.0 -0.1484745522
C  C362  1  0.15404000  0.04436000  0.89940000  1.0 -0.1484745522
C  C363  1  0.23196000  0.06042000  0.94376000  1.0 0.112894188
C  C364  1  0.07131000  0.85146000  0.71520000  1.0 0.112894188
C  C365  1  0.21885000  0.08344000  0.96940000  1.0 -0.1956086005
C  C366  1  0.10821000  0.84752000  0.71264000  1.0 -0.1835953508
C  C367  1  0.24352000  0.09965000  0.99244000  1.0 -0.0897949137
C  C368  1  0.12344000  0.84747000  0.67894000  1.0 -0.0897949137
C  C369  1  0.28048000  0.09225000  0.98966000  1.0 -0.0272966449
C  C370  1  0.10225000  0.85300000  0.64862000  1.0 -0.0187440113
C  C371  1  0.30510000  0.10677000  0.01753000  1.0 0.6029158112
C  C372  1  0.12204000  0.85955000  0.61471000  1.0 0.5843264853
C  C373  1  0.29309000  0.07169000  0.96112000  1.0 -0.1333517212
C  C374  1  0.06520000  0.85560000  0.65132000  1.0 -0.1384390009
C  C375  1  0.26807000  0.05572000  0.93940000  1.0 -0.0187440113
C  C376  1  0.05068000  0.85363000  0.68500000  1.0 -0.0187440113
C  C377  1  0.27215000  0.02850000  0.91590000  1.0 -0.0187440113
C  C378  1  0.01690000  0.85984000  0.69595000  1.0 -0.0137616532
C  C379  1  0.30244000  0.01279000  0.90247000  1.0 -0.1172157972
C  C380  1  0.98707000  0.87026000  0.67686000  1.0 -0.1384390009
C  C381  1  0.32858000  0.96635000  0.86291000  1.0 0.5870359687
C  C382  1  0.92481000  0.89630000  0.67997000  1.0 0.6029158112
C  C383  1  0.29776000  0.98527000  0.87759000  1.0 -0.0455805899
C  C384  1  0.95627000  0.87842000  0.69630000  1.0 -0.0272966449
C  C385  1  0.26354000  0.97050000  0.87178000  1.0 -0.0757062147
C  C386  1  0.95585000  0.87282000  0.73342000  1.0 -0.0897949137
C  C387  1  0.23342000  0.98717000  0.88588000  1.0 -0.188384117
C  C388  1  0.98768000  0.86778000  0.75216000  1.0 -0.188384117
C  C389  1  0.23862000  0.01731000  0.90697000  1.0 0.1205576175
C  C390  1  0.01828000  0.86129000  0.73249000  1.0 0.112894188
C  C391  1  0.17640000  0.02784000  0.92409000  1.0 0.1620965543
C  C392  1  0.06594000  0.87753000  0.77564000  1.0 0.1620965543
C  C393  1  0.16790000  0.99386000  0.93635000  1.0 -0.1484745522
C  C394  1  0.07284000  0.86001000  0.80764000  1.0 -0.159762631
C  C395  1  0.14151000  0.97418000  0.91951000  1.0 -0.1484745522
C  C396  1  0.08810000  0.87830000  0.83590000  1.0 -0.1484745522
C  C397  1  0.12155000  0.98937000  0.89183000  1.0 0.1662823538
C  C398  1  0.09200000  0.91506000  0.83476000  1.0 0.1620965543
C  C399  1  0.07217000  0.91456000  0.77350000  1.0 -0.159762631
C  C400  1  0.08495000  0.93334000  0.80299000  1.0 -0.1384390009
C  C401  1  0.37357000  0.97470000  0.38337000  1.0 -0.1484745522
C  C402  1  0.34596000  0.95564000  0.39940000  1.0 -0.1484745522
C  C403  1  0.26804000  0.93958000  0.44376000  1.0 0.112894188
C  C404  1  0.42869000  0.14854000  0.21520000  1.0 0.112894188
C  C405  1  0.28115000  0.91656000  0.46940000  1.0 -0.1956086005
C  C406  1  0.39179000  0.15248000  0.21264000  1.0 -0.1835953508
C  C407  1  0.25648000  0.90035000  0.49244000  1.0 -0.0897949137
C  C408  1  0.37656000  0.15253000  0.17894000  1.0 -0.0897949137
C  C409  1  0.21952000  0.90775000  0.48966000  1.0 -0.0272966449
C  C410  1  0.39775000  0.14700000  0.14862000  1.0 -0.0187440113
C  C411  1  0.19490000  0.89323000  0.51753000  1.0 0.6029158112
C  C412  1  0.37796000  0.14045000  0.11471000  1.0 0.5843264853
C  C413  1  0.20691000  0.92831000  0.46112000  1.0 -0.1384390009
C  C414  1  0.43480000  0.14440000  0.15132000  1.0 -0.1384390009
C  C415  1  0.23193000  0.94428000  0.43940000  1.0 -0.0137616532
C  C416  1  0.44932000  0.14637000  0.18500000  1.0 -0.0187440113
C  C417  1  0.22785000  0.97150000  0.41590000  1.0 -0.0187440113
C  C418  1  0.48310000  0.14016000  0.19595000  1.0 -0.0187440113
C  C419  1  0.19756000  0.98721000  0.40247000  1.0 -0.1172157972
C  C420  1  0.51293000  0.12974000  0.17686000  1.0 -0.1384390009
C  C421  1  0.17142000  0.03365000  0.36291000  1.0 0.5870359687
C  C422  1  0.57519000  0.10370000  0.17997000  1.0 0.6029158112
C  C423  1  0.20224000  0.01473000  0.37759000  1.0 -0.0446675192
C  C424  1  0.54373000  0.12158000  0.19630000  1.0 -0.0272966449
C  C425  1  0.23646000  0.02950000  0.37178000  1.0 -0.0757062147
C  C426  1  0.54415000  0.12718000  0.23342000  1.0 -0.0897949137
C  C427  1  0.26658000  0.01283000  0.38588000  1.0 -0.188384117
C  C428  1  0.51232000  0.13222000  0.25216000  1.0 -0.188384117
C  C429  1  0.26138000  0.98269000  0.40697000  1.0 0.1205576175
C  C430  1  0.48172000  0.13871000  0.23249000  1.0 0.1205576175
C  C431  1  0.32360000  0.97216000  0.42409000  1.0 0.1620965543
C  C432  1  0.43406000  0.12247000  0.27564000  1.0 0.1620965543
C  C433  1  0.33210000  0.00614000  0.43635000  1.0 -0.1484745522
C  C434  1  0.42716000  0.13999000  0.30764000  1.0 -0.159762631
C  C435  1  0.35849000  0.02582000  0.41951000  1.0 -0.1384390009
C  C436  1  0.41190000  0.12170000  0.33590000  1.0 -0.1484745522
C  C437  1  0.37845000  0.01063000  0.39183000  1.0 0.1662823538
C  C438  1  0.40800000  0.08494000  0.33476000  1.0 0.1620965543
C  C439  1  0.42783000  0.08544000  0.27350000  1.0 -0.159762631
C  C440  1  0.41505000  0.06666000  0.30299000  1.0 -0.1384390009
C  C441  1  0.62643000  0.47470000  0.11663000  1.0 -0.1484745522
C  C442  1  0.65404000  0.45564000  0.10060000  1.0 -0.159762631
C  C443  1  0.73196000  0.43958000  0.05624000  1.0 0.112894188
C  C444  1  0.57131000  0.64854000  0.28480000  1.0 0.1205576175
C  C445  1  0.71885000  0.41656000  0.03060000  1.0 -0.1956086005
C  C446  1  0.60821000  0.65248000  0.28736000  1.0 -0.1835953508
C  C447  1  0.74352000  0.40035000  0.00756000  1.0 -0.0897949137
C  C448  1  0.62344000  0.65253000  0.32106000  1.0 -0.0897949137
C  C449  1  0.78048000  0.40775000  0.01034000  1.0 -0.0272966449
C  C450  1  0.60225000  0.64700000  0.35138000  1.0 -0.0187440113
C  C451  1  0.80510000  0.39323000  0.98247000  1.0 0.6067858541
C  C452  1  0.62204000  0.64045000  0.38529000  1.0 0.5843264853
C  C453  1  0.79309000  0.42831000  0.03888000  1.0 -0.1384390009
C  C454  1  0.56520000  0.64440000  0.34868000  1.0 -0.1384390009
C  C455  1  0.76807000  0.44428000  0.06060000  1.0 -0.0137616532
C  C456  1  0.55068000  0.64637000  0.31500000  1.0 -0.0187440113
C  C457  1  0.77215000  0.47150000  0.08410000  1.0 -0.0187440113
C  C458  1  0.51690000  0.64016000  0.30405000  1.0 -0.0137616532
C  C459  1  0.80244000  0.48721000  0.09753000  1.0 -0.1172157972
C  C460  1  0.48707000  0.62974000  0.32314000  1.0 -0.1384390009
C  C461  1  0.82858000  0.53365000  0.13709000  1.0 0.5870359687
C  C462  1  0.42481000  0.60370000  0.32003000  1.0 0.6029158112
C  C463  1  0.79776000  0.51473000  0.12241000  1.0 -0.0455805899
C  C464  1  0.45627000  0.62158000  0.30370000  1.0 -0.0272966449
C  C465  1  0.76354000  0.52950000  0.12822000  1.0 -0.0757062147
C  C466  1  0.45585000  0.62718000  0.26658000  1.0 -0.0897949137
C  C467  1  0.73342000  0.51283000  0.11412000  1.0 -0.188384117
C  C468  1  0.48768000  0.63222000  0.24784000  1.0 -0.188384117
C  C469  1  0.73862000  0.48269000  0.09303000  1.0 0.1205576175
C  C470  1  0.51828000  0.63871000  0.26751000  1.0 0.112894188
C  C471  1  0.67640000  0.47216000  0.07591000  1.0 0.1620965543
C  C472  1  0.56594000  0.62247000  0.22436000  1.0 0.1620965543
C  C473  1  0.66790000  0.50614000  0.06365000  1.0 -0.1484745522
C  C474  1  0.57284000  0.63999000  0.19236000  1.0 -0.159762631
C  C475  1  0.64151000  0.52582000  0.08049000  1.0 -0.1484745522
C  C476  1  0.58810000  0.62170000  0.16410000  1.0 -0.1484745522
C  C477  1  0.62155000  0.51063000  0.10817000  1.0 0.1662823538
C  C478  1  0.59200000  0.58494000  0.16524000  1.0 0.1620965543
C  C479  1  0.57217000  0.58544000  0.22650000  1.0 -0.159762631
C  C480  1  0.58495000  0.56666000  0.19701000  1.0 -0.1384390009
C  C481  1  0.38337000  0.12643000  0.47470000  1.0 -0.1484745522
C  C482  1  0.39940000  0.15404000  0.45564000  1.0 -0.1484745522
C  C483  1  0.44376000  0.23196000  0.43958000  1.0 0.112894188
C  C484  1  0.21520000  0.07131000  0.64854000  1.0 0.112894188
C  C485  1  0.46940000  0.21885000  0.41656000  1.0 -0.1956086005
C  C486  1  0.21264000  0.10821000  0.65248000  1.0 -0.1835953508
C  C487  1  0.49244000  0.24352000  0.40035000  1.0 -0.0897949137
C  C488  1  0.17894000  0.12344000  0.65253000  1.0 -0.0897949137
C  C489  1  0.48966000  0.28048000  0.40775000  1.0 -0.0272966449
C  C490  1  0.14862000  0.10225000  0.64700000  1.0 -0.0187440113
C  C491  1  0.51753000  0.30510000  0.39323000  1.0 0.6067858541
C  C492  1  0.11471000  0.12204000  0.64045000  1.0 0.5843264853
C  C493  1  0.46112000  0.29309000  0.42831000  1.0 -0.1333517212
C  C494  1  0.15132000  0.06520000  0.64440000  1.0 -0.1384390009
C  C495  1  0.43940000  0.26807000  0.44428000  1.0 -0.0187440113
C  C496  1  0.18500000  0.05068000  0.64637000  1.0 -0.0187440113
C  C497  1  0.41590000  0.27215000  0.47150000  1.0 -0.0187440113
C  C498  1  0.19595000  0.01690000  0.64016000  1.0 -0.0187440113
C  C499  1  0.40247000  0.30244000  0.48721000  1.0 -0.1172157972
C  C500  1  0.17686000  0.98707000  0.62974000  1.0 -0.1384390009
C  C501  1  0.36291000  0.32858000  0.53365000  1.0 0.5870359687
C  C502  1  0.17997000  0.92481000  0.60370000  1.0 0.6029158112
C  C503  1  0.37759000  0.29776000  0.51473000  1.0 -0.0446675192
C  C504  1  0.19630000  0.95627000  0.62158000  1.0 -0.0272966449
C  C505  1  0.37178000  0.26354000  0.52950000  1.0 -0.0757062147
C  C506  1  0.23342000  0.95585000  0.62718000  1.0 -0.0897949137
C  C507  1  0.38588000  0.23342000  0.51283000  1.0 -0.188384117
C  C508  1  0.25216000  0.98768000  0.63222000  1.0 -0.188384117
C  C509  1  0.40697000  0.23862000  0.48269000  1.0 0.1205576175
C  C510  1  0.23249000  0.01828000  0.63871000  1.0 0.112894188
C  C511  1  0.42409000  0.17640000  0.47216000  1.0 0.1620965543
C  C512  1  0.27564000  0.06594000  0.62247000  1.0 0.1620965543
C  C513  1  0.43635000  0.16790000  0.50614000  1.0 -0.1484745522
C  C514  1  0.30764000  0.07284000  0.63999000  1.0 -0.159762631
C  C515  1  0.41951000  0.14151000  0.52582000  1.0 -0.1384390009
C  C516  1  0.33590000  0.08810000  0.62170000  1.0 -0.1484745522
C  C517  1  0.39183000  0.12155000  0.51063000  1.0 0.1662823538
C  C518  1  0.33476000  0.09200000  0.58494000  1.0 0.1620965543
C  C519  1  0.27350000  0.07217000  0.58544000  1.0 -0.159762631
C  C520  1  0.30299000  0.08495000  0.56666000  1.0 -0.1384390009
C  C521  1  0.11663000  0.87357000  0.97470000  1.0 -0.1484745522
C  C522  1  0.10060000  0.84596000  0.95564000  1.0 -0.1484745522
C  C523  1  0.05624000  0.76804000  0.93958000  1.0 0.112894188
C  C524  1  0.28480000  0.92869000  0.14854000  1.0 0.112894188
C  C525  1  0.03060000  0.78115000  0.91656000  1.0 -0.1956086005
C  C526  1  0.28736000  0.89179000  0.15248000  1.0 -0.1835953508
C  C527  1  0.00756000  0.75648000  0.90035000  1.0 -0.0897949137
C  C528  1  0.32106000  0.87656000  0.15253000  1.0 -0.0897949137
C  C529  1  0.01034000  0.71952000  0.90775000  1.0 -0.0272966449
C  C530  1  0.35138000  0.89775000  0.14700000  1.0 -0.0187440113
C  C531  1  0.98247000  0.69490000  0.89323000  1.0 0.6067858541
C  C532  1  0.38529000  0.87796000  0.14045000  1.0 0.5843264853
C  C533  1  0.03888000  0.70691000  0.92831000  1.0 -0.1333517212
C  C534  1  0.34868000  0.93480000  0.14440000  1.0 -0.1384390009
C  C535  1  0.06060000  0.73193000  0.94428000  1.0 -0.0187440113
C  C536  1  0.31500000  0.94932000  0.14637000  1.0 -0.0187440113
C  C537  1  0.08410000  0.72785000  0.97150000  1.0 -0.0187440113
C  C538  1  0.30405000  0.98310000  0.14016000  1.0 -0.0137616532
C  C539  1  0.09753000  0.69756000  0.98721000  1.0 -0.1172157972
C  C540  1  0.32314000  0.01293000  0.12974000  1.0 -0.1384390009
C  C541  1  0.13709000  0.67142000  0.03365000  1.0 0.5870359687
C  C542  1  0.32003000  0.07519000  0.10370000  1.0 0.6029158112
C  C543  1  0.12241000  0.70224000  0.01473000  1.0 -0.0455805899
C  C544  1  0.30370000  0.04373000  0.12158000  1.0 -0.0272966449
C  C545  1  0.12822000  0.73646000  0.02950000  1.0 -0.0744268518
C  C546  1  0.26658000  0.04415000  0.12718000  1.0 -0.0897949137
C  C547  1  0.11412000  0.76658000  0.01283000  1.0 -0.188384117
C  C548  1  0.24784000  0.01232000  0.13222000  1.0 -0.188384117
C  C549  1  0.09303000  0.76138000  0.98269000  1.0 0.1205576175
C  C550  1  0.26751000  0.98172000  0.13871000  1.0 0.112894188
C  C551  1  0.07591000  0.82360000  0.97216000  1.0 0.1620965543
C  C552  1  0.22436000  0.93406000  0.12247000  1.0 0.1620965543
C  C553  1  0.06365000  0.83210000  0.00614000  1.0 -0.1484745522
C  C554  1  0.19236000  0.92716000  0.13999000  1.0 -0.159762631
C  C555  1  0.08049000  0.85849000  0.02582000  1.0 -0.1484745522
C  C556  1  0.16410000  0.91190000  0.12170000  1.0 -0.1484745522
C  C557  1  0.10817000  0.87845000  0.01063000  1.0 0.1662823538
C  C558  1  0.16524000  0.90800000  0.08494000  1.0 0.1620965543
C  C559  1  0.22650000  0.92783000  0.08544000  1.0 -0.159762631
C  C560  1  0.19701000  0.91505000  0.06666000  1.0 -0.1384390009
C  C561  1  0.61663000  0.62643000  0.02530000  1.0 -0.1484745522
C  C562  1  0.60060000  0.65404000  0.04436000  1.0 -0.1484745522
C  C563  1  0.55624000  0.73196000  0.06042000  1.0 0.112894188
C  C564  1  0.78480000  0.57131000  0.85146000  1.0 0.1205576175
C  C565  1  0.53060000  0.71885000  0.08344000  1.0 -0.1956086005
C  C566  1  0.78736000  0.60821000  0.84752000  1.0 -0.1835953508
C  C567  1  0.50756000  0.74352000  0.09965000  1.0 -0.0897949137
C  C568  1  0.82106000  0.62344000  0.84747000  1.0 -0.0897949137
C  C569  1  0.51034000  0.78048000  0.09225000  1.0 -0.0272966449
C  C570  1  0.85138000  0.60225000  0.85300000  1.0 -0.0187440113
C  C571  1  0.48247000  0.80510000  0.10677000  1.0 0.6067858541
C  C572  1  0.88529000  0.62204000  0.85955000  1.0 0.5843264853
C  C573  1  0.53888000  0.79309000  0.07169000  1.0 -0.1384390009
C  C574  1  0.84868000  0.56520000  0.85560000  1.0 -0.1384390009
C  C575  1  0.56060000  0.76807000  0.05572000  1.0 -0.0187440113
C  C576  1  0.81500000  0.55068000  0.85363000  1.0 -0.0187440113
C  C577  1  0.58410000  0.77215000  0.02850000  1.0 -0.0187440113
C  C578  1  0.80405000  0.51690000  0.85984000  1.0 -0.0137616532
C  C579  1  0.59753000  0.80244000  0.01279000  1.0 -0.1172157972
C  C580  1  0.82314000  0.48707000  0.87026000  1.0 -0.1384390009
C  C581  1  0.63709000  0.82858000  0.96635000  1.0 0.5870359687
C  C582  1  0.82003000  0.42481000  0.89630000  1.0 0.6029158112
C  C583  1  0.62241000  0.79776000  0.98527000  1.0 -0.0446675192
C  C584  1  0.80370000  0.45627000  0.87842000  1.0 -0.0272966449
C  C585  1  0.62822000  0.76354000  0.97050000  1.0 -0.0757062147
C  C586  1  0.76658000  0.45585000  0.87282000  1.0 -0.0897949137
C  C587  1  0.61412000  0.73342000  0.98717000  1.0 -0.188384117
C  C588  1  0.74784000  0.48768000  0.86778000  1.0 -0.188384117
C  C589  1  0.59303000  0.73862000  0.01731000  1.0 0.1205576175
C  C590  1  0.76751000  0.51828000  0.86129000  1.0 0.1205576175
C  C591  1  0.57591000  0.67640000  0.02784000  1.0 0.1620965543
C  C592  1  0.72436000  0.56594000  0.87753000  1.0 0.1620965543
C  C593  1  0.56365000  0.66790000  0.99386000  1.0 -0.1484745522
C  C594  1  0.69236000  0.57284000  0.86001000  1.0 -0.159762631
C  C595  1  0.58049000  0.64151000  0.97418000  1.0 -0.1484745522
C  C596  1  0.66410000  0.58810000  0.87830000  1.0 -0.1484745522
C  C597  1  0.60817000  0.62155000  0.98937000  1.0 0.1662823538
C  C598  1  0.66524000  0.59200000  0.91506000  1.0 0.1620965543
C  C599  1  0.72650000  0.57217000  0.91456000  1.0 -0.159762631
C  C600  1  0.69701000  0.58495000  0.93334000  1.0 -0.1384390009
C  C601  1  0.88337000  0.37357000  0.52530000  1.0 -0.1484745522
C  C602  1  0.89940000  0.34596000  0.54436000  1.0 -0.159762631
C  C603  1  0.94376000  0.26804000  0.56042000  1.0 0.112894188
C  C604  1  0.71520000  0.42869000  0.35146000  1.0 0.1205576175
C  C605  1  0.96940000  0.28115000  0.58344000  1.0 -0.1956086005
C  C606  1  0.71264000  0.39179000  0.34752000  1.0 -0.1835953508
C  C607  1  0.99244000  0.25648000  0.59965000  1.0 -0.0897949137
C  C608  1  0.67894000  0.37656000  0.34747000  1.0 -0.0897949137
C  C609  1  0.98966000  0.21952000  0.59225000  1.0 -0.0272966449
C  C610  1  0.64862000  0.39775000  0.35300000  1.0 -0.0187440113
C  C611  1  0.01753000  0.19490000  0.60677000  1.0 0.6029158112
C  C612  1  0.61471000  0.37796000  0.35955000  1.0 0.5843264853
C  C613  1  0.96112000  0.20691000  0.57169000  1.0 -0.1333517212
C  C614  1  0.65132000  0.43480000  0.35560000  1.0 -0.1384390009
C  C615  1  0.93940000  0.23193000  0.55572000  1.0 -0.0137616532
C  C616  1  0.68500000  0.44932000  0.35363000  1.0 -0.0187440113
C  C617  1  0.91590000  0.22785000  0.52850000  1.0 -0.0187440113
C  C618  1  0.69595000  0.48310000  0.35984000  1.0 -0.0137616532
C  C619  1  0.90247000  0.19756000  0.51279000  1.0 -0.1172157972
C  C620  1  0.67686000  0.51293000  0.37026000  1.0 -0.1384390009
C  C621  1  0.86291000  0.17142000  0.46635000  1.0 0.5870359687
C  C622  1  0.67997000  0.57519000  0.39630000  1.0 0.6029158112
C  C623  1  0.87759000  0.20224000  0.48527000  1.0 -0.0455805899
C  C624  1  0.69630000  0.54373000  0.37842000  1.0 -0.0272966449
C  C625  1  0.87178000  0.23646000  0.47050000  1.0 -0.0757062147
C  C626  1  0.73342000  0.54415000  0.37282000  1.0 -0.0897949137
C  C627  1  0.88588000  0.26658000  0.48717000  1.0 -0.188384117
C  C628  1  0.75216000  0.51232000  0.36778000  1.0 -0.188384117
C  C629  1  0.90697000  0.26138000  0.51731000  1.0 0.1205576175
C  C630  1  0.73249000  0.48172000  0.36129000  1.0 0.1205576175
C  C631  1  0.92409000  0.32360000  0.52784000  1.0 0.1662823538
C  C632  1  0.77564000  0.43406000  0.37753000  1.0 0.1620965543
C  C633  1  0.93635000  0.33210000  0.49386000  1.0 -0.1484745522
C  C634  1  0.80764000  0.42716000  0.36001000  1.0 -0.159762631
C  C635  1  0.91951000  0.35849000  0.47418000  1.0 -0.1384390009
C  C636  1  0.83590000  0.41190000  0.37830000  1.0 -0.1484745522
C  C637  1  0.89183000  0.37845000  0.48937000  1.0 0.1662823538
C  C638  1  0.83476000  0.40800000  0.41506000  1.0 0.1620965543
C  C639  1  0.77350000  0.42783000  0.41456000  1.0 -0.159762631
C  C640  1  0.80299000  0.41505000  0.43334000  1.0 -0.1384390009
C  C641  1  0.47470000  0.38337000  0.12643000  1.0 -0.1484745522
C  C642  1  0.45564000  0.39940000  0.15404000  1.0 -0.1484745522
C  C643  1  0.43958000  0.44376000  0.23196000  1.0 0.112894188
C  C644  1  0.64854000  0.21520000  0.07131000  1.0 0.112894188
C  C645  1  0.41656000  0.46940000  0.21885000  1.0 -0.1956086005
C  C646  1  0.65248000  0.21264000  0.10821000  1.0 -0.1835953508
C  C647  1  0.40035000  0.49244000  0.24352000  1.0 -0.0897949137
C  C648  1  0.65253000  0.17894000  0.12344000  1.0 -0.0897949137
C  C649  1  0.40775000  0.48966000  0.28048000  1.0 -0.0272966449
C  C650  1  0.64700000  0.14862000  0.10225000  1.0 -0.0187440113
C  C651  1  0.39323000  0.51753000  0.30510000  1.0 0.6067858541
C  C652  1  0.64045000  0.11471000  0.12204000  1.0 0.5843264853
C  C653  1  0.42831000  0.46112000  0.29309000  1.0 -0.1333517212
C  C654  1  0.64440000  0.15132000  0.06520000  1.0 -0.1384390009
C  C655  1  0.44428000  0.43940000  0.26807000  1.0 -0.0187440113
C  C656  1  0.64637000  0.18500000  0.05068000  1.0 -0.0187440113
C  C657  1  0.47150000  0.41590000  0.27215000  1.0 -0.0187440113
C  C658  1  0.64016000  0.19595000  0.01690000  1.0 -0.0187440113
C  C659  1  0.48721000  0.40247000  0.30244000  1.0 -0.1172157972
C  C660  1  0.62974000  0.17686000  0.98707000  1.0 -0.1384390009
C  C661  1  0.53365000  0.36291000  0.32858000  1.0 0.5870359687
C  C662  1  0.60370000  0.17997000  0.92481000  1.0 0.6029158112
C  C663  1  0.51473000  0.37759000  0.29776000  1.0 -0.0446675192
C  C664  1  0.62158000  0.19630000  0.95627000  1.0 -0.0272966449
C  C665  1  0.52950000  0.37178000  0.26354000  1.0 -0.0757062147
C  C666  1  0.62718000  0.23342000  0.95585000  1.0 -0.0897949137
C  C667  1  0.51283000  0.38588000  0.23342000  1.0 -0.188384117
C  C668  1  0.63222000  0.25216000  0.98768000  1.0 -0.188384117
C  C669  1  0.48269000  0.40697000  0.23862000  1.0 0.1205576175
C  C670  1  0.63871000  0.23249000  0.01828000  1.0 0.112894188
C  C671  1  0.47216000  0.42409000  0.17640000  1.0 0.1620965543
C  C672  1  0.62247000  0.27564000  0.06594000  1.0 0.1620965543
C  C673  1  0.50614000  0.43635000  0.16790000  1.0 -0.1484745522
C  C674  1  0.63999000  0.30764000  0.07284000  1.0 -0.159762631
C  C675  1  0.52582000  0.41951000  0.14151000  1.0 -0.1484745522
C  C676  1  0.62170000  0.33590000  0.08810000  1.0 -0.1484745522
C  C677  1  0.51063000  0.39183000  0.12155000  1.0 0.1662823538
C  C678  1  0.58494000  0.33476000  0.09200000  1.0 0.1620965543
C  C679  1  0.58544000  0.27350000  0.07217000  1.0 -0.159762631
C  C680  1  0.56666000  0.30299000  0.08495000  1.0 -0.1384390009
C  C681  1  0.97470000  0.11663000  0.87357000  1.0 -0.1484745522
C  C682  1  0.95564000  0.10060000  0.84596000  1.0 -0.1484745522
C  C683  1  0.93958000  0.05624000  0.76804000  1.0 0.112894188
C  C684  1  0.14854000  0.28480000  0.92869000  1.0 0.1205576175
C  C685  1  0.91656000  0.03060000  0.78115000  1.0 -0.1956086005
C  C686  1  0.15248000  0.28736000  0.89179000  1.0 -0.1835953508
C  C687  1  0.90035000  0.00756000  0.75648000  1.0 -0.0897949137
C  C688  1  0.15253000  0.32106000  0.87656000  1.0 -0.0897949137
C  C689  1  0.90775000  0.01034000  0.71952000  1.0 -0.0272966449
C  C690  1  0.14700000  0.35138000  0.89775000  1.0 -0.0187440113
C  C691  1  0.89323000  0.98247000  0.69490000  1.0 0.6067858541
C  C692  1  0.14045000  0.38529000  0.87796000  1.0 0.5843264853
C  C693  1  0.92831000  0.03888000  0.70691000  1.0 -0.1333517212
C  C694  1  0.14440000  0.34868000  0.93480000  1.0 -0.1384390009
C  C695  1  0.94428000  0.06060000  0.73193000  1.0 -0.0187440113
C  C696  1  0.14637000  0.31500000  0.94932000  1.0 -0.0187440113
C  C697  1  0.97150000  0.08410000  0.72785000  1.0 -0.0187440113
C  C698  1  0.14016000  0.30405000  0.98310000  1.0 -0.0137616532
C  C699  1  0.98721000  0.09753000  0.69756000  1.0 -0.1172157972
C  C700  1  0.12974000  0.32314000  0.01293000  1.0 -0.1384390009
C  C701  1  0.03365000  0.13709000  0.67142000  1.0 0.5870359687
C  C702  1  0.10370000  0.32003000  0.07519000  1.0 0.6029158112
C  C703  1  0.01473000  0.12241000  0.70224000  1.0 -0.0455805899
C  C704  1  0.12158000  0.30370000  0.04373000  1.0 -0.0272966449
C  C705  1  0.02950000  0.12822000  0.73646000  1.0 -0.0744268518
C  C706  1  0.12718000  0.26658000  0.04415000  1.0 -0.0897949137
C  C707  1  0.01283000  0.11412000  0.76658000  1.0 -0.188384117
C  C708  1  0.13222000  0.24784000  0.01232000  1.0 -0.188384117
C  C709  1  0.98269000  0.09303000  0.76138000  1.0 0.1205576175
C  C710  1  0.13871000  0.26751000  0.98172000  1.0 0.112894188
C  C711  1  0.97216000  0.07591000  0.82360000  1.0 0.1620965543
C  C712  1  0.12247000  0.22436000  0.93406000  1.0 0.1620965543
C  C713  1  0.00614000  0.06365000  0.83210000  1.0 -0.1484745522
C  C714  1  0.13999000  0.19236000  0.92716000  1.0 -0.159762631
C  C715  1  0.02582000  0.08049000  0.85849000  1.0 -0.1484745522
C  C716  1  0.12170000  0.16410000  0.91190000  1.0 -0.1484745522
C  C717  1  0.01063000  0.10817000  0.87845000  1.0 0.1662823538
C  C718  1  0.08494000  0.16524000  0.90800000  1.0 0.1620965543
C  C719  1  0.08544000  0.22650000  0.92783000  1.0 -0.159762631
C  C720  1  0.06666000  0.19701000  0.91505000  1.0 -0.1384390009
C  C721  1  0.02530000  0.61663000  0.62643000  1.0 -0.1484745522
C  C722  1  0.04436000  0.60060000  0.65404000  1.0 -0.1484745522
C  C723  1  0.06042000  0.55624000  0.73196000  1.0 0.112894188
C  C724  1  0.85146000  0.78480000  0.57131000  1.0 0.1205576175
C  C725  1  0.08344000  0.53060000  0.71885000  1.0 -0.1956086005
C  C726  1  0.84752000  0.78736000  0.60821000  1.0 -0.1835953508
C  C727  1  0.09965000  0.50756000  0.74352000  1.0 -0.0897949137
C  C728  1  0.84747000  0.82106000  0.62344000  1.0 -0.0897949137
C  C729  1  0.09225000  0.51034000  0.78048000  1.0 -0.0272966449
C  C730  1  0.85300000  0.85138000  0.60225000  1.0 -0.0187440113
C  C731  1  0.10677000  0.48247000  0.80510000  1.0 0.6067858541
C  C732  1  0.85955000  0.88529000  0.62204000  1.0 0.5843264853
C  C733  1  0.07169000  0.53888000  0.79309000  1.0 -0.1333517212
C  C734  1  0.85560000  0.84868000  0.56520000  1.0 -0.1384390009
C  C735  1  0.05572000  0.56060000  0.76807000  1.0 -0.0187440113
C  C736  1  0.85363000  0.81500000  0.55068000  1.0 -0.0187440113
C  C737  1  0.02850000  0.58410000  0.77215000  1.0 -0.0187440113
C  C738  1  0.85984000  0.80405000  0.51690000  1.0 -0.0137616532
C  C739  1  0.01279000  0.59753000  0.80244000  1.0 -0.1172157972
C  C740  1  0.87026000  0.82314000  0.48707000  1.0 -0.1384390009
C  C741  1  0.96635000  0.63709000  0.82858000  1.0 0.5870359687
C  C742  1  0.89630000  0.82003000  0.42481000  1.0 0.6029158112
C  C743  1  0.98527000  0.62241000  0.79776000  1.0 -0.0446675192
C  C744  1  0.87842000  0.80370000  0.45627000  1.0 -0.0272966449
C  C745  1  0.97050000  0.62822000  0.76354000  1.0 -0.0757062147
C  C746  1  0.87282000  0.76658000  0.45585000  1.0 -0.0897949137
C  C747  1  0.98717000  0.61412000  0.73342000  1.0 -0.188384117
C  C748  1  0.86778000  0.74784000  0.48768000  1.0 -0.188384117
C  C749  1  0.01731000  0.59303000  0.73862000  1.0 0.1205576175
C  C750  1  0.86129000  0.76751000  0.51828000  1.0 0.1205576175
C  C751  1  0.02784000  0.57591000  0.67640000  1.0 0.1620965543
C  C752  1  0.87753000  0.72436000  0.56594000  1.0 0.1620965543
C  C753  1  0.99386000  0.56365000  0.66790000  1.0 -0.1484745522
C  C754  1  0.86001000  0.69236000  0.57284000  1.0 -0.159762631
C  C755  1  0.97418000  0.58049000  0.64151000  1.0 -0.1484745522
C  C756  1  0.87830000  0.66410000  0.58810000  1.0 -0.1484745522
C  C757  1  0.98937000  0.60817000  0.62155000  1.0 0.1662823538
C  C758  1  0.91506000  0.66524000  0.59200000  1.0 0.1620965543
C  C759  1  0.91456000  0.72650000  0.57217000  1.0 -0.159762631
C  C760  1  0.93334000  0.69701000  0.58495000  1.0 -0.1384390009
C  C761  1  0.52530000  0.88337000  0.37357000  1.0 -0.1484745522
C  C762  1  0.54436000  0.89940000  0.34596000  1.0 -0.159762631
C  C763  1  0.56042000  0.94376000  0.26804000  1.0 0.112894188
C  C764  1  0.35146000  0.71520000  0.42869000  1.0 0.1205576175
C  C765  1  0.58344000  0.96940000  0.28115000  1.0 -0.1956086005
C  C766  1  0.34752000  0.71264000  0.39179000  1.0 -0.1835953508
C  C767  1  0.59965000  0.99244000  0.25648000  1.0 -0.0897949137
C  C768  1  0.34747000  0.67894000  0.37656000  1.0 -0.0897949137
C  C769  1  0.59225000  0.98966000  0.21952000  1.0 -0.0272966449
C  C770  1  0.35300000  0.64862000  0.39775000  1.0 -0.0187440113
C  C771  1  0.60677000  0.01753000  0.19490000  1.0 0.6029158112
C  C772  1  0.35955000  0.61471000  0.37796000  1.0 0.5843264853
C  C773  1  0.57169000  0.96112000  0.20691000  1.0 -0.1384390009
C  C774  1  0.35560000  0.65132000  0.43480000  1.0 -0.1384390009
C  C775  1  0.55572000  0.93940000  0.23193000  1.0 -0.0137616532
C  C776  1  0.35363000  0.68500000  0.44932000  1.0 -0.0187440113
C  C777  1  0.52850000  0.91590000  0.22785000  1.0 -0.0187440113
C  C778  1  0.35984000  0.69595000  0.48310000  1.0 -0.0137616532
C  C779  1  0.51279000  0.90247000  0.19756000  1.0 -0.1172157972
C  C780  1  0.37026000  0.67686000  0.51293000  1.0 -0.1384390009
C  C781  1  0.46635000  0.86291000  0.17142000  1.0 0.5870359687
C  C782  1  0.39630000  0.67997000  0.57519000  1.0 0.6029158112
C  C783  1  0.48527000  0.87759000  0.20224000  1.0 -0.0455805899
C  C784  1  0.37842000  0.69630000  0.54373000  1.0 -0.0272966449
C  C785  1  0.47050000  0.87178000  0.23646000  1.0 -0.0757062147
C  C786  1  0.37282000  0.73342000  0.54415000  1.0 -0.0897949137
C  C787  1  0.48717000  0.88588000  0.26658000  1.0 -0.188384117
C  C788  1  0.36778000  0.75216000  0.51232000  1.0 -0.188384117
C  C789  1  0.51731000  0.90697000  0.26138000  1.0 0.1205576175
C  C790  1  0.36129000  0.73249000  0.48172000  1.0 0.1205576175
C  C791  1  0.52784000  0.92409000  0.32360000  1.0 0.1620965543
C  C792  1  0.37753000  0.77564000  0.43406000  1.0 0.1620965543
C  C793  1  0.49386000  0.93635000  0.33210000  1.0 -0.1484745522
C  C794  1  0.36001000  0.80764000  0.42716000  1.0 -0.159762631
C  C795  1  0.47418000  0.91951000  0.35849000  1.0 -0.1484745522
C  C796  1  0.37830000  0.83590000  0.41190000  1.0 -0.1484745522
C  C797  1  0.48937000  0.89183000  0.37845000  1.0 0.1662823538
C  C798  1  0.41506000  0.83476000  0.40800000  1.0 0.1620965543
C  C799  1  0.41456000  0.77350000  0.42783000  1.0 -0.159762631
C  C800  1  0.43334000  0.80299000  0.41505000  1.0 -0.1384390009
C  C801  1  0.12643000  0.47470000  0.38337000  1.0 -0.1484745522
C  C802  1  0.15404000  0.45564000  0.39940000  1.0 -0.1484745522
C  C803  1  0.23196000  0.43958000  0.44376000  1.0 0.112894188
C  C804  1  0.07131000  0.64854000  0.21520000  1.0 0.112894188
C  C805  1  0.21885000  0.41656000  0.46940000  1.0 -0.1956086005
C  C806  1  0.10821000  0.65248000  0.21264000  1.0 -0.1835953508
C  C807  1  0.24352000  0.40035000  0.49244000  1.0 -0.0897949137
C  C808  1  0.12344000  0.65253000  0.17894000  1.0 -0.0897949137
C  C809  1  0.28048000  0.40775000  0.48966000  1.0 -0.0272966449
C  C810  1  0.10225000  0.64700000  0.14862000  1.0 -0.0187440113
C  C811  1  0.30510000  0.39323000  0.51753000  1.0 0.6067858541
C  C812  1  0.12204000  0.64045000  0.11471000  1.0 0.5843264853
C  C813  1  0.29309000  0.42831000  0.46112000  1.0 -0.1333517212
C  C814  1  0.06520000  0.64440000  0.15132000  1.0 -0.1384390009
C  C815  1  0.26807000  0.44428000  0.43940000  1.0 -0.0187440113
C  C816  1  0.05068000  0.64637000  0.18500000  1.0 -0.0187440113
C  C817  1  0.27215000  0.47150000  0.41590000  1.0 -0.0187440113
C  C818  1  0.01690000  0.64016000  0.19595000  1.0 -0.0187440113
C  C819  1  0.30244000  0.48721000  0.40247000  1.0 -0.1172157972
C  C820  1  0.98707000  0.62974000  0.17686000  1.0 -0.1384390009
C  C821  1  0.32858000  0.53365000  0.36291000  1.0 0.5870359687
C  C822  1  0.92481000  0.60370000  0.17997000  1.0 0.6029158112
C  C823  1  0.29776000  0.51473000  0.37759000  1.0 -0.0446675192
C  C824  1  0.95627000  0.62158000  0.19630000  1.0 -0.0272966449
C  C825  1  0.26354000  0.52950000  0.37178000  1.0 -0.0757062147
C  C826  1  0.95585000  0.62718000  0.23342000  1.0 -0.0897949137
C  C827  1  0.23342000  0.51283000  0.38588000  1.0 -0.188384117
C  C828  1  0.98768000  0.63222000  0.25216000  1.0 -0.188384117
C  C829  1  0.23862000  0.48269000  0.40697000  1.0 0.1205576175
C  C830  1  0.01828000  0.63871000  0.23249000  1.0 0.112894188
C  C831  1  0.17640000  0.47216000  0.42409000  1.0 0.1620965543
C  C832  1  0.06594000  0.62247000  0.27564000  1.0 0.1620965543
C  C833  1  0.16790000  0.50614000  0.43635000  1.0 -0.1484745522
C  C834  1  0.07284000  0.63999000  0.30764000  1.0 -0.159762631
C  C835  1  0.14151000  0.52582000  0.41951000  1.0 -0.1484745522
C  C836  1  0.08810000  0.62170000  0.33590000  1.0 -0.1484745522
C  C837  1  0.12155000  0.51063000  0.39183000  1.0 0.1662823538
C  C838  1  0.09200000  0.58494000  0.33476000  1.0 0.1620965543
C  C839  1  0.07217000  0.58544000  0.27350000  1.0 -0.159762631
C  C840  1  0.08495000  0.56666000  0.30299000  1.0 -0.1384390009
C  C841  1  0.87357000  0.97470000  0.11663000  1.0 -0.1484745522
C  C842  1  0.84596000  0.95564000  0.10060000  1.0 -0.1484745522
C  C843  1  0.76804000  0.93958000  0.05624000  1.0 0.112894188
C  C844  1  0.92869000  0.14854000  0.28480000  1.0 0.1205576175
C  C845  1  0.78115000  0.91656000  0.03060000  1.0 -0.188384117
C  C846  1  0.89179000  0.15248000  0.28736000  1.0 -0.1835953508
C  C847  1  0.75648000  0.90035000  0.00756000  1.0 -0.0897949137
C  C848  1  0.87656000  0.15253000  0.32106000  1.0 -0.0897949137
C  C849  1  0.71952000  0.90775000  0.01034000  1.0 -0.0272966449
C  C850  1  0.89775000  0.14700000  0.35138000  1.0 -0.0187440113
C  C851  1  0.69490000  0.89323000  0.98247000  1.0 0.6067858541
C  C852  1  0.87796000  0.14045000  0.38529000  1.0 0.5843264853
C  C853  1  0.70691000  0.92831000  0.03888000  1.0 -0.1333517212
C  C854  1  0.93480000  0.14440000  0.34868000  1.0 -0.1384390009
C  C855  1  0.73193000  0.94428000  0.06060000  1.0 -0.0187440113
C  C856  1  0.94932000  0.14637000  0.31500000  1.0 -0.0187440113
C  C857  1  0.72785000  0.97150000  0.08410000  1.0 -0.0187440113
C  C858  1  0.98310000  0.14016000  0.30405000  1.0 -0.0137616532
C  C859  1  0.69756000  0.98721000  0.09753000  1.0 -0.1172157972
C  C860  1  0.01293000  0.12974000  0.32314000  1.0 -0.1384390009
C  C861  1  0.67142000  0.03365000  0.13709000  1.0 0.5870359687
C  C862  1  0.07519000  0.10370000  0.32003000  1.0 0.6029158112
C  C863  1  0.70224000  0.01473000  0.12241000  1.0 -0.0455805899
C  C864  1  0.04373000  0.12158000  0.30370000  1.0 -0.0272966449
C  C865  1  0.73646000  0.02950000  0.12822000  1.0 -0.0757062147
C  C866  1  0.04415000  0.12718000  0.26658000  1.0 -0.0897949137
C  C867  1  0.76658000  0.01283000  0.11412000  1.0 -0.188384117
C  C868  1  0.01232000  0.13222000  0.24784000  1.0 -0.188384117
C  C869  1  0.76138000  0.98269000  0.09303000  1.0 0.1205576175
C  C870  1  0.98172000  0.13871000  0.26751000  1.0 0.112894188
C  C871  1  0.82360000  0.97216000  0.07591000  1.0 0.1620965543
C  C872  1  0.93406000  0.12247000  0.22436000  1.0 0.1620965543
C  C873  1  0.83210000  0.00614000  0.06365000  1.0 -0.1484745522
C  C874  1  0.92716000  0.13999000  0.19236000  1.0 -0.159762631
C  C875  1  0.85849000  0.02582000  0.08049000  1.0 -0.1484745522
C  C876  1  0.91190000  0.12170000  0.16410000  1.0 -0.1484745522
C  C877  1  0.87845000  0.01063000  0.10817000  1.0 0.1662823538
C  C878  1  0.90800000  0.08494000  0.16524000  1.0 0.1620965543
C  C879  1  0.92783000  0.08544000  0.22650000  1.0 -0.159762631
C  C880  1  0.91505000  0.06666000  0.19701000  1.0 -0.1384390009
C  C881  1  0.62643000  0.02530000  0.61663000  1.0 -0.1484745522
C  C882  1  0.65404000  0.04436000  0.60060000  1.0 -0.1484745522
C  C883  1  0.73196000  0.06042000  0.55624000  1.0 0.112894188
C  C884  1  0.57131000  0.85146000  0.78480000  1.0 0.1205576175
C  C885  1  0.71885000  0.08344000  0.53060000  1.0 -0.1956086005
C  C886  1  0.60821000  0.84752000  0.78736000  1.0 -0.1835953508
C  C887  1  0.74352000  0.09965000  0.50756000  1.0 -0.0897949137
C  C888  1  0.62344000  0.84747000  0.82106000  1.0 -0.0897949137
C  C889  1  0.78048000  0.09225000  0.51034000  1.0 -0.0272966449
C  C890  1  0.60225000  0.85300000  0.85138000  1.0 -0.0187440113
C  C891  1  0.80510000  0.10677000  0.48247000  1.0 0.6067858541
C  C892  1  0.62204000  0.85955000  0.88529000  1.0 0.5843264853
C  C893  1  0.79309000  0.07169000  0.53888000  1.0 -0.1333517212
C  C894  1  0.56520000  0.85560000  0.84868000  1.0 -0.1384390009
C  C895  1  0.76807000  0.05572000  0.56060000  1.0 -0.0187440113
C  C896  1  0.55068000  0.85363000  0.81500000  1.0 -0.0187440113
C  C897  1  0.77215000  0.02850000  0.58410000  1.0 -0.0187440113
C  C898  1  0.51690000  0.85984000  0.80405000  1.0 -0.0137616532
C  C899  1  0.80244000  0.01279000  0.59753000  1.0 -0.1172157972
C  C900  1  0.48707000  0.87026000  0.82314000  1.0 -0.1384390009
C  C901  1  0.82858000  0.96635000  0.63709000  1.0 0.5870359687
C  C902  1  0.42481000  0.89630000  0.82003000  1.0 0.6029158112
C  C903  1  0.79776000  0.98527000  0.62241000  1.0 -0.0455805899
C  C904  1  0.45627000  0.87842000  0.80370000  1.0 -0.0272966449
C  C905  1  0.76354000  0.97050000  0.62822000  1.0 -0.0757062147
C  C906  1  0.45585000  0.87282000  0.76658000  1.0 -0.0897949137
C  C907  1  0.73342000  0.98717000  0.61412000  1.0 -0.188384117
C  C908  1  0.48768000  0.86778000  0.74784000  1.0 -0.188384117
C  C909  1  0.73862000  0.01731000  0.59303000  1.0 0.1205576175
C  C910  1  0.51828000  0.86129000  0.76751000  1.0 0.1205576175
C  C911  1  0.67640000  0.02784000  0.57591000  1.0 0.1620965543
C  C912  1  0.56594000  0.87753000  0.72436000  1.0 0.1620965543
C  C913  1  0.66790000  0.99386000  0.56365000  1.0 -0.1484745522
C  C914  1  0.57284000  0.86001000  0.69236000  1.0 -0.159762631
C  C915  1  0.64151000  0.97418000  0.58049000  1.0 -0.1484745522
C  C916  1  0.58810000  0.87830000  0.66410000  1.0 -0.1484745522
C  C917  1  0.62155000  0.98937000  0.60817000  1.0 0.1662823538
C  C918  1  0.59200000  0.91506000  0.66524000  1.0 0.1620965543
C  C919  1  0.57217000  0.91456000  0.72650000  1.0 -0.159762631
C  C920  1  0.58495000  0.93334000  0.69701000  1.0 -0.1384390009
C  C921  1  0.37357000  0.52530000  0.88337000  1.0 -0.1484745522
C  C922  1  0.34596000  0.54436000  0.89940000  1.0 -0.159762631
C  C923  1  0.26804000  0.56042000  0.94376000  1.0 0.112894188
C  C924  1  0.42869000  0.35146000  0.71520000  1.0 0.1205576175
C  C925  1  0.28115000  0.58344000  0.96940000  1.0 -0.1956086005
C  C926  1  0.39179000  0.34752000  0.71264000  1.0 -0.1835953508
C  C927  1  0.25648000  0.59965000  0.99244000  1.0 -0.0897949137
C  C928  1  0.37656000  0.34747000  0.67894000  1.0 -0.0897949137
C  C929  1  0.21952000  0.59225000  0.98966000  1.0 -0.0272966449
C  C930  1  0.39775000  0.35300000  0.64862000  1.0 -0.0187440113
C  C931  1  0.19490000  0.60677000  0.01753000  1.0 0.6029158112
C  C932  1  0.37796000  0.35955000  0.61471000  1.0 0.5843264853
C  C933  1  0.20691000  0.57169000  0.96112000  1.0 -0.1333517212
C  C934  1  0.43480000  0.35560000  0.65132000  1.0 -0.1384390009
C  C935  1  0.23193000  0.55572000  0.93940000  1.0 -0.0137616532
C  C936  1  0.44932000  0.35363000  0.68500000  1.0 -0.0187440113
C  C937  1  0.22785000  0.52850000  0.91590000  1.0 -0.0187440113
C  C938  1  0.48310000  0.35984000  0.69595000  1.0 -0.0137616532
C  C939  1  0.19756000  0.51279000  0.90247000  1.0 -0.1172157972
C  C940  1  0.51293000  0.37026000  0.67686000  1.0 -0.1384390009
C  C941  1  0.17142000  0.46635000  0.86291000  1.0 0.5870359687
C  C942  1  0.57519000  0.39630000  0.67997000  1.0 0.6029158112
C  C943  1  0.20224000  0.48527000  0.87759000  1.0 -0.0455805899
C  C944  1  0.54373000  0.37842000  0.69630000  1.0 -0.0272966449
C  C945  1  0.23646000  0.47050000  0.87178000  1.0 -0.0744268518
C  C946  1  0.54415000  0.37282000  0.73342000  1.0 -0.0897949137
C  C947  1  0.26658000  0.48717000  0.88588000  1.0 -0.188384117
C  C948  1  0.51232000  0.36778000  0.75216000  1.0 -0.188384117
C  C949  1  0.26138000  0.51731000  0.90697000  1.0 0.1205576175
C  C950  1  0.48172000  0.36129000  0.73249000  1.0 0.1205576175
C  C951  1  0.32360000  0.52784000  0.92409000  1.0 0.1662823538
C  C952  1  0.43406000  0.37753000  0.77564000  1.0 0.1620965543
C  C953  1  0.33210000  0.49386000  0.93635000  1.0 -0.1484745522
C  C954  1  0.42716000  0.36001000  0.80764000  1.0 -0.159762631
C  C955  1  0.35849000  0.47418000  0.91951000  1.0 -0.1384390009
C  C956  1  0.41190000  0.37830000  0.83590000  1.0 -0.1484745522
C  C957  1  0.37845000  0.48937000  0.89183000  1.0 0.1620965543
C  C958  1  0.40800000  0.41506000  0.83476000  1.0 0.1620965543
C  C959  1  0.42783000  0.41456000  0.77350000  1.0 -0.159762631
C  C960  1  0.41505000  0.43334000  0.80299000  1.0 -0.1384390009
N  N1  1  0.57677000  0.78644000  0.53725000  1.0 -0.0897949137
N  N2  1  0.75521000  0.94786000  0.35929000  1.0 -0.1128241323
N  N3  1  0.63394000  0.89635000  0.46765000  1.0 -0.1128241323
N  N4  1  0.63532000  0.89356000  0.43406000  1.0 -0.1384390009
N  N5  1  0.92323000  0.21356000  0.03725000  1.0 -0.0897949137
N  N6  1  0.74479000  0.05214000  0.85929000  1.0 -0.1128241323
N  N7  1  0.86606000  0.10365000  0.96765000  1.0 -0.1128241323
N  N8  1  0.86468000  0.10644000  0.93406000  1.0 -0.1333517212
N  N9  1  0.42323000  0.28644000  0.96275000  1.0 -0.0897949137
N  N10  1  0.24479000  0.44786000  0.14071000  1.0 -0.1128241323
N  N11  1  0.36606000  0.39635000  0.03235000  1.0 -0.1128241323
N  N12  1  0.36468000  0.39356000  0.06594000  1.0 -0.1384390009
N  N13  1  0.07677000  0.71356000  0.46275000  1.0 -0.0897949137
N  N14  1  0.25521000  0.55214000  0.64071000  1.0 -0.1128241323
N  N15  1  0.13394000  0.60365000  0.53235000  1.0 -0.1128241323
N  N16  1  0.13532000  0.60644000  0.56594000  1.0 -0.1384390009
N  N17  1  0.53725000  0.57677000  0.78644000  1.0 -0.0897949137
N  N18  1  0.35929000  0.75521000  0.94786000  1.0 -0.1128241323
N  N19  1  0.46765000  0.63394000  0.89635000  1.0 -0.1128241323
N  N20  1  0.43406000  0.63532000  0.89356000  1.0 -0.1384390009
N  N21  1  0.03725000  0.92323000  0.21356000  1.0 -0.0897949137
N  N22  1  0.85929000  0.74479000  0.05214000  1.0 -0.1128241323
N  N23  1  0.96765000  0.86606000  0.10365000  1.0 -0.1128241323
N  N24  1  0.93406000  0.86468000  0.10644000  1.0 -0.1384390009
N  N25  1  0.96275000  0.42323000  0.28644000  1.0 -0.0897949137
N  N26  1  0.14071000  0.24479000  0.44786000  1.0 -0.1128241323
N  N27  1  0.03235000  0.36606000  0.39635000  1.0 -0.1128241323
N  N28  1  0.06594000  0.36468000  0.39356000  1.0 -0.1384390009
N  N29  1  0.46275000  0.07677000  0.71356000  1.0 -0.0897949137
N  N30  1  0.64071000  0.25521000  0.55214000  1.0 -0.1128241323
N  N31  1  0.53235000  0.13394000  0.60365000  1.0 -0.1128241323
N  N32  1  0.56594000  0.13532000  0.60644000  1.0 -0.1333517212
N  N33  1  0.78644000  0.53725000  0.57677000  1.0 -0.0897949137
N  N34  1  0.94786000  0.35929000  0.75521000  1.0 -0.1128241323
N  N35  1  0.89635000  0.46765000  0.63394000  1.0 -0.1128241323
N  N36  1  0.89356000  0.43406000  0.63532000  1.0 -0.1384390009
N  N37  1  0.21356000  0.03725000  0.92323000  1.0 -0.0897949137
N  N38  1  0.05214000  0.85929000  0.74479000  1.0 -0.1128241323
N  N39  1  0.10365000  0.96765000  0.86606000  1.0 -0.1128241323
N  N40  1  0.10644000  0.93406000  0.86468000  1.0 -0.1384390009
N  N41  1  0.28644000  0.96275000  0.42323000  1.0 -0.0897949137
N  N42  1  0.44786000  0.14071000  0.24479000  1.0 -0.1128241323
N  N43  1  0.39635000  0.03235000  0.36606000  1.0 -0.1128241323
N  N44  1  0.39356000  0.06594000  0.36468000  1.0 -0.1384390009
N  N45  1  0.71356000  0.46275000  0.07677000  1.0 -0.0897949137
N  N46  1  0.55214000  0.64071000  0.25521000  1.0 -0.1128241323
N  N47  1  0.60365000  0.53235000  0.13394000  1.0 -0.1128241323
N  N48  1  0.60644000  0.56594000  0.13532000  1.0 -0.1384390009
N  N49  1  0.42323000  0.21356000  0.46275000  1.0 -0.0897949137
N  N50  1  0.24479000  0.05214000  0.64071000  1.0 -0.1128241323
N  N51  1  0.36606000  0.10365000  0.53235000  1.0 -0.1128241323
N  N52  1  0.36468000  0.10644000  0.56594000  1.0 -0.1384390009
N  N53  1  0.07677000  0.78644000  0.96275000  1.0 -0.0897949137
N  N54  1  0.25521000  0.94786000  0.14071000  1.0 -0.1128241323
N  N55  1  0.13394000  0.89635000  0.03235000  1.0 -0.1128241323
N  N56  1  0.13532000  0.89356000  0.06594000  1.0 -0.1384390009
N  N57  1  0.57677000  0.71356000  0.03725000  1.0 -0.0897949137
N  N58  1  0.75521000  0.55214000  0.85929000  1.0 -0.1128241323
N  N59  1  0.63394000  0.60365000  0.96765000  1.0 -0.1128241323
N  N60  1  0.63532000  0.60644000  0.93406000  1.0 -0.1384390009
N  N61  1  0.92323000  0.28644000  0.53725000  1.0 -0.0897949137
N  N62  1  0.74479000  0.44786000  0.35929000  1.0 -0.1128241323
N  N63  1  0.86606000  0.39635000  0.46765000  1.0 -0.1128241323
N  N64  1  0.86468000  0.39356000  0.43406000  1.0 -0.1333517212
N  N65  1  0.46275000  0.42323000  0.21356000  1.0 -0.0897949137
N  N66  1  0.64071000  0.24479000  0.05214000  1.0 -0.1128241323
N  N67  1  0.53235000  0.36606000  0.10365000  1.0 -0.1128241323
N  N68  1  0.56594000  0.36468000  0.10644000  1.0 -0.1384390009
N  N69  1  0.96275000  0.07677000  0.78644000  1.0 -0.0897949137
N  N70  1  0.14071000  0.25521000  0.94786000  1.0 -0.1128241323
N  N71  1  0.03235000  0.13394000  0.89635000  1.0 -0.1128241323
N  N72  1  0.06594000  0.13532000  0.89356000  1.0 -0.1384390009
N  N73  1  0.03725000  0.57677000  0.71356000  1.0 -0.0897949137
N  N74  1  0.85929000  0.75521000  0.55214000  1.0 -0.1128241323
N  N75  1  0.96765000  0.63394000  0.60365000  1.0 -0.1128241323
N  N76  1  0.93406000  0.63532000  0.60644000  1.0 -0.1384390009
N  N77  1  0.53725000  0.92323000  0.28644000  1.0 -0.0897949137
N  N78  1  0.35929000  0.74479000  0.44786000  1.0 -0.1128241323
N  N79  1  0.46765000  0.86606000  0.39635000  1.0 -0.1128241323
N  N80  1  0.43406000  0.86468000  0.39356000  1.0 -0.1384390009
N  N81  1  0.21356000  0.46275000  0.42323000  1.0 -0.0897949137
N  N82  1  0.05214000  0.64071000  0.24479000  1.0 -0.1128241323
N  N83  1  0.10365000  0.53235000  0.36606000  1.0 -0.1128241323
N  N84  1  0.10644000  0.56594000  0.36468000  1.0 -0.1384390009
N  N85  1  0.78644000  0.96275000  0.07677000  1.0 -0.0897949137
N  N86  1  0.94786000  0.14071000  0.25521000  1.0 -0.1128241323
N  N87  1  0.89635000  0.03235000  0.13394000  1.0 -0.1128241323
N  N88  1  0.89356000  0.06594000  0.13532000  1.0 -0.1384390009
N  N89  1  0.71356000  0.03725000  0.57677000  1.0 -0.0897949137
N  N90  1  0.55214000  0.85929000  0.75521000  1.0 -0.1128241323
N  N91  1  0.60365000  0.96765000  0.63394000  1.0 -0.1128241323
N  N92  1  0.60644000  0.93406000  0.63532000  1.0 -0.1384390009
N  N93  1  0.28644000  0.53725000  0.92323000  1.0 -0.0897949137
N  N94  1  0.44786000  0.35929000  0.74479000  1.0 -0.1128241323
N  N95  1  0.39635000  0.46765000  0.86606000  1.0 -0.1128241323
N  N96  1  0.39356000  0.43406000  0.86468000  1.0 -0.1384390009
O  O1  1  0.45921000  0.70844000  0.62841000  1.0 -0.5100509492
O  O2  1  0.88668000  0.84584000  0.34712000  1.0 -0.4906979069
O  O3  1  0.47906000  0.66331000  0.59324000  1.0 -0.5100509492
O  O4  1  0.90848000  0.89128000  0.38126000  1.0 -0.4777274003
O  O5  1  0.61968000  0.64163000  0.46784000  1.0 -0.5031956544
O  O6  1  0.84795000  0.07014000  0.41603000  1.0 -0.516549466
O  O7  1  0.66463000  0.67630000  0.44619000  1.0 -0.4906979069
O  O8  1  0.80227000  0.10477000  0.39622000  1.0 -0.5100509492
O  O9  1  0.04079000  0.29156000  0.12841000  1.0 -0.5100509492
O  O10  1  0.61332000  0.15416000  0.84712000  1.0 -0.4906979069
O  O11  1  0.02094000  0.33669000  0.09324000  1.0 -0.5100509492
O  O12  1  0.59152000  0.10872000  0.88126000  1.0 -0.4777274003
O  O13  1  0.88032000  0.35837000  0.96784000  1.0 -0.5031956544
O  O14  1  0.65205000  0.92986000  0.91603000  1.0 -0.516549466
O  O15  1  0.83537000  0.32370000  0.94619000  1.0 -0.4906979069
O  O16  1  0.69773000  0.89523000  0.89622000  1.0 -0.5100509492
O  O17  1  0.54079000  0.20844000  0.87159000  1.0 -0.5100509492
O  O18  1  0.11332000  0.34584000  0.15288000  1.0 -0.4906979069
O  O19  1  0.52094000  0.16331000  0.90676000  1.0 -0.5100509492
O  O20  1  0.09152000  0.39128000  0.11874000  1.0 -0.4777274003
O  O21  1  0.38032000  0.14163000  0.03216000  1.0 -0.5031956544
O  O22  1  0.15205000  0.57014000  0.08397000  1.0 -0.516549466
O  O23  1  0.33537000  0.17630000  0.05381000  1.0 -0.4906979069
O  O24  1  0.19773000  0.60477000  0.10378000  1.0 -0.5100509492
O  O25  1  0.95921000  0.79156000  0.37159000  1.0 -0.5100509492
O  O26  1  0.38668000  0.65416000  0.65288000  1.0 -0.4906979069
O  O27  1  0.97906000  0.83669000  0.40676000  1.0 -0.516549466
O  O28  1  0.40848000  0.60872000  0.61874000  1.0 -0.4777274003
O  O29  1  0.11968000  0.85837000  0.53216000  1.0 -0.5031956544
O  O30  1  0.34795000  0.42986000  0.58397000  1.0 -0.516549466
O  O31  1  0.16463000  0.82370000  0.55381000  1.0 -0.4906979069
O  O32  1  0.30227000  0.39523000  0.60378000  1.0 -0.5100509492
O  O33  1  0.62841000  0.45921000  0.70844000  1.0 -0.5100509492
O  O34  1  0.34712000  0.88668000  0.84584000  1.0 -0.4906979069
O  O35  1  0.59324000  0.47906000  0.66331000  1.0 -0.516549466
O  O36  1  0.38126000  0.90848000  0.89128000  1.0 -0.4777274003
O  O37  1  0.46784000  0.61968000  0.64163000  1.0 -0.5031956544
O  O38  1  0.41603000  0.84795000  0.07014000  1.0 -0.516549466
O  O39  1  0.44619000  0.66463000  0.67630000  1.0 -0.4906979069
O  O40  1  0.39622000  0.80227000  0.10477000  1.0 -0.5100509492
O  O41  1  0.12841000  0.04079000  0.29156000  1.0 -0.5100509492
O  O42  1  0.84712000  0.61332000  0.15416000  1.0 -0.4906979069
O  O43  1  0.09324000  0.02094000  0.33669000  1.0 -0.5100509492
O  O44  1  0.88126000  0.59152000  0.10872000  1.0 -0.4777274003
O  O45  1  0.96784000  0.88032000  0.35837000  1.0 -0.5031956544
O  O46  1  0.91603000  0.65205000  0.92986000  1.0 -0.516549466
O  O47  1  0.94619000  0.83537000  0.32370000  1.0 -0.4906979069
O  O48  1  0.89622000  0.69773000  0.89523000  1.0 -0.5100509492
O  O49  1  0.87159000  0.54079000  0.20844000  1.0 -0.5100509492
O  O50  1  0.15288000  0.11332000  0.34584000  1.0 -0.4906979069
O  O51  1  0.90676000  0.52094000  0.16331000  1.0 -0.5100509492
O  O52  1  0.11874000  0.09152000  0.39128000  1.0 -0.4777274003
O  O53  1  0.03216000  0.38032000  0.14163000  1.0 -0.5031956544
O  O54  1  0.08397000  0.15205000  0.57014000  1.0 -0.516549466
O  O55  1  0.05381000  0.33537000  0.17630000  1.0 -0.4906979069
O  O56  1  0.10378000  0.19773000  0.60477000  1.0 -0.5100509492
O  O57  1  0.37159000  0.95921000  0.79156000  1.0 -0.5100509492
O  O58  1  0.65288000  0.38668000  0.65416000  1.0 -0.4906979069
O  O59  1  0.40676000  0.97906000  0.83669000  1.0 -0.516549466
O  O60  1  0.61874000  0.40848000  0.60872000  1.0 -0.4777274003
O  O61  1  0.53216000  0.11968000  0.85837000  1.0 -0.5031956544
O  O62  1  0.58397000  0.34795000  0.42986000  1.0 -0.516549466
O  O63  1  0.55381000  0.16463000  0.82370000  1.0 -0.4906979069
O  O64  1  0.60378000  0.30227000  0.39523000  1.0 -0.5100509492
O  O65  1  0.70844000  0.62841000  0.45921000  1.0 -0.5100509492
O  O66  1  0.84584000  0.34712000  0.88668000  1.0 -0.4906979069
O  O67  1  0.66331000  0.59324000  0.47906000  1.0 -0.516549466
O  O68  1  0.89128000  0.38126000  0.90848000  1.0 -0.4777274003
O  O69  1  0.64163000  0.46784000  0.61968000  1.0 -0.5031956544
O  O70  1  0.07014000  0.41603000  0.84795000  1.0 -0.516549466
O  O71  1  0.67630000  0.44619000  0.66463000  1.0 -0.4906979069
O  O72  1  0.10477000  0.39622000  0.80227000  1.0 -0.5100509492
O  O73  1  0.29156000  0.12841000  0.04079000  1.0 -0.5100509492
O  O74  1  0.15416000  0.84712000  0.61332000  1.0 -0.4906979069
O  O75  1  0.33669000  0.09324000  0.02094000  1.0 -0.5100509492
O  O76  1  0.10872000  0.88126000  0.59152000  1.0 -0.4777274003
O  O77  1  0.35837000  0.96784000  0.88032000  1.0 -0.5031956544
O  O78  1  0.92986000  0.91603000  0.65205000  1.0 -0.516549466
O  O79  1  0.32370000  0.94619000  0.83537000  1.0 -0.4906979069
O  O80  1  0.89523000  0.89622000  0.69773000  1.0 -0.5100509492
O  O81  1  0.20844000  0.87159000  0.54079000  1.0 -0.5100509492
O  O82  1  0.34584000  0.15288000  0.11332000  1.0 -0.4906979069
O  O83  1  0.16331000  0.90676000  0.52094000  1.0 -0.5100509492
O  O84  1  0.39128000  0.11874000  0.09152000  1.0 -0.4777274003
O  O85  1  0.14163000  0.03216000  0.38032000  1.0 -0.5031956544
O  O86  1  0.57014000  0.08397000  0.15205000  1.0 -0.516549466
O  O87  1  0.17630000  0.05381000  0.33537000  1.0 -0.4906979069
O  O88  1  0.60477000  0.10378000  0.19773000  1.0 -0.5100509492
O  O89  1  0.79156000  0.37159000  0.95921000  1.0 -0.5100509492
O  O90  1  0.65416000  0.65288000  0.38668000  1.0 -0.4906979069
O  O91  1  0.83669000  0.40676000  0.97906000  1.0 -0.516549466
O  O92  1  0.60872000  0.61874000  0.40848000  1.0 -0.4777274003
O  O93  1  0.85837000  0.53216000  0.11968000  1.0 -0.5031956544
O  O94  1  0.42986000  0.58397000  0.34795000  1.0 -0.516549466
O  O95  1  0.82370000  0.55381000  0.16463000  1.0 -0.4906979069
O  O96  1  0.39523000  0.60378000  0.30227000  1.0 -0.5100509492
O  O97  1  0.54079000  0.29156000  0.37159000  1.0 -0.5100509492
O  O98  1  0.11332000  0.15416000  0.65288000  1.0 -0.4906979069
O  O99  1  0.52094000  0.33669000  0.40676000  1.0 -0.516549466
O  O100  1  0.09152000  0.10872000  0.61874000  1.0 -0.4777274003
O  O101  1  0.38032000  0.35837000  0.53216000  1.0 -0.5031956544
O  O102  1  0.15205000  0.92986000  0.58397000  1.0 -0.516549466
O  O103  1  0.33537000  0.32370000  0.55381000  1.0 -0.4906979069
O  O104  1  0.19773000  0.89523000  0.60378000  1.0 -0.5100509492
O  O105  1  0.95921000  0.70844000  0.87159000  1.0 -0.5100509492
O  O106  1  0.38668000  0.84584000  0.15288000  1.0 -0.4906979069
O  O107  1  0.97906000  0.66331000  0.90676000  1.0 -0.5100509492
O  O108  1  0.40848000  0.89128000  0.11874000  1.0 -0.4777274003
O  O109  1  0.11968000  0.64163000  0.03216000  1.0 -0.5100509492
O  O110  1  0.34795000  0.07014000  0.08397000  1.0 -0.516549466
O  O111  1  0.16463000  0.67630000  0.05381000  1.0 -0.4906979069
O  O112  1  0.30227000  0.10477000  0.10378000  1.0 -0.5100509492
O  O113  1  0.45921000  0.79156000  0.12841000  1.0 -0.5100509492
O  O114  1  0.88668000  0.65416000  0.84712000  1.0 -0.4906979069
O  O115  1  0.47906000  0.83669000  0.09324000  1.0 -0.516549466
O  O116  1  0.90848000  0.60872000  0.88126000  1.0 -0.4777274003
O  O117  1  0.61968000  0.85837000  0.96784000  1.0 -0.5031956544
O  O118  1  0.84795000  0.42986000  0.91603000  1.0 -0.516549466
O  O119  1  0.66463000  0.82370000  0.94619000  1.0 -0.4906979069
O  O120  1  0.80227000  0.39523000  0.89622000  1.0 -0.5100509492
O  O121  1  0.04079000  0.20844000  0.62841000  1.0 -0.5100509492
O  O122  1  0.61332000  0.34584000  0.34712000  1.0 -0.4906979069
O  O123  1  0.02094000  0.16331000  0.59324000  1.0 -0.516549466
O  O124  1  0.59152000  0.39128000  0.38126000  1.0 -0.4777274003
O  O125  1  0.88032000  0.14163000  0.46784000  1.0 -0.5031956544
O  O126  1  0.65205000  0.57014000  0.41603000  1.0 -0.516549466
O  O127  1  0.83537000  0.17630000  0.44619000  1.0 -0.4906979069
O  O128  1  0.69773000  0.60477000  0.39622000  1.0 -0.5100509492
O  O129  1  0.37159000  0.54079000  0.29156000  1.0 -0.5100509492
O  O130  1  0.65288000  0.11332000  0.15416000  1.0 -0.4906979069
O  O131  1  0.40676000  0.52094000  0.33669000  1.0 -0.5100509492
O  O132  1  0.61874000  0.09152000  0.10872000  1.0 -0.4777274003
O  O133  1  0.53216000  0.38032000  0.35837000  1.0 -0.5031956544
O  O134  1  0.58397000  0.15205000  0.92986000  1.0 -0.516549466
O  O135  1  0.55381000  0.33537000  0.32370000  1.0 -0.4906979069
O  O136  1  0.60378000  0.19773000  0.89523000  1.0 -0.5100509492
O  O137  1  0.87159000  0.95921000  0.70844000  1.0 -0.5100509492
O  O138  1  0.15288000  0.38668000  0.84584000  1.0 -0.4906979069
O  O139  1  0.90676000  0.97906000  0.66331000  1.0 -0.5100509492
O  O140  1  0.11874000  0.40848000  0.89128000  1.0 -0.4777274003
O  O141  1  0.03216000  0.11968000  0.64163000  1.0 -0.5100509492
O  O142  1  0.08397000  0.34795000  0.07014000  1.0 -0.516549466
O  O143  1  0.05381000  0.16463000  0.67630000  1.0 -0.4906979069
O  O144  1  0.10378000  0.30227000  0.10477000  1.0 -0.5100509492
O  O145  1  0.12841000  0.45921000  0.79156000  1.0 -0.5100509492
O  O146  1  0.84712000  0.88668000  0.65416000  1.0 -0.4906979069
O  O147  1  0.09324000  0.47906000  0.83669000  1.0 -0.516549466
O  O148  1  0.88126000  0.90848000  0.60872000  1.0 -0.4777274003
O  O149  1  0.96784000  0.61968000  0.85837000  1.0 -0.5031956544
O  O150  1  0.91603000  0.84795000  0.42986000  1.0 -0.516549466
O  O151  1  0.94619000  0.66463000  0.82370000  1.0 -0.4906979069
O  O152  1  0.89622000  0.80227000  0.39523000  1.0 -0.5100509492
O  O153  1  0.62841000  0.04079000  0.20844000  1.0 -0.5100509492
O  O154  1  0.34712000  0.61332000  0.34584000  1.0 -0.4906979069
O  O155  1  0.59324000  0.02094000  0.16331000  1.0 -0.516549466
O  O156  1  0.38126000  0.59152000  0.39128000  1.0 -0.4777274003
O  O157  1  0.46784000  0.88032000  0.14163000  1.0 -0.5031956544
O  O158  1  0.41603000  0.65205000  0.57014000  1.0 -0.516549466
O  O159  1  0.44619000  0.83537000  0.17630000  1.0 -0.4906979069
O  O160  1  0.39622000  0.69773000  0.60477000  1.0 -0.5100509492
O  O161  1  0.29156000  0.37159000  0.54079000  1.0 -0.5100509492
O  O162  1  0.15416000  0.65288000  0.11332000  1.0 -0.4906979069
O  O163  1  0.33669000  0.40676000  0.52094000  1.0 -0.5100509492
O  O164  1  0.10872000  0.61874000  0.09152000  1.0 -0.4777274003
O  O165  1  0.35837000  0.53216000  0.38032000  1.0 -0.5031956544
O  O166  1  0.92986000  0.58397000  0.15205000  1.0 -0.516549466
O  O167  1  0.32370000  0.55381000  0.33537000  1.0 -0.4906979069
O  O168  1  0.89523000  0.60378000  0.19773000  1.0 -0.5100509492
O  O169  1  0.70844000  0.87159000  0.95921000  1.0 -0.5100509492
O  O170  1  0.84584000  0.15288000  0.38668000  1.0 -0.4906979069
O  O171  1  0.66331000  0.90676000  0.97906000  1.0 -0.5100509492
O  O172  1  0.89128000  0.11874000  0.40848000  1.0 -0.4777274003
O  O173  1  0.64163000  0.03216000  0.11968000  1.0 -0.5100509492
O  O174  1  0.07014000  0.08397000  0.34795000  1.0 -0.516549466
O  O175  1  0.67630000  0.05381000  0.16463000  1.0 -0.4906979069
O  O176  1  0.10477000  0.10378000  0.30227000  1.0 -0.5100509492
O  O177  1  0.79156000  0.12841000  0.45921000  1.0 -0.5100509492
O  O178  1  0.65416000  0.84712000  0.88668000  1.0 -0.4906979069
O  O179  1  0.83669000  0.09324000  0.47906000  1.0 -0.516549466
O  O180  1  0.60872000  0.88126000  0.90848000  1.0 -0.4777274003
O  O181  1  0.85837000  0.96784000  0.61968000  1.0 -0.5031956544
O  O182  1  0.42986000  0.91603000  0.84795000  1.0 -0.516549466
O  O183  1  0.82370000  0.94619000  0.66463000  1.0 -0.4906979069
O  O184  1  0.39523000  0.89622000  0.80227000  1.0 -0.5100509492
O  O185  1  0.20844000  0.62841000  0.04079000  1.0 -0.5100509492
O  O186  1  0.34584000  0.34712000  0.61332000  1.0 -0.4906979069
O  O187  1  0.16331000  0.59324000  0.02094000  1.0 -0.516549466
O  O188  1  0.39128000  0.38126000  0.59152000  1.0 -0.4777274003
O  O189  1  0.14163000  0.46784000  0.88032000  1.0 -0.5031956544
O  O190  1  0.57014000  0.41603000  0.65205000  1.0 -0.516549466
O  O191  1  0.17630000  0.44619000  0.83537000  1.0 -0.4906979069
O  O192  1  0.60477000  0.39622000  0.69773000  1.0 -0.5100509492
