# DDEC6 charges by PACMAN v1.1 (https://github.com/mtap-research/PACMAN-charge/)
data_KEJHIQ_FSR_pacman
_symmetry_space_group_name_H-M   'P 1'
_cell_length_a   12.08100000
_cell_length_b   15.32300000
_cell_length_c   19.70500000
_cell_angle_alpha   90.00000000
_cell_angle_beta   90.00000000
_cell_angle_gamma   90.00000000
_symmetry_Int_Tables_number   1
_chemical_formula_structural   CdC12N2O5
_chemical_formula_sum   'Cd8 C96 N16 O40'
_cell_volume   3647.73369691
_cell_formula_units_Z   8
loop_
 _symmetry_equiv_pos_site_id
 _symmetry_equiv_pos_as_xyz
  1  'x, y, z'
loop_
 _atom_site_type_symbol
 _atom_site_label
 _atom_site_symmetry_multiplicity
 _atom_site_fract_x
 _atom_site_fract_y
 _atom_site_fract_z
 _atom_site_occupancy
 _atom_site_charge
Cd  Cd1  1  0.68885000  0.27225000  0.67872000  1.0 0.9088019477
Cd  Cd2  1  0.81115000  0.72775000  0.17872000  1.0 0.9088019477
Cd  Cd3  1  0.18885000  0.22775000  0.32128000  1.0 0.9088019477
Cd  Cd4  1  0.31115000  0.77225000  0.82128000  1.0 0.9088019477
Cd  Cd5  1  0.31115000  0.72775000  0.32128000  1.0 0.9088019477
Cd  Cd6  1  0.18885000  0.27225000  0.82128000  1.0 0.9088019477
Cd  Cd7  1  0.81115000  0.77225000  0.67872000  1.0 0.9088019477
Cd  Cd8  1  0.68885000  0.22775000  0.17872000  1.0 0.9088019477
C  C1  1  0.55500000  0.40857000  0.72136000  1.0 0.5562974262
C  C2  1  0.94500000  0.59143000  0.22136000  1.0 0.5562974262
C  C3  1  0.05500000  0.09143000  0.27864000  1.0 0.5562974262
C  C4  1  0.44500000  0.90857000  0.77864000  1.0 0.5562974262
C  C5  1  0.49370000  0.49003000  0.74227000  1.0 0.0232398669
C  C6  1  0.00630000  0.50997000  0.24227000  1.0 0.0232398669
C  C7  1  0.99370000  0.00997000  0.25773000  1.0 0.0232398669
C  C8  1  0.50630000  0.99003000  0.75773000  1.0 0.0232398669
C  C9  1  0.41540000  0.48827000  0.79337000  1.0 -0.0733764895
C  C10  1  0.08460000  0.51173000  0.29337000  1.0 -0.0766379488
C  C11  1  0.91540000  0.01173000  0.20663000  1.0 -0.0733764895
C  C12  1  0.58460000  0.98827000  0.70663000  1.0 -0.0733764895
C  C13  1  0.36580000  0.56552000  0.81236000  1.0 0.2139848965
C  C14  1  0.13420000  0.43448000  0.31236000  1.0 0.2197265821
C  C15  1  0.86580000  0.93448000  0.18764000  1.0 0.2197265821
C  C16  1  0.63420000  0.06552000  0.68764000  1.0 0.2139848965
C  C17  1  0.46290000  0.64345000  0.73317000  1.0 0.2197265821
C  C18  1  0.03710000  0.35655000  0.23317000  1.0 0.2197265821
C  C19  1  0.96290000  0.85655000  0.26683000  1.0 0.2197265821
C  C20  1  0.53710000  0.14345000  0.76683000  1.0 0.2197265821
C  C21  1  0.51790000  0.56885000  0.71131000  1.0 -0.1012062169
C  C22  1  0.98210000  0.43115000  0.21131000  1.0 -0.1012062169
C  C23  1  0.01790000  0.93115000  0.28869000  1.0 -0.1012062169
C  C24  1  0.48210000  0.06885000  0.78869000  1.0 -0.1012062169
C  C25  1  0.36500000  0.25560000  0.40507000  1.0 0.5719978409
C  C26  1  0.13500000  0.74440000  0.90507000  1.0 0.5719978409
C  C27  1  0.86500000  0.24440000  0.59493000  1.0 0.5719978409
C  C28  1  0.63500000  0.75560000  0.09493000  1.0 0.5719978409
C  C29  1  0.44990000  0.26403000  0.46059000  1.0 0.0480525336
C  C30  1  0.05010000  0.73597000  0.96059000  1.0 0.0480525336
C  C31  1  0.94990000  0.23597000  0.53941000  1.0 0.0480525336
C  C32  1  0.55010000  0.76403000  0.03941000  1.0 0.0480525336
C  C33  1  0.45230000  0.33690000  0.50135000  1.0 -0.1012062169
C  C34  1  0.04770000  0.66310000  0.00135000  1.0 -0.1012062169
C  C35  1  0.95230000  0.16310000  0.49865000  1.0 -0.1012062169
C  C36  1  0.54770000  0.83690000  0.99865000  1.0 -0.1012062169
C  C37  1  0.52200000  0.33870000  0.55735000  1.0 0.2539933892
C  C38  1  0.97800000  0.66130000  0.05735000  1.0 0.2539933892
C  C39  1  0.02200000  0.16130000  0.44265000  1.0 0.2539933892
C  C40  1  0.47800000  0.83870000  0.94265000  1.0 0.2539933892
C  C41  1  0.58900000  0.20290000  0.53207000  1.0 0.2276666137
C  C42  1  0.91100000  0.79710000  0.03207000  1.0 0.2276666137
C  C43  1  0.08900000  0.29710000  0.46793000  1.0 0.2276666137
C  C44  1  0.41100000  0.70290000  0.96793000  1.0 0.2276666137
C  C45  1  0.52120000  0.19650000  0.47631000  1.0 -0.1012062169
C  C46  1  0.97880000  0.80350000  0.97631000  1.0 -0.1012062169
C  C47  1  0.02120000  0.30350000  0.52369000  1.0 -0.1012062169
C  C48  1  0.47880000  0.69650000  0.02369000  1.0 -0.1012062169
C  C49  1  0.44500000  0.59143000  0.27864000  1.0 0.5562974262
C  C50  1  0.05500000  0.40857000  0.77864000  1.0 0.5562974262
C  C51  1  0.94500000  0.90857000  0.72136000  1.0 0.5562974262
C  C52  1  0.55500000  0.09143000  0.22136000  1.0 0.5562974262
C  C53  1  0.50630000  0.50997000  0.25773000  1.0 0.0232398669
C  C54  1  0.99370000  0.49003000  0.75773000  1.0 0.0232398669
C  C55  1  0.00630000  0.99003000  0.74227000  1.0 0.0232398669
C  C56  1  0.49370000  0.00997000  0.24227000  1.0 0.0232398669
C  C57  1  0.58460000  0.51173000  0.20663000  1.0 -0.0766379488
C  C58  1  0.91540000  0.48827000  0.70663000  1.0 -0.0733764895
C  C59  1  0.08460000  0.98827000  0.79337000  1.0 -0.0733764895
C  C60  1  0.41540000  0.01173000  0.29337000  1.0 -0.0733764895
C  C61  1  0.63420000  0.43448000  0.18764000  1.0 0.2197265821
C  C62  1  0.86580000  0.56552000  0.68764000  1.0 0.2139848965
C  C63  1  0.13420000  0.06552000  0.81236000  1.0 0.2139848965
C  C64  1  0.36580000  0.93448000  0.31236000  1.0 0.2197265821
C  C65  1  0.53710000  0.35655000  0.26683000  1.0 0.2197265821
C  C66  1  0.96290000  0.64345000  0.76683000  1.0 0.2197265821
C  C67  1  0.03710000  0.14345000  0.73317000  1.0 0.2197265821
C  C68  1  0.46290000  0.85655000  0.23317000  1.0 0.2197265821
C  C69  1  0.48210000  0.43115000  0.28869000  1.0 -0.1012062169
C  C70  1  0.01790000  0.56885000  0.78869000  1.0 -0.1012062169
C  C71  1  0.98210000  0.06885000  0.71131000  1.0 -0.1012062169
C  C72  1  0.51790000  0.93115000  0.21131000  1.0 -0.1012062169
C  C73  1  0.63500000  0.74440000  0.59493000  1.0 0.5719978409
C  C74  1  0.86500000  0.25560000  0.09493000  1.0 0.5719978409
C  C75  1  0.13500000  0.75560000  0.40507000  1.0 0.5719978409
C  C76  1  0.36500000  0.24440000  0.90507000  1.0 0.5719978409
C  C77  1  0.55010000  0.73597000  0.53941000  1.0 0.0480525336
C  C78  1  0.94990000  0.26403000  0.03941000  1.0 0.0480525336
C  C79  1  0.05010000  0.76403000  0.46059000  1.0 0.0480525336
C  C80  1  0.44990000  0.23597000  0.96059000  1.0 0.0480525336
C  C81  1  0.54770000  0.66310000  0.49865000  1.0 -0.1012062169
C  C82  1  0.95230000  0.33690000  0.99865000  1.0 -0.1012062169
C  C83  1  0.04770000  0.83690000  0.50135000  1.0 -0.1012062169
C  C84  1  0.45230000  0.16310000  0.00135000  1.0 -0.1012062169
C  C85  1  0.47800000  0.66130000  0.44265000  1.0 0.2539933892
C  C86  1  0.02200000  0.33870000  0.94265000  1.0 0.2539933892
C  C87  1  0.97800000  0.83870000  0.55735000  1.0 0.2539933892
C  C88  1  0.52200000  0.16130000  0.05735000  1.0 0.2539933892
C  C89  1  0.41100000  0.79710000  0.46793000  1.0 0.2276666137
C  C90  1  0.08900000  0.20290000  0.96793000  1.0 0.2276666137
C  C91  1  0.91100000  0.70290000  0.53207000  1.0 0.2276666137
C  C92  1  0.58900000  0.29710000  0.03207000  1.0 0.2276666137
C  C93  1  0.47880000  0.80350000  0.52369000  1.0 -0.1012062169
C  C94  1  0.02120000  0.19650000  0.02369000  1.0 -0.1012062169
C  C95  1  0.97880000  0.69650000  0.47631000  1.0 -0.1012062169
C  C96  1  0.52120000  0.30350000  0.97631000  1.0 -0.1012062169
N  N1  1  0.38850000  0.64256000  0.78364000  1.0 -0.3704107953
N  N2  1  0.11150000  0.35744000  0.28364000  1.0 -0.3542259587
N  N3  1  0.88850000  0.85744000  0.21636000  1.0 -0.3627240909
N  N4  1  0.61150000  0.14256000  0.71636000  1.0 -0.3704107953
N  N5  1  0.58900000  0.27242000  0.57367000  1.0 -0.3093758327
N  N6  1  0.91100000  0.72758000  0.07367000  1.0 -0.2980692638
N  N7  1  0.08900000  0.22758000  0.42633000  1.0 -0.3093758327
N  N8  1  0.41100000  0.77242000  0.92633000  1.0 -0.3093758327
N  N9  1  0.61150000  0.35744000  0.21636000  1.0 -0.3542259587
N  N10  1  0.88850000  0.64256000  0.71636000  1.0 -0.3704107953
N  N11  1  0.11150000  0.14256000  0.78364000  1.0 -0.3704107953
N  N12  1  0.38850000  0.85744000  0.28364000  1.0 -0.3627240909
N  N13  1  0.41100000  0.72758000  0.42633000  1.0 -0.2980692638
N  N14  1  0.08900000  0.27242000  0.92633000  1.0 -0.3093758327
N  N15  1  0.91100000  0.77242000  0.57367000  1.0 -0.3093758327
N  N16  1  0.58900000  0.22758000  0.07367000  1.0 -0.3093758327
O  O1  1  0.51090000  0.33596000  0.73066000  1.0 -0.5109614742
O  O2  1  0.98910000  0.66404000  0.23066000  1.0 -0.5109614742
O  O3  1  0.01090000  0.16404000  0.26934000  1.0 -0.5109614742
O  O4  1  0.48910000  0.83596000  0.76934000  1.0 -0.5109614742
O  O5  1  0.64758000  0.41786000  0.69421000  1.0 -0.5198405859
O  O6  1  0.85242000  0.58214000  0.19421000  1.0 -0.5198405859
O  O7  1  0.14758000  0.08214000  0.30579000  1.0 -0.5198405859
O  O8  1  0.35242000  0.91786000  0.80579000  1.0 -0.5198405859
O  O9  1  0.31535000  0.32266000  0.38600000  1.0 -0.5514691425
O  O10  1  0.18465000  0.67734000  0.88600000  1.0 -0.5514691425
O  O11  1  0.81535000  0.17734000  0.61400000  1.0 -0.5514691425
O  O12  1  0.68465000  0.82266000  0.11400000  1.0 -0.5514691425
O  O13  1  0.34470000  0.18063000  0.38302000  1.0 -0.5109614742
O  O14  1  0.15530000  0.81937000  0.88302000  1.0 -0.5024779988
O  O15  1  0.84470000  0.31937000  0.61698000  1.0 -0.5024779988
O  O16  1  0.65530000  0.68063000  0.11698000  1.0 -0.5024779988
O  O17  1  0.79200000  0.27674000  0.77879000  1.0 0.1100602048
O  O18  1  0.70800000  0.72326000  0.27879000  1.0 0.1010330366
O  O19  1  0.29200000  0.22326000  0.22121000  1.0 0.1100602048
O  O20  1  0.20800000  0.77674000  0.72121000  1.0 0.1150094988
O  O21  1  0.48910000  0.66404000  0.26934000  1.0 -0.5109614742
O  O22  1  0.01090000  0.33596000  0.76934000  1.0 -0.5109614742
O  O23  1  0.98910000  0.83596000  0.73066000  1.0 -0.5109614742
O  O24  1  0.51090000  0.16404000  0.23066000  1.0 -0.5109614742
O  O25  1  0.35242000  0.58214000  0.30579000  1.0 -0.5198405859
O  O26  1  0.14758000  0.41786000  0.80579000  1.0 -0.5198405859
O  O27  1  0.85242000  0.91786000  0.69421000  1.0 -0.5198405859
O  O28  1  0.64758000  0.08214000  0.19421000  1.0 -0.5198405859
O  O29  1  0.68465000  0.67734000  0.61400000  1.0 -0.5514691425
O  O30  1  0.81535000  0.32266000  0.11400000  1.0 -0.5514691425
O  O31  1  0.18465000  0.82266000  0.38600000  1.0 -0.5514691425
O  O32  1  0.31535000  0.17734000  0.88600000  1.0 -0.5514691425
O  O33  1  0.65530000  0.81937000  0.61698000  1.0 -0.5024779988
O  O34  1  0.84470000  0.18063000  0.11698000  1.0 -0.5109614742
O  O35  1  0.15530000  0.68063000  0.38302000  1.0 -0.5024779988
O  O36  1  0.34470000  0.31937000  0.88302000  1.0 -0.5024779988
O  O37  1  0.20800000  0.72326000  0.22121000  1.0 0.1010330366
O  O38  1  0.29200000  0.27674000  0.72121000  1.0 0.1100602048
O  O39  1  0.70800000  0.77674000  0.77879000  1.0 0.1150094988
O  O40  1  0.79200000  0.22326000  0.27879000  1.0 0.1100602048
