# DDEC6 charges by PACMAN v1.1 (https://github.com/mtap-research/PACMAN-charge/)
data_KEKPOI_ASR_pacman
_symmetry_space_group_name_H-M   'P 1'
_cell_length_a   12.01670000
_cell_length_b   15.50490000
_cell_length_c   43.53890000
_cell_angle_alpha   90.00000000
_cell_angle_beta   90.00000000
_cell_angle_gamma   90.00000000
_symmetry_Int_Tables_number   1
_chemical_formula_structural   Cd2NiH42C52(NO5)2
_chemical_formula_sum   'Cd8 Ni4 H168 C208 N8 O40'
_cell_volume   8112.06909437
_cell_formula_units_Z   4
loop_
 _symmetry_equiv_pos_site_id
 _symmetry_equiv_pos_as_xyz
  1  'x, y, z'
loop_
 _atom_site_type_symbol
 _atom_site_label
 _atom_site_symmetry_multiplicity
 _atom_site_fract_x
 _atom_site_fract_y
 _atom_site_fract_z
 _atom_site_occupancy
 _atom_site_charge
Cd  Cd1  1  0.63020000  0.50277000  0.00775000  1.0 0.9993501327
Cd  Cd2  1  0.17336000  0.94209000  0.54846000  1.0 1.1062093399
Cd  Cd3  1  0.86980000  0.49723000  0.50775000  1.0 0.9993501327
Cd  Cd4  1  0.32664000  0.05791000  0.04846000  1.0 1.1062093399
Cd  Cd5  1  0.36980000  0.00277000  0.49225000  1.0 0.9993501327
Cd  Cd6  1  0.82664000  0.44209000  0.95154000  1.0 1.1062093399
Cd  Cd7  1  0.13020000  0.99723000  0.99225000  1.0 0.9993501327
Cd  Cd8  1  0.67336000  0.55791000  0.45154000  1.0 1.1062093399
Ni  Ni1  1  0.13234000  0.75848000  0.24158000  1.0 0.4531864695
Ni  Ni2  1  0.36766000  0.24152000  0.74158000  1.0 0.4531864695
Ni  Ni3  1  0.86766000  0.25848000  0.25842000  1.0 0.4531864695
Ni  Ni4  1  0.63234000  0.74152000  0.75842000  1.0 0.4531864695
H  H1  1  0.29578000  0.77385000  0.37339000  1.0 0.1103102873
H  H2  1  0.42906000  0.63646000  0.09012000  1.0 0.1282112467
H  H3  1  0.20944000  0.85763000  0.41465000  1.0 0.1282112467
H  H4  1  0.02486000  0.78490000  0.16421000  1.0 0.1103102873
H  H5  1  0.46739000  0.70786000  0.13841000  1.0 0.1103102873
H  H6  1  0.88292000  0.74754000  0.19718000  1.0 0.1103102873
H  H7  1  0.83906000  0.77734000  0.25363000  1.0 0.1103102873
H  H8  1  0.91858000  0.74609000  0.29968000  1.0 0.1103102873
H  H9  1  0.97631000  0.75520000  0.35123000  1.0 0.1190626741
H  H10  1  0.15253000  0.77473000  0.12382000  1.0 0.1103102873
H  H11  1  0.04282000  0.75578000  0.48569000  1.0 0.1400906465
H  H12  1  0.98103000  0.67056000  0.40037000  1.0 0.1190626741
H  H13  1  0.46294000  0.73348000  0.36211000  1.0 0.1103102873
H  H14  1  0.55118000  0.78525000  0.34305000  1.0 0.1103102873
H  H15  1  0.45632000  0.83436000  0.36051000  1.0 0.1103102873
H  H16  1  0.39476000  0.90521000  0.31159000  1.0 0.1190626741
H  H17  1  0.49722000  0.85943000  0.29639000  1.0 0.1282112467
H  H18  1  0.37841000  0.84908000  0.28198000  1.0 0.1282112467
H  H19  1  0.43902000  0.57644000  0.20514000  1.0 0.1282112467
H  H20  1  0.51625000  0.60910000  0.23173000  1.0 0.1190626741
H  H21  1  0.38981000  0.63400000  0.23145000  1.0 0.1282112467
H  H22  1  0.57724000  0.63491000  0.16848000  1.0 0.1190626741
H  H23  1  0.61310000  0.73202000  0.17006000  1.0 0.1103102873
H  H24  1  0.64885000  0.66809000  0.19615000  1.0 0.1190626741
H  H25  1  0.56368000  0.76430000  0.23492000  1.0 0.1190626741
H  H26  1  0.52775000  0.82822000  0.20885000  1.0 0.1190626741
H  H27  1  0.43929000  0.79388000  0.23232000  1.0 0.1400906465
H  H28  1  0.42747000  0.64675000  0.31458000  1.0 0.1190626741
H  H29  1  0.39829000  0.69341000  0.28367000  1.0 0.1282112467
H  H30  1  0.51710000  0.70376000  0.29808000  1.0 0.1190626741
H  H31  1  0.96390000  0.60632000  0.21174000  1.0 0.1190626741
H  H32  1  0.02515000  0.93551000  0.22043000  1.0 0.1190626741
H  H33  1  0.73081000  0.66738000  0.27259000  1.0 0.1282112467
H  H34  1  0.72623000  0.84291000  0.20565000  1.0 0.1190626741
H  H35  1  0.65675000  0.97997000  0.20694000  1.0 0.1282112467
H  H36  1  0.77210000  0.09836000  0.21322000  1.0 0.1190626741
H  H37  1  0.95778000  0.07335000  0.22189000  1.0 0.1103102873
H  H38  1  0.75701000  0.42662000  0.24371000  1.0 0.1190626741
H  H39  1  0.90250000  0.46509000  0.21266000  1.0 0.1190626741
H  H40  1  0.66442000  0.52821000  0.27173000  1.0 0.1282112467
H  H41  1  0.36332000  0.73297000  0.00646000  1.0 0.1400906465
H  H42  1  0.24495000  0.85182000  0.08163000  1.0 0.1103102873
H  H43  1  0.20422000  0.22615000  0.87339000  1.0 0.1103102873
H  H44  1  0.07094000  0.36354000  0.59012000  1.0 0.1282112467
H  H45  1  0.29056000  0.14237000  0.91465000  1.0 0.1282112467
H  H46  1  0.47514000  0.21510000  0.66421000  1.0 0.1103102873
H  H47  1  0.03261000  0.29214000  0.63841000  1.0 0.1103102873
H  H48  1  0.61708000  0.25246000  0.69718000  1.0 0.1103102873
H  H49  1  0.66094000  0.22266000  0.75363000  1.0 0.1103102873
H  H50  1  0.58142000  0.25391000  0.79968000  1.0 0.1103102873
H  H51  1  0.52369000  0.24480000  0.85123000  1.0 0.1190626741
H  H52  1  0.34747000  0.22527000  0.62382000  1.0 0.1103102873
H  H53  1  0.45718000  0.24422000  0.98569000  1.0 0.1400906465
H  H54  1  0.51897000  0.32944000  0.90037000  1.0 0.1190626741
H  H55  1  0.03706000  0.26652000  0.86211000  1.0 0.1103102873
H  H56  1  0.94882000  0.21475000  0.84305000  1.0 0.1103102873
H  H57  1  0.04368000  0.16564000  0.86051000  1.0 0.1103102873
H  H58  1  0.10524000  0.09479000  0.81159000  1.0 0.1190626741
H  H59  1  0.00278000  0.14057000  0.79639000  1.0 0.1282112467
H  H60  1  0.12159000  0.15092000  0.78198000  1.0 0.1282112467
H  H61  1  0.06098000  0.42356000  0.70514000  1.0 0.1282112467
H  H62  1  0.98375000  0.39090000  0.73173000  1.0 0.1190626741
H  H63  1  0.11019000  0.36600000  0.73145000  1.0 0.1282112467
H  H64  1  0.92276000  0.36509000  0.66848000  1.0 0.1190626741
H  H65  1  0.88690000  0.26798000  0.67006000  1.0 0.1103102873
H  H66  1  0.85115000  0.33191000  0.69615000  1.0 0.1190626741
H  H67  1  0.93632000  0.23570000  0.73492000  1.0 0.1190626741
H  H68  1  0.97225000  0.17178000  0.70885000  1.0 0.1190626741
H  H69  1  0.06071000  0.20612000  0.73232000  1.0 0.1400906465
H  H70  1  0.07253000  0.35325000  0.81458000  1.0 0.1190626741
H  H71  1  0.10171000  0.30659000  0.78367000  1.0 0.1282112467
H  H72  1  0.98290000  0.29624000  0.79808000  1.0 0.1190626741
H  H73  1  0.53610000  0.39368000  0.71174000  1.0 0.1190626741
H  H74  1  0.47485000  0.06449000  0.72043000  1.0 0.1190626741
H  H75  1  0.76919000  0.33262000  0.77259000  1.0 0.1282112467
H  H76  1  0.77377000  0.15709000  0.70565000  1.0 0.1190626741
H  H77  1  0.84325000  0.02003000  0.70694000  1.0 0.1282112467
H  H78  1  0.72790000  0.90164000  0.71322000  1.0 0.1190626741
H  H79  1  0.54222000  0.92665000  0.72189000  1.0 0.1103102873
H  H80  1  0.74299000  0.57338000  0.74371000  1.0 0.1190626741
H  H81  1  0.59750000  0.53491000  0.71266000  1.0 0.1190626741
H  H82  1  0.83558000  0.47179000  0.77173000  1.0 0.1282112467
H  H83  1  0.13668000  0.26703000  0.50646000  1.0 0.1400906465
H  H84  1  0.25505000  0.14818000  0.58163000  1.0 0.1103102873
H  H85  1  0.70422000  0.27385000  0.12661000  1.0 0.1103102873
H  H86  1  0.57094000  0.13646000  0.40988000  1.0 0.1282112467
H  H87  1  0.79056000  0.35763000  0.08535000  1.0 0.1282112467
H  H88  1  0.97514000  0.28490000  0.33579000  1.0 0.1103102873
H  H89  1  0.53261000  0.20786000  0.36159000  1.0 0.1103102873
H  H90  1  0.11708000  0.24754000  0.30282000  1.0 0.1103102873
H  H91  1  0.16094000  0.27734000  0.24637000  1.0 0.1103102873
H  H92  1  0.08142000  0.24609000  0.20032000  1.0 0.1103102873
H  H93  1  0.02369000  0.25520000  0.14877000  1.0 0.1190626741
H  H94  1  0.84747000  0.27473000  0.37618000  1.0 0.1103102873
H  H95  1  0.95718000  0.25578000  0.01431000  1.0 0.1400906465
H  H96  1  0.01897000  0.17056000  0.09963000  1.0 0.1190626741
H  H97  1  0.53706000  0.23348000  0.13789000  1.0 0.1103102873
H  H98  1  0.44882000  0.28525000  0.15695000  1.0 0.1103102873
H  H99  1  0.54368000  0.33436000  0.13949000  1.0 0.1103102873
H  H100  1  0.60524000  0.40521000  0.18841000  1.0 0.1190626741
H  H101  1  0.50278000  0.35943000  0.20361000  1.0 0.1282112467
H  H102  1  0.62159000  0.34908000  0.21802000  1.0 0.1282112467
H  H103  1  0.56098000  0.07644000  0.29486000  1.0 0.1282112467
H  H104  1  0.48375000  0.10910000  0.26827000  1.0 0.1190626741
H  H105  1  0.61019000  0.13400000  0.26855000  1.0 0.1282112467
H  H106  1  0.42276000  0.13491000  0.33152000  1.0 0.1190626741
H  H107  1  0.38690000  0.23202000  0.32994000  1.0 0.1103102873
H  H108  1  0.35115000  0.16809000  0.30385000  1.0 0.1190626741
H  H109  1  0.43632000  0.26430000  0.26508000  1.0 0.1190626741
H  H110  1  0.47225000  0.32822000  0.29115000  1.0 0.1190626741
H  H111  1  0.56071000  0.29388000  0.26768000  1.0 0.1400906465
H  H112  1  0.57253000  0.14675000  0.18542000  1.0 0.1190626741
H  H113  1  0.60171000  0.19341000  0.21633000  1.0 0.1282112467
H  H114  1  0.48290000  0.20376000  0.20192000  1.0 0.1190626741
H  H115  1  0.03610000  0.10632000  0.28826000  1.0 0.1190626741
H  H116  1  0.97485000  0.43551000  0.27957000  1.0 0.1190626741
H  H117  1  0.26919000  0.16738000  0.22741000  1.0 0.1282112467
H  H118  1  0.27377000  0.34291000  0.29435000  1.0 0.1190626741
H  H119  1  0.34325000  0.47997000  0.29306000  1.0 0.1282112467
H  H120  1  0.22790000  0.59836000  0.28678000  1.0 0.1190626741
H  H121  1  0.04222000  0.57335000  0.27811000  1.0 0.1103102873
H  H122  1  0.24299000  0.92662000  0.25629000  1.0 0.1190626741
H  H123  1  0.09750000  0.96509000  0.28734000  1.0 0.1190626741
H  H124  1  0.33558000  0.02821000  0.22827000  1.0 0.1282112467
H  H125  1  0.63668000  0.23297000  0.49354000  1.0 0.1400906465
H  H126  1  0.75505000  0.35182000  0.41837000  1.0 0.1103102873
H  H127  1  0.79578000  0.72615000  0.62661000  1.0 0.1103102873
H  H128  1  0.92906000  0.86354000  0.90988000  1.0 0.1282112467
H  H129  1  0.70944000  0.64237000  0.58535000  1.0 0.1282112467
H  H130  1  0.52486000  0.71510000  0.83579000  1.0 0.1103102873
H  H131  1  0.96739000  0.79214000  0.86159000  1.0 0.1103102873
H  H132  1  0.38292000  0.75246000  0.80282000  1.0 0.1103102873
H  H133  1  0.33906000  0.72266000  0.74637000  1.0 0.1103102873
H  H134  1  0.41858000  0.75391000  0.70032000  1.0 0.1103102873
H  H135  1  0.47631000  0.74480000  0.64877000  1.0 0.1190626741
H  H136  1  0.65253000  0.72527000  0.87618000  1.0 0.1103102873
H  H137  1  0.54282000  0.74422000  0.51431000  1.0 0.1400906465
H  H138  1  0.48103000  0.82944000  0.59963000  1.0 0.1190626741
H  H139  1  0.96294000  0.76652000  0.63789000  1.0 0.1103102873
H  H140  1  0.05118000  0.71475000  0.65695000  1.0 0.1103102873
H  H141  1  0.95632000  0.66564000  0.63949000  1.0 0.1103102873
H  H142  1  0.89476000  0.59479000  0.68841000  1.0 0.1190626741
H  H143  1  0.99722000  0.64057000  0.70361000  1.0 0.1282112467
H  H144  1  0.87841000  0.65092000  0.71802000  1.0 0.1282112467
H  H145  1  0.93902000  0.92356000  0.79486000  1.0 0.1282112467
H  H146  1  0.01625000  0.89090000  0.76827000  1.0 0.1190626741
H  H147  1  0.88981000  0.86600000  0.76855000  1.0 0.1282112467
H  H148  1  0.07724000  0.86509000  0.83152000  1.0 0.1190626741
H  H149  1  0.11310000  0.76798000  0.82994000  1.0 0.1103102873
H  H150  1  0.14885000  0.83191000  0.80385000  1.0 0.1190626741
H  H151  1  0.06368000  0.73570000  0.76508000  1.0 0.1190626741
H  H152  1  0.02775000  0.67178000  0.79115000  1.0 0.1190626741
H  H153  1  0.93929000  0.70612000  0.76768000  1.0 0.1400906465
H  H154  1  0.92747000  0.85325000  0.68542000  1.0 0.1190626741
H  H155  1  0.89829000  0.80659000  0.71633000  1.0 0.1282112467
H  H156  1  0.01710000  0.79624000  0.70192000  1.0 0.1190626741
H  H157  1  0.46390000  0.89368000  0.78826000  1.0 0.1190626741
H  H158  1  0.52515000  0.56449000  0.77957000  1.0 0.1190626741
H  H159  1  0.23081000  0.83262000  0.72741000  1.0 0.1282112467
H  H160  1  0.22623000  0.65709000  0.79435000  1.0 0.1190626741
H  H161  1  0.15675000  0.52003000  0.79306000  1.0 0.1282112467
H  H162  1  0.27210000  0.40164000  0.78678000  1.0 0.1190626741
H  H163  1  0.45778000  0.42665000  0.77811000  1.0 0.1103102873
H  H164  1  0.25701000  0.07338000  0.75629000  1.0 0.1190626741
H  H165  1  0.40250000  0.03491000  0.78734000  1.0 0.1190626741
H  H166  1  0.16442000  0.97179000  0.72827000  1.0 0.1282112467
H  H167  1  0.86332000  0.76703000  0.99354000  1.0 0.1400906465
H  H168  1  0.74495000  0.64818000  0.91837000  1.0 0.1103102873
C  C1  1  0.40790000  0.67480000  0.04637000  1.0 -0.002672105
C  C2  1  0.24120000  0.76990000  0.35830000  1.0 -0.1741242238
C  C3  1  0.13600000  0.81650000  0.45261000  1.0 -0.0177239578
C  C4  1  0.39540000  0.67840000  0.07800000  1.0 -0.1322124451
C  C5  1  0.13130000  0.76430000  0.36809000  1.0 0.0610798234
C  C6  1  0.19390000  0.76270000  0.30483000  1.0 0.2481406651
C  C7  1  0.07890000  0.75880000  0.31436000  1.0 -0.0810663177
C  C8  1  0.15730000  0.81860000  0.42210000  1.0 -0.1322124451
C  C9  1  0.07810000  0.77390000  0.17921000  1.0 0.0610798234
C  C10  1  0.47640000  0.60420000  0.03141000  1.0 0.5484742842
C  C11  1  0.31520000  0.74430000  0.12567000  1.0 0.0610798234
C  C12  1  0.39890000  0.72400000  0.14651000  1.0 -0.1758166977
C  C13  1  0.19180000  0.76340000  0.16898000  1.0 -0.0749673375
C  C14  1  0.92350000  0.78040000  0.21280000  1.0 -0.002672105
C  C15  1  0.89770000  0.74210000  0.24426000  1.0 -0.0102369533
C  C16  1  0.27600000  0.77010000  0.32848000  1.0 -0.0472575591
C  C17  1  0.99070000  0.75220000  0.29222000  1.0 0.0610798234
C  C18  1  0.24890000  0.87210000  0.02143000  1.0 0.5755024872
C  C19  1  0.27750000  0.74570000  0.19042000  1.0 0.2619272492
C  C20  1  0.19430000  0.87950000  0.47361000  1.0 0.6026966295
C  C21  1  0.05080000  0.75890000  0.34556000  1.0 -0.2074386157
C  C22  1  0.38970000  0.72540000  0.17774000  1.0 -0.0272627638
C  C23  1  0.21070000  0.76270000  0.13723000  1.0 -0.1990235724
C  C24  1  0.05710000  0.75790000  0.46471000  1.0 -0.0909855893
C  C25  1  0.33340000  0.74340000  0.09209000  1.0 0.0667138438
C  C26  1  0.10200000  0.76240000  0.40098000  1.0 0.0667138438
C  C27  1  0.02150000  0.70630000  0.41338000  1.0 -0.1362225481
C  C28  1  0.00180000  0.70380000  0.44462000  1.0 -0.0177239578
C  C29  1  0.39930000  0.77640000  0.32046000  1.0 0.2810437701
C  C30  1  0.47460000  0.78300000  0.34930000  1.0 -0.4489089229
C  C31  1  0.41920000  0.85460000  0.30080000  1.0 -0.4701363497
C  C32  1  0.45400000  0.62350000  0.21890000  1.0 -0.4960030619
C  C33  1  0.59080000  0.68280000  0.18190000  1.0 -0.4701363497
C  C34  1  0.50510000  0.77950000  0.22090000  1.0 -0.4960030619
C  C35  1  0.48120000  0.70470000  0.20020000  1.0 0.2810437701
C  C36  1  0.88600000  0.87340000  0.21140000  1.0 0.0610798234
C  C37  1  0.85680000  0.65150000  0.24310000  1.0 0.0610798234
C  C38  1  0.43920000  0.69780000  0.30250000  1.0 -0.4701363497
C  C39  1  0.90540000  0.59070000  0.22460000  1.0 -0.159087477
C  C40  1  0.94950000  0.94390000  0.21700000  1.0 -0.159087477
C  C41  1  0.76630000  0.62650000  0.26040000  1.0 -0.1758166977
C  C42  1  0.77480000  0.88900000  0.20840000  1.0 -0.1741242238
C  C43  1  0.73290000  0.97170000  0.20930000  1.0 -0.0810663177
C  C44  1  0.92090000  0.63870000  0.45801000  1.0 0.6026966295
C  C45  1  0.80060000  0.04260000  0.21350000  1.0 -0.0974419468
C  C46  1  0.90950000  0.02770000  0.21810000  1.0 -0.0974419468
C  C47  1  0.78020000  0.48380000  0.24310000  1.0 -0.1079245486
C  C48  1  0.86800000  0.50640000  0.22490000  1.0 -0.0909855893
C  C49  1  0.72670000  0.54320000  0.26020000  1.0 -0.0810663177
C  C50  1  0.35710000  0.73640000  0.02771000  1.0 -0.0810663177
C  C51  1  0.29710000  0.80280000  0.04116000  1.0 -0.0177239578
C  C52  1  0.28520000  0.80680000  0.07290000  1.0 -0.159087477
C  C53  1  0.09210000  0.32520000  0.54637000  1.0 -0.002672105
C  C54  1  0.25880000  0.23010000  0.85830000  1.0 -0.1741242238
C  C55  1  0.36400000  0.18350000  0.95261000  1.0 -0.0177239578
C  C56  1  0.10460000  0.32160000  0.57800000  1.0 -0.1322124451
C  C57  1  0.36870000  0.23570000  0.86809000  1.0 0.0610798234
C  C58  1  0.30610000  0.23730000  0.80483000  1.0 0.2481406651
C  C59  1  0.42110000  0.24120000  0.81436000  1.0 -0.0810663177
C  C60  1  0.34270000  0.18140000  0.92210000  1.0 -0.1322124451
C  C61  1  0.42190000  0.22610000  0.67921000  1.0 0.0610798234
C  C62  1  0.02360000  0.39580000  0.53141000  1.0 0.5484742842
C  C63  1  0.18480000  0.25570000  0.62567000  1.0 0.0610798234
C  C64  1  0.10110000  0.27600000  0.64651000  1.0 -0.1758166977
C  C65  1  0.30820000  0.23660000  0.66898000  1.0 -0.0749673375
C  C66  1  0.57650000  0.21960000  0.71280000  1.0 -0.002672105
C  C67  1  0.60230000  0.25790000  0.74426000  1.0 -0.0102369533
C  C68  1  0.22400000  0.22990000  0.82848000  1.0 -0.0472575591
C  C69  1  0.50930000  0.24780000  0.79222000  1.0 0.0610798234
C  C70  1  0.25110000  0.12790000  0.52143000  1.0 0.5755024872
C  C71  1  0.22250000  0.25430000  0.69042000  1.0 0.2619272492
C  C72  1  0.30570000  0.12050000  0.97361000  1.0 0.6026966295
C  C73  1  0.44920000  0.24110000  0.84556000  1.0 -0.2074386157
C  C74  1  0.11030000  0.27460000  0.67774000  1.0 -0.0272627638
C  C75  1  0.28930000  0.23730000  0.63723000  1.0 -0.1990235724
C  C76  1  0.44290000  0.24210000  0.96471000  1.0 -0.0909855893
C  C77  1  0.16660000  0.25660000  0.59209000  1.0 0.0667138438
C  C78  1  0.39800000  0.23760000  0.90098000  1.0 0.0667138438
C  C79  1  0.47850000  0.29370000  0.91338000  1.0 -0.1362225481
C  C80  1  0.49820000  0.29620000  0.94462000  1.0 -0.0177239578
C  C81  1  0.10070000  0.22360000  0.82046000  1.0 0.2810437701
C  C82  1  0.02540000  0.21700000  0.84930000  1.0 -0.4489089229
C  C83  1  0.08080000  0.14540000  0.80080000  1.0 -0.4701363497
C  C84  1  0.04600000  0.37650000  0.71890000  1.0 -0.4960030619
C  C85  1  0.90920000  0.31720000  0.68190000  1.0 -0.4701363497
C  C86  1  0.99490000  0.22050000  0.72090000  1.0 -0.4960030619
C  C87  1  0.01880000  0.29530000  0.70020000  1.0 0.2810437701
C  C88  1  0.61400000  0.12660000  0.71140000  1.0 0.0610798234
C  C89  1  0.64320000  0.34850000  0.74310000  1.0 0.0610798234
C  C90  1  0.06080000  0.30220000  0.80250000  1.0 -0.4701363497
C  C91  1  0.59460000  0.40930000  0.72460000  1.0 -0.159087477
C  C92  1  0.55050000  0.05610000  0.71700000  1.0 -0.159087477
C  C93  1  0.73370000  0.37350000  0.76040000  1.0 -0.1758166977
C  C94  1  0.72520000  0.11100000  0.70840000  1.0 -0.1741242238
C  C95  1  0.76710000  0.02830000  0.70930000  1.0 -0.0810663177
C  C96  1  0.57910000  0.36130000  0.95801000  1.0 0.6026966295
C  C97  1  0.69940000  0.95740000  0.71350000  1.0 -0.0974419468
C  C98  1  0.59050000  0.97230000  0.71810000  1.0 -0.0974419468
C  C99  1  0.71980000  0.51620000  0.74310000  1.0 -0.1079245486
C  C100  1  0.63200000  0.49360000  0.72490000  1.0 -0.0909855893
C  C101  1  0.77330000  0.45680000  0.76020000  1.0 -0.0810663177
C  C102  1  0.14290000  0.26360000  0.52771000  1.0 -0.0810663177
C  C103  1  0.20290000  0.19720000  0.54116000  1.0 -0.0177239578
C  C104  1  0.21480000  0.19320000  0.57290000  1.0 -0.159087477
C  C105  1  0.59210000  0.17480000  0.45363000  1.0 -0.002672105
C  C106  1  0.75880000  0.26990000  0.14170000  1.0 -0.1741242238
C  C107  1  0.86400000  0.31650000  0.04739000  1.0 -0.0177239578
C  C108  1  0.60460000  0.17840000  0.42200000  1.0 -0.1322124451
C  C109  1  0.86870000  0.26430000  0.13191000  1.0 0.0610798234
C  C110  1  0.80610000  0.26270000  0.19517000  1.0 0.2481406651
C  C111  1  0.92110000  0.25880000  0.18564000  1.0 -0.0749673375
C  C112  1  0.84270000  0.31860000  0.07790000  1.0 -0.1322124451
C  C113  1  0.92190000  0.27390000  0.32079000  1.0 0.0610798234
C  C114  1  0.52360000  0.10420000  0.46859000  1.0 0.5484742842
C  C115  1  0.68480000  0.24430000  0.37433000  1.0 0.0610798234
C  C116  1  0.60110000  0.22400000  0.35349000  1.0 -0.1758166977
C  C117  1  0.80820000  0.26340000  0.33102000  1.0 -0.0749673375
C  C118  1  0.07650000  0.28040000  0.28720000  1.0 -0.002672105
C  C119  1  0.10230000  0.24210000  0.25574000  1.0 -0.0102369533
C  C120  1  0.72400000  0.27010000  0.17152000  1.0 -0.0472575591
C  C121  1  0.00930000  0.25220000  0.20778000  1.0 0.0610798234
C  C122  1  0.75110000  0.37210000  0.47857000  1.0 0.5755024872
C  C123  1  0.72250000  0.24570000  0.30958000  1.0 0.2619272492
C  C124  1  0.80570000  0.37950000  0.02639000  1.0 0.6026966295
C  C125  1  0.94920000  0.25890000  0.15444000  1.0 -0.2074386157
C  C126  1  0.61030000  0.22540000  0.32226000  1.0 -0.0272627638
C  C127  1  0.78930000  0.26270000  0.36277000  1.0 -0.1990235724
C  C128  1  0.94290000  0.25790000  0.03529000  1.0 -0.0909855893
C  C129  1  0.66666667  0.24340000  0.40791000  1.0 0.0667138438
C  C130  1  0.89800000  0.26240000  0.09902000  1.0 0.0667138438
C  C131  1  0.97850000  0.20630000  0.08662000  1.0 -0.1362225481
C  C132  1  0.99820000  0.20380000  0.05538000  1.0 -0.0177239578
C  C133  1  0.60070000  0.27640000  0.17954000  1.0 0.2810437701
C  C134  1  0.52540000  0.28300000  0.15070000  1.0 -0.4489089229
C  C135  1  0.58080000  0.35460000  0.19920000  1.0 -0.4701363497
C  C136  1  0.54600000  0.12350000  0.28110000  1.0 -0.4960030619
C  C137  1  0.40920000  0.18280000  0.31810000  1.0 -0.4701363497
C  C138  1  0.49490000  0.27950000  0.27910000  1.0 -0.4960030619
C  C139  1  0.51880000  0.20470000  0.29980000  1.0 0.2810437701
C  C140  1  0.11400000  0.37340000  0.28860000  1.0 0.0610798234
C  C141  1  0.14320000  0.15150000  0.25690000  1.0 0.0610798234
C  C142  1  0.56080000  0.19780000  0.19750000  1.0 -0.4701363497
C  C143  1  0.09460000  0.09070000  0.27540000  1.0 -0.159087477
C  C144  1  0.05050000  0.44390000  0.28300000  1.0 -0.159087477
C  C145  1  0.23370000  0.12650000  0.23960000  1.0 -0.1758166977
C  C146  1  0.22520000  0.38900000  0.29160000  1.0 -0.1741242238
C  C147  1  0.26710000  0.47170000  0.29070000  1.0 -0.0810663177
C  C148  1  0.07910000  0.13870000  0.04199000  1.0 0.6026966295
C  C149  1  0.19940000  0.54260000  0.28650000  1.0 -0.0974419468
C  C150  1  0.09050000  0.52770000  0.28190000  1.0 -0.0974419468
C  C151  1  0.21980000  0.98380000  0.25690000  1.0 -0.1079245486
C  C152  1  0.13200000  0.00640000  0.27510000  1.0 -0.0909855893
C  C153  1  0.27330000  0.04320000  0.23980000  1.0 -0.0810663177
C  C154  1  0.64290000  0.23640000  0.47229000  1.0 -0.0810663177
C  C155  1  0.70290000  0.30280000  0.45884000  1.0 -0.0177239578
C  C156  1  0.71480000  0.30680000  0.42710000  1.0 -0.159087477
C  C157  1  0.90790000  0.82520000  0.95363000  1.0 -0.002672105
C  C158  1  0.74120000  0.73010000  0.64170000  1.0 -0.1741242238
C  C159  1  0.63600000  0.68350000  0.54739000  1.0 -0.0177239578
C  C160  1  0.89540000  0.82160000  0.92200000  1.0 -0.1362225481
C  C161  1  0.63130000  0.73570000  0.63191000  1.0 0.0610798234
C  C162  1  0.69390000  0.73730000  0.69517000  1.0 0.2481406651
C  C163  1  0.57890000  0.74120000  0.68564000  1.0 -0.0810663177
C  C164  1  0.65730000  0.68140000  0.57790000  1.0 -0.1322124451
C  C165  1  0.57810000  0.72610000  0.82079000  1.0 0.0610798234
C  C166  1  0.97640000  0.89580000  0.96859000  1.0 0.5484742842
C  C167  1  0.81520000  0.75570000  0.87433000  1.0 0.0610798234
C  C168  1  0.89890000  0.77600000  0.85349000  1.0 -0.1758166977
C  C169  1  0.69180000  0.73660000  0.83102000  1.0 -0.0749673375
C  C170  1  0.42350000  0.71960000  0.78720000  1.0 -0.002672105
C  C171  1  0.39770000  0.75790000  0.75574000  1.0 -0.0102369533
C  C172  1  0.77600000  0.72990000  0.67152000  1.0 -0.0472575591
C  C173  1  0.49070000  0.74780000  0.70778000  1.0 0.0610798234
C  C174  1  0.74890000  0.62790000  0.97857000  1.0 0.5755024872
C  C175  1  0.77750000  0.75430000  0.80958000  1.0 0.2619272492
C  C176  1  0.69430000  0.62050000  0.52639000  1.0 0.6026966295
C  C177  1  0.55080000  0.74110000  0.65444000  1.0 -0.2074386157
C  C178  1  0.88970000  0.77460000  0.82226000  1.0 -0.0272627638
C  C179  1  0.71070000  0.73730000  0.86277000  1.0 -0.1990235724
C  C180  1  0.55710000  0.74210000  0.53529000  1.0 -0.0909855893
C  C181  1  0.83340000  0.75660000  0.90791000  1.0 0.0667138438
C  C182  1  0.60200000  0.73760000  0.59902000  1.0 0.0667138438
C  C183  1  0.52150000  0.79370000  0.58662000  1.0 -0.1362225481
C  C184  1  0.50180000  0.79620000  0.55538000  1.0 -0.0177239578
C  C185  1  0.89930000  0.72360000  0.67954000  1.0 0.2810437701
C  C186  1  0.97460000  0.71700000  0.65070000  1.0 -0.4489089229
C  C187  1  0.91920000  0.64540000  0.69920000  1.0 -0.4701363497
C  C188  1  0.95400000  0.87650000  0.78110000  1.0 -0.4960030619
C  C189  1  0.09080000  0.81720000  0.81810000  1.0 -0.4701363497
C  C190  1  0.00510000  0.72050000  0.77910000  1.0 -0.4960030619
C  C191  1  0.98120000  0.79530000  0.79980000  1.0 0.2810437701
C  C192  1  0.38600000  0.62660000  0.78860000  1.0 0.0610798234
C  C193  1  0.35680000  0.84850000  0.75690000  1.0 0.0610798234
C  C194  1  0.93920000  0.80220000  0.69750000  1.0 -0.4701363497
C  C195  1  0.40540000  0.90930000  0.77540000  1.0 -0.159087477
C  C196  1  0.44950000  0.55610000  0.78300000  1.0 -0.159087477
C  C197  1  0.26630000  0.87350000  0.73960000  1.0 -0.1758166977
C  C198  1  0.27480000  0.61100000  0.79160000  1.0 -0.1741242238
C  C199  1  0.23290000  0.52830000  0.79070000  1.0 -0.0810663177
C  C200  1  0.42090000  0.86130000  0.54199000  1.0 0.6026966295
C  C201  1  0.30060000  0.45740000  0.78650000  1.0 -0.0974419468
C  C202  1  0.40950000  0.47230000  0.78190000  1.0 -0.0974419468
C  C203  1  0.28020000  0.01620000  0.75690000  1.0 -0.1079245486
C  C204  1  0.36800000  0.99360000  0.77510000  1.0 -0.0909855893
C  C205  1  0.22670000  0.95680000  0.73980000  1.0 -0.0810663177
C  C206  1  0.85710000  0.76360000  0.97229000  1.0 -0.0810663177
C  C207  1  0.79710000  0.69720000  0.95884000  1.0 -0.0177239578
C  C208  1  0.78520000  0.69320000  0.92710000  1.0 -0.159087477
N  N1  1  0.00330000  0.75390000  0.26339000  1.0 -0.2074386157
N  N2  1  0.04340000  0.76950000  0.20751000  1.0 -0.2349361309
N  N3  1  0.49670000  0.24610000  0.76339000  1.0 -0.2074386157
N  N4  1  0.45660000  0.23050000  0.70751000  1.0 -0.2349361309
N  N5  1  0.99670000  0.25390000  0.23661000  1.0 -0.2074386157
N  N6  1  0.95660000  0.26950000  0.29249000  1.0 -0.2349361309
N  N7  1  0.50330000  0.74610000  0.73661000  1.0 -0.2074386157
N  N8  1  0.54340000  0.73050000  0.79249000  1.0 -0.2349361309
O  O1  1  0.23910000  0.86110000  0.99354000  1.0 -0.476268103
O  O2  1  0.52820000  0.55340000  0.04879000  1.0 -0.5286963784
O  O3  1  0.16160000  0.88190000  0.50150000  1.0 -0.6114299871
O  O4  1  0.26300000  0.92610000  0.46176000  1.0 -0.4960030619
O  O5  1  0.83810000  0.62000000  0.44064000  1.0 -0.5941551902
O  O6  1  0.48050000  0.59860000  0.00329000  1.0 -0.5106432267
O  O7  1  0.22090000  0.76100000  0.27626000  1.0 -0.4197802783
O  O8  1  0.26300000  0.74960000  0.21996000  1.0 -0.4197802783
O  O9  1  0.94000000  0.61260000  0.48434000  1.0 -0.5286963784
O  O10  1  0.21520000  0.94140000  0.03483000  1.0 -0.6114299871
O  O11  1  0.26090000  0.13890000  0.49354000  1.0 -0.476268103
O  O12  1  0.97180000  0.44660000  0.54879000  1.0 -0.5286963784
O  O13  1  0.33840000  0.11810000  0.00150000  1.0 -0.6114299871
O  O14  1  0.23700000  0.07390000  0.96176000  1.0 -0.4960030619
O  O15  1  0.66190000  0.38000000  0.94064000  1.0 -0.5941551902
O  O16  1  0.01950000  0.40140000  0.50329000  1.0 -0.5106432267
O  O17  1  0.27910000  0.23900000  0.77626000  1.0 -0.4197802783
O  O18  1  0.23700000  0.25040000  0.71996000  1.0 -0.4197802783
O  O19  1  0.56000000  0.38740000  0.98434000  1.0 -0.5286963784
O  O20  1  0.28480000  0.05860000  0.53483000  1.0 -0.6114299871
O  O21  1  0.76090000  0.36110000  0.50646000  1.0 -0.476268103
O  O22  1  0.47180000  0.05340000  0.45121000  1.0 -0.5286963784
O  O23  1  0.83840000  0.38190000  0.99850000  1.0 -0.6114299871
O  O24  1  0.73700000  0.42610000  0.03824000  1.0 -0.4960030619
O  O25  1  0.16190000  0.12000000  0.05936000  1.0 -0.5941551902
O  O26  1  0.51950000  0.09860000  0.49671000  1.0 -0.5106432267
O  O27  1  0.77910000  0.26100000  0.22374000  1.0 -0.4197802783
O  O28  1  0.73700000  0.24960000  0.28004000  1.0 -0.4197802783
O  O29  1  0.06000000  0.11260000  0.01566000  1.0 -0.5286963784
O  O30  1  0.78480000  0.44140000  0.46517000  1.0 -0.6114299871
O  O31  1  0.73910000  0.63890000  0.00646000  1.0 -0.476268103
O  O32  1  0.02820000  0.94660000  0.95121000  1.0 -0.5286963784
O  O33  1  0.66160000  0.61810000  0.49850000  1.0 -0.6114299871
O  O34  1  0.76300000  0.57390000  0.53824000  1.0 -0.4960030619
O  O35  1  0.33810000  0.88000000  0.55936000  1.0 -0.5941551902
O  O36  1  0.98050000  0.90140000  0.99671000  1.0 -0.5106432267
O  O37  1  0.72090000  0.73900000  0.72374000  1.0 -0.4197802783
O  O38  1  0.76300000  0.75040000  0.78004000  1.0 -0.4197802783
O  O39  1  0.44000000  0.88740000  0.51566000  1.0 -0.5286963784
O  O40  1  0.71520000  0.55860000  0.96517000  1.0 -0.6114299871
