# DDEC6 charges by PACMAN v1.1 (https://github.com/mtap-research/PACMAN-charge/)
data_KENXUZ_ion_pacman
_symmetry_space_group_name_H-M   'P 1'
_cell_length_a   18.70030000
_cell_length_b   18.70030000
_cell_length_c   18.70030000
_cell_angle_alpha   109.47100000
_cell_angle_beta   109.47100000
_cell_angle_gamma   109.47100000
_symmetry_Int_Tables_number   1
_chemical_formula_structural   Ag3H138C135N26(ClO8)3
_chemical_formula_sum   'Ag6 H276 C270 N52 Cl6 O48'
_cell_volume   5034.16421488
_cell_formula_units_Z   2
loop_
 _symmetry_equiv_pos_site_id
 _symmetry_equiv_pos_as_xyz
  1  'x, y, z'
loop_
 _atom_site_type_symbol
 _atom_site_label
 _atom_site_symmetry_multiplicity
 _atom_site_fract_x
 _atom_site_fract_y
 _atom_site_fract_z
 _atom_site_occupancy
 _atom_site_charge
Ag  Ag1  1  0.95184000  0.25000000  0.20184000  1.0 0.3985649113
Ag  Ag2  1  0.54816000  0.75000000  0.29816000  1.0 0.3985649113
Ag  Ag3  1  0.20184000  0.95184000  0.25000000  1.0 0.3985649113
Ag  Ag4  1  0.29816000  0.54816000  0.75000000  1.0 0.3985649113
Ag  Ag5  1  0.25000000  0.20184000  0.95184000  1.0 0.3985649113
Ag  Ag6  1  0.75000000  0.29816000  0.54816000  1.0 0.3985649113
H  H1  1  0.56180000  0.55130000  0.07610000  1.0 0.0733891789
H  H2  1  0.49820000  0.57170000  0.15310000  1.0 0.0897362014
H  H3  1  0.39070000  0.53860000  0.17650000  1.0 0.0733891789
H  H4  1  0.28950000  0.48970000  0.24400000  1.0 0.0567963715
H  H5  1  0.14090000  0.43840000  0.18490000  1.0 0.0567963715
H  H6  1  0.18680000  0.49380000  0.15060000  1.0 0.1652307574
H  H7  1  0.13140000  0.39180000  0.09300000  1.0 0.1258215223
H  H8  1  0.38050000  0.38120000  0.38170000  1.0 0.1141045549
H  H9  1  0.27720000  0.35170000  0.35170000  1.0 0.1219008659
H  H10  1  0.30060000  0.28550000  0.30230000  1.0 0.0825086504
H  H11  1  0.26830000  0.35390000  0.95500000  1.0 0.0825086504
H  H12  1  0.32840000  0.35550000  0.86150000  1.0 0.0897362014
H  H13  1  0.47660000  0.45650000  0.92290000  1.0 0.0733891789
H  H14  1  0.97520000  0.48570000  0.42390000  1.0 0.0733891789
H  H15  1  0.91860000  0.34510000  0.34690000  1.0 0.0897362014
H  H16  1  0.86210000  0.21420000  0.32350000  1.0 0.0733891789
H  H17  1  0.74570000  0.04550000  0.25600000  1.0 0.0567963715
H  H18  1  0.75350000  0.95600000  0.31510000  1.0 0.0567963715
H  H19  1  0.84320000  0.03620000  0.34940000  1.0 0.1652307574
H  H20  1  0.79880000  0.03840000  0.40700000  1.0 0.1258215223
H  H21  1  0.49950000  0.99880000  0.11830000  1.0 0.1141045549
H  H22  1  0.50000000  0.92550000  0.14830000  1.0 0.1219008659
H  H23  1  0.48320000  0.99830000  0.19770000  1.0 0.0825086504
H  H24  1  0.89890000  0.31330000  0.54500000  1.0 0.0825086504
H  H25  1  0.99400000  0.46690000  0.63850000  1.0 0.0897362014
H  H26  1  0.03360000  0.55370000  0.57710000  1.0 0.0733891789
H  H27  1  0.52480000  0.94870000  0.51050000  1.0 0.0733891789
H  H28  1  0.58140000  0.92830000  0.42650000  1.0 0.0897362014
H  H29  1  0.63790000  0.96140000  0.35210000  1.0 0.0733891789
H  H30  1  0.75430000  0.01030000  0.29980000  1.0 0.0567963715
H  H31  1  0.74650000  0.06160000  0.20250000  1.0 0.0567963715
H  H32  1  0.65680000  0.00620000  0.19300000  1.0 0.1652307574
H  H33  1  0.70120000  0.10820000  0.23960000  1.0 0.1258215223
H  H34  1  0.00050000  0.11880000  0.49930000  1.0 0.1141045549
H  H35  1  0.00000000  0.14830000  0.42550000  1.0 0.1219008659
H  H36  1  0.01680000  0.21450000  0.51510000  1.0 0.0825086504
H  H37  1  0.60110000  0.14610000  0.41440000  1.0 0.0825086504
H  H38  1  0.50600000  0.14450000  0.47290000  1.0 0.0897362014
H  H39  1  0.46640000  0.04350000  0.52010000  1.0 0.0733891789
H  H40  1  0.93820000  0.01430000  0.98950000  1.0 0.0733891789
H  H41  1  0.00180000  0.15490000  0.07350000  1.0 0.0897362014
H  H42  1  0.10930000  0.28580000  0.14790000  1.0 0.0733891789
H  H43  1  0.21050000  0.45450000  0.20020000  1.0 0.0567963715
H  H44  1  0.35910000  0.54400000  0.29750000  1.0 0.0567963715
H  H45  1  0.31320000  0.46380000  0.30700000  1.0 0.1652307574
H  H46  1  0.36860000  0.46160000  0.26040000  1.0 0.1258215223
H  H47  1  0.11950000  0.50120000  0.00070000  1.0 0.1141045549
H  H48  1  0.22280000  0.57450000  0.07450000  1.0 0.1219008659
H  H49  1  0.19940000  0.50170000  0.98490000  1.0 0.0825086504
H  H50  1  0.23170000  0.18670000  0.08560000  1.0 0.0825086504
H  H51  1  0.17160000  0.03310000  0.02710000  1.0 0.0897362014
H  H52  1  0.02340000  0.94630000  0.97990000  1.0 0.0733891789
H  H53  1  0.07610000  0.56180000  0.55130000  1.0 0.0733891789
H  H54  1  0.15310000  0.49820000  0.57170000  1.0 0.0897362014
H  H55  1  0.17650000  0.39070000  0.53860000  1.0 0.0733891789
H  H56  1  0.24400000  0.28950000  0.48970000  1.0 0.0567963715
H  H57  1  0.18490000  0.14090000  0.43840000  1.0 0.0567963715
H  H58  1  0.15060000  0.18680000  0.49380000  1.0 0.1652307574
H  H59  1  0.09300000  0.13140000  0.39180000  1.0 0.1258215223
H  H60  1  0.38170000  0.38050000  0.38120000  1.0 0.1141045549
H  H61  1  0.35170000  0.27720000  0.35170000  1.0 0.1219008659
H  H62  1  0.30230000  0.30060000  0.28550000  1.0 0.0825086504
H  H63  1  0.95500000  0.26830000  0.35390000  1.0 0.0825086504
H  H64  1  0.86150000  0.32840000  0.35550000  1.0 0.0897362014
H  H65  1  0.92290000  0.47660000  0.45650000  1.0 0.0733891789
H  H66  1  0.42390000  0.97520000  0.48570000  1.0 0.0733891789
H  H67  1  0.34690000  0.91860000  0.34510000  1.0 0.0897362014
H  H68  1  0.32350000  0.86210000  0.21420000  1.0 0.0733891789
H  H69  1  0.25600000  0.74570000  0.04550000  1.0 0.0567963715
H  H70  1  0.31510000  0.75350000  0.95600000  1.0 0.0567963715
H  H71  1  0.34940000  0.84320000  0.03620000  1.0 0.1652307574
H  H72  1  0.40700000  0.79880000  0.03840000  1.0 0.1258215223
H  H73  1  0.11830000  0.49950000  0.99880000  1.0 0.1141045549
H  H74  1  0.14830000  0.50000000  0.92550000  1.0 0.1219008659
H  H75  1  0.19770000  0.48320000  0.99830000  1.0 0.0825086504
H  H76  1  0.54500000  0.89890000  0.31330000  1.0 0.0825086504
H  H77  1  0.63850000  0.99400000  0.46690000  1.0 0.0897362014
H  H78  1  0.57710000  0.03360000  0.55370000  1.0 0.0733891789
H  H79  1  0.51050000  0.52480000  0.94870000  1.0 0.0733891789
H  H80  1  0.42650000  0.58140000  0.92830000  1.0 0.0897362014
H  H81  1  0.35210000  0.63790000  0.96140000  1.0 0.0733891789
H  H82  1  0.29980000  0.75430000  0.01030000  1.0 0.0567963715
H  H83  1  0.20250000  0.74650000  0.06160000  1.0 0.0567963715
H  H84  1  0.19300000  0.65680000  0.00620000  1.0 0.1652307574
H  H85  1  0.23960000  0.70120000  0.10820000  1.0 0.1258215223
H  H86  1  0.49930000  0.00050000  0.11880000  1.0 0.1141045549
H  H87  1  0.42550000  0.00000000  0.14830000  1.0 0.1219008659
H  H88  1  0.51510000  0.01680000  0.21450000  1.0 0.0825086504
H  H89  1  0.41440000  0.60110000  0.14610000  1.0 0.0825086504
H  H90  1  0.47290000  0.50600000  0.14450000  1.0 0.0897362014
H  H91  1  0.52010000  0.46640000  0.04350000  1.0 0.0733891789
H  H92  1  0.98950000  0.93820000  0.01430000  1.0 0.0733891789
H  H93  1  0.07350000  0.00180000  0.15490000  1.0 0.0897362014
H  H94  1  0.14790000  0.10930000  0.28580000  1.0 0.0733891789
H  H95  1  0.20020000  0.21050000  0.45450000  1.0 0.0567963715
H  H96  1  0.29750000  0.35910000  0.54400000  1.0 0.0567963715
H  H97  1  0.30700000  0.31320000  0.46380000  1.0 0.1652307574
H  H98  1  0.26040000  0.36860000  0.46160000  1.0 0.1258215223
H  H99  1  0.00070000  0.11950000  0.50120000  1.0 0.1141045549
H  H100  1  0.07450000  0.22280000  0.57450000  1.0 0.1219008659
H  H101  1  0.98490000  0.19940000  0.50170000  1.0 0.0825086504
H  H102  1  0.08560000  0.23170000  0.18670000  1.0 0.0825086504
H  H103  1  0.02710000  0.17160000  0.03310000  1.0 0.0897362014
H  H104  1  0.97990000  0.02340000  0.94630000  1.0 0.0733891789
H  H105  1  0.55130000  0.07610000  0.56180000  1.0 0.0733891789
H  H106  1  0.57170000  0.15310000  0.49820000  1.0 0.0897362014
H  H107  1  0.53860000  0.17650000  0.39070000  1.0 0.0733891789
H  H108  1  0.48970000  0.24400000  0.28950000  1.0 0.0567963715
H  H109  1  0.43840000  0.18490000  0.14090000  1.0 0.0567963715
H  H110  1  0.49380000  0.15060000  0.18680000  1.0 0.1652307574
H  H111  1  0.39180000  0.09300000  0.13140000  1.0 0.1258215223
H  H112  1  0.38120000  0.38170000  0.38050000  1.0 0.1141045549
H  H113  1  0.35170000  0.35170000  0.27720000  1.0 0.1219008659
H  H114  1  0.28550000  0.30230000  0.30060000  1.0 0.0825086504
H  H115  1  0.35390000  0.95500000  0.26830000  1.0 0.0825086504
H  H116  1  0.35550000  0.86150000  0.32840000  1.0 0.0897362014
H  H117  1  0.45650000  0.92290000  0.47660000  1.0 0.0733891789
H  H118  1  0.48570000  0.42390000  0.97520000  1.0 0.0733891789
H  H119  1  0.34510000  0.34690000  0.91860000  1.0 0.0897362014
H  H120  1  0.21420000  0.32350000  0.86210000  1.0 0.0733891789
H  H121  1  0.04550000  0.25600000  0.74570000  1.0 0.0567963715
H  H122  1  0.95600000  0.31510000  0.75350000  1.0 0.0567963715
H  H123  1  0.03620000  0.34940000  0.84320000  1.0 0.1652307574
H  H124  1  0.03840000  0.40700000  0.79880000  1.0 0.1258215223
H  H125  1  0.99880000  0.11830000  0.49950000  1.0 0.1141045549
H  H126  1  0.92550000  0.14830000  0.50000000  1.0 0.1219008659
H  H127  1  0.99830000  0.19770000  0.48320000  1.0 0.0825086504
H  H128  1  0.31330000  0.54500000  0.89890000  1.0 0.0825086504
H  H129  1  0.46690000  0.63850000  0.99400000  1.0 0.0897362014
H  H130  1  0.55370000  0.57710000  0.03360000  1.0 0.0733891789
H  H131  1  0.94870000  0.51050000  0.52480000  1.0 0.0733891789
H  H132  1  0.92830000  0.42650000  0.58140000  1.0 0.0897362014
H  H133  1  0.96140000  0.35210000  0.63790000  1.0 0.0733891789
H  H134  1  0.01030000  0.29980000  0.75430000  1.0 0.0567963715
H  H135  1  0.06160000  0.20250000  0.74650000  1.0 0.0567963715
H  H136  1  0.00620000  0.19300000  0.65680000  1.0 0.1652307574
H  H137  1  0.10820000  0.23960000  0.70120000  1.0 0.1258215223
H  H138  1  0.11880000  0.49930000  0.00050000  1.0 0.1141045549
H  H139  1  0.14830000  0.42550000  0.00000000  1.0 0.1219008659
H  H140  1  0.21450000  0.51510000  0.01680000  1.0 0.0825086504
H  H141  1  0.14610000  0.41440000  0.60110000  1.0 0.0825086504
H  H142  1  0.14450000  0.47290000  0.50600000  1.0 0.0897362014
H  H143  1  0.04350000  0.52010000  0.46640000  1.0 0.0733891789
H  H144  1  0.01430000  0.98950000  0.93820000  1.0 0.0733891789
H  H145  1  0.15490000  0.07350000  0.00180000  1.0 0.0897362014
H  H146  1  0.28580000  0.14790000  0.10930000  1.0 0.0733891789
H  H147  1  0.45450000  0.20020000  0.21050000  1.0 0.0567963715
H  H148  1  0.54400000  0.29750000  0.35910000  1.0 0.0567963715
H  H149  1  0.46380000  0.30700000  0.31320000  1.0 0.1652307574
H  H150  1  0.46160000  0.26040000  0.36860000  1.0 0.1258215223
H  H151  1  0.50120000  0.00070000  0.11950000  1.0 0.1141045549
H  H152  1  0.57450000  0.07450000  0.22280000  1.0 0.1219008659
H  H153  1  0.50170000  0.98490000  0.19940000  1.0 0.0825086504
H  H154  1  0.18670000  0.08560000  0.23170000  1.0 0.0825086504
H  H155  1  0.03310000  0.02710000  0.17160000  1.0 0.0897362014
H  H156  1  0.94630000  0.97990000  0.02340000  1.0 0.0733891789
H  H157  1  0.02550000  0.45140000  0.09730000  1.0 0.1219008659
H  H158  1  0.74560000  0.22100000  0.88560000  1.0 0.1387414698
H  H159  1  0.78710000  0.35290000  0.89380000  1.0 0.1387414698
H  H160  1  0.97870000  0.32060000  0.09290000  1.0 0.1219008659
H  H161  1  0.77380000  0.12220000  0.92880000  1.0 0.1219008659
H  H162  1  0.78470000  0.02990000  0.97000000  1.0 0.2789471213
H  H163  1  0.84330000  0.88350000  0.10700000  1.0 0.1219008659
H  H164  1  0.96050000  0.13330000  0.29380000  1.0 0.1046898429
H  H165  1  0.78790000  0.91640000  0.00130000  1.0 0.1549598191
H  H166  1  0.90640000  0.98470000  0.25090000  1.0 0.1219008659
H  H167  1  0.85410000  0.92820000  0.40270000  1.0 0.1219008659
H  H168  1  0.83540000  0.86000000  0.61440000  1.0 0.1387414698
H  H169  1  0.95910000  0.89330000  0.60620000  1.0 0.1387414698
H  H170  1  0.72770000  0.88580000  0.40710000  1.0 0.1219008659
H  H171  1  0.69340000  0.84500000  0.57120000  1.0 0.1219008659
H  H172  1  0.55990000  0.81470000  0.53000000  1.0 0.2789471213
H  H173  1  0.27650000  0.73630000  0.39300000  1.0 0.1219008659
H  H174  1  0.33950000  0.66666667  0.20620000  1.0 0.1046898429
H  H175  1  0.41510000  0.78660000  0.49870000  1.0 0.1553642217
H  H176  1  0.23380000  0.65550000  0.24910000  1.0 0.1219008659
H  H177  1  0.64590000  0.04860000  0.07410000  1.0 0.1219008659
H  H178  1  0.66460000  0.27900000  0.02460000  1.0 0.1387414698
H  H179  1  0.54090000  0.14710000  0.93420000  1.0 0.1387414698
H  H180  1  0.77230000  0.17940000  0.15810000  1.0 0.1219008659
H  H181  1  0.80660000  0.37780000  0.15160000  1.0 0.1219008659
H  H182  1  0.94010000  0.47010000  0.25480000  1.0 0.2789471213
H  H183  1  0.22350000  0.61650000  0.45980000  1.0 0.1219008659
H  H184  1  0.16050000  0.36670000  0.32720000  1.0 0.1046898429
H  H185  1  0.08490000  0.58360000  0.37150000  1.0 0.1553642217
H  H186  1  0.26620000  0.51530000  0.42170000  1.0 0.1219008659
H  H187  1  0.47450000  0.57180000  0.42590000  1.0 0.1219008659
H  H188  1  0.75440000  0.64000000  0.47540000  1.0 0.1387414698
H  H189  1  0.71290000  0.60670000  0.56580000  1.0 0.1387414698
H  H190  1  0.52130000  0.61420000  0.34190000  1.0 0.1219008659
H  H191  1  0.72620000  0.65500000  0.34840000  1.0 0.1219008659
H  H192  1  0.71530000  0.68530000  0.24520000  1.0 0.2789471213
H  H193  1  0.65670000  0.76370000  0.04020000  1.0 0.1219008659
H  H194  1  0.53950000  0.83330000  0.17280000  1.0 0.1046898429
H  H195  1  0.71210000  0.71340000  0.12850000  1.0 0.1549598191
H  H196  1  0.59360000  0.84450000  0.07830000  1.0 0.1219008659
H  H197  1  0.09730000  0.02550000  0.45140000  1.0 0.1219008659
H  H198  1  0.88560000  0.74560000  0.22100000  1.0 0.1387414698
H  H199  1  0.89380000  0.78710000  0.35290000  1.0 0.1387414698
H  H200  1  0.09290000  0.97870000  0.32060000  1.0 0.1219008659
H  H201  1  0.92880000  0.77380000  0.12220000  1.0 0.1219008659
H  H202  1  0.97000000  0.78470000  0.02990000  1.0 0.2789471213
H  H203  1  0.10700000  0.84330000  0.88350000  1.0 0.1219008659
H  H204  1  0.29380000  0.96050000  0.13330000  1.0 0.1046898429
H  H205  1  0.00130000  0.78790000  0.91640000  1.0 0.1553642217
H  H206  1  0.25090000  0.90640000  0.98470000  1.0 0.1219008659
H  H207  1  0.40270000  0.85410000  0.92820000  1.0 0.1219008659
H  H208  1  0.61440000  0.83540000  0.86000000  1.0 0.1387414698
H  H209  1  0.60620000  0.95910000  0.89330000  1.0 0.1387414698
H  H210  1  0.40710000  0.72770000  0.88580000  1.0 0.1219008659
H  H211  1  0.57120000  0.69340000  0.84500000  1.0 0.1219008659
H  H212  1  0.53000000  0.55990000  0.81470000  1.0 0.2789471213
H  H213  1  0.39300000  0.27650000  0.73630000  1.0 0.1219008659
H  H214  1  0.20620000  0.33950000  0.66666667  1.0 0.1046898429
H  H215  1  0.49870000  0.41510000  0.78660000  1.0 0.1549598191
H  H216  1  0.24910000  0.23380000  0.65550000  1.0 0.1219008659
H  H217  1  0.07410000  0.64590000  0.04860000  1.0 0.1219008659
H  H218  1  0.02460000  0.66460000  0.27900000  1.0 0.1387414698
H  H219  1  0.93420000  0.54090000  0.14710000  1.0 0.1387414698
H  H220  1  0.15810000  0.77230000  0.17940000  1.0 0.1219008659
H  H221  1  0.15160000  0.80660000  0.37780000  1.0 0.1219008659
H  H222  1  0.25480000  0.94010000  0.47010000  1.0 0.2789471213
H  H223  1  0.45980000  0.22350000  0.61650000  1.0 0.1219008659
H  H224  1  0.32720000  0.16050000  0.36670000  1.0 0.1046898429
H  H225  1  0.37150000  0.08490000  0.58360000  1.0 0.1549598191
H  H226  1  0.42170000  0.26620000  0.51530000  1.0 0.1219008659
H  H227  1  0.42590000  0.47450000  0.57180000  1.0 0.1219008659
H  H228  1  0.47540000  0.75440000  0.64000000  1.0 0.1387414698
H  H229  1  0.56580000  0.71290000  0.60670000  1.0 0.1387414698
H  H230  1  0.34190000  0.52130000  0.61420000  1.0 0.1219008659
H  H231  1  0.34840000  0.72620000  0.65500000  1.0 0.1219008659
H  H232  1  0.24520000  0.71530000  0.68530000  1.0 0.2789471213
H  H233  1  0.04020000  0.65670000  0.76370000  1.0 0.1219008659
H  H234  1  0.17280000  0.53950000  0.83330000  1.0 0.1046898429
H  H235  1  0.12850000  0.71210000  0.71340000  1.0 0.1553642217
H  H236  1  0.07830000  0.59360000  0.84450000  1.0 0.1219008659
H  H237  1  0.45140000  0.09730000  0.02550000  1.0 0.1219008659
H  H238  1  0.22100000  0.88560000  0.74560000  1.0 0.1387414698
H  H239  1  0.35290000  0.89380000  0.78710000  1.0 0.1387414698
H  H240  1  0.32060000  0.09290000  0.97870000  1.0 0.1219008659
H  H241  1  0.12220000  0.92880000  0.77380000  1.0 0.1219008659
H  H242  1  0.02990000  0.97000000  0.78470000  1.0 0.2789471213
H  H243  1  0.88350000  0.10700000  0.84330000  1.0 0.1219008659
H  H244  1  0.13330000  0.29380000  0.96050000  1.0 0.1046898429
H  H245  1  0.91640000  0.00130000  0.78790000  1.0 0.1549598191
H  H246  1  0.98470000  0.25090000  0.90640000  1.0 0.1219008659
H  H247  1  0.92820000  0.40270000  0.85410000  1.0 0.1219008659
H  H248  1  0.86000000  0.61440000  0.83540000  1.0 0.1387414698
H  H249  1  0.89330000  0.60620000  0.95910000  1.0 0.1387414698
H  H250  1  0.88580000  0.40710000  0.72770000  1.0 0.1219008659
H  H251  1  0.84500000  0.57120000  0.69340000  1.0 0.1219008659
H  H252  1  0.81470000  0.53000000  0.55990000  1.0 0.2789471213
H  H253  1  0.73630000  0.39300000  0.27650000  1.0 0.1219008659
H  H254  1  0.66666667  0.20620000  0.33950000  1.0 0.1046898429
H  H255  1  0.78660000  0.49870000  0.41510000  1.0 0.1549598191
H  H256  1  0.65550000  0.24910000  0.23380000  1.0 0.1219008659
H  H257  1  0.04860000  0.07410000  0.64590000  1.0 0.1219008659
H  H258  1  0.27900000  0.02460000  0.66460000  1.0 0.1387414698
H  H259  1  0.14710000  0.93420000  0.54090000  1.0 0.1387414698
H  H260  1  0.17940000  0.15810000  0.77230000  1.0 0.1219008659
H  H261  1  0.37780000  0.15160000  0.80660000  1.0 0.1219008659
H  H262  1  0.47010000  0.25480000  0.94010000  1.0 0.2789471213
H  H263  1  0.61650000  0.45980000  0.22350000  1.0 0.1219008659
H  H264  1  0.36670000  0.32720000  0.16050000  1.0 0.1046898429
H  H265  1  0.58360000  0.37150000  0.08490000  1.0 0.1549598191
H  H266  1  0.51530000  0.42170000  0.26620000  1.0 0.1219008659
H  H267  1  0.57180000  0.42590000  0.47450000  1.0 0.1219008659
H  H268  1  0.64000000  0.47540000  0.75440000  1.0 0.1387414698
H  H269  1  0.60670000  0.56580000  0.71290000  1.0 0.1387414698
H  H270  1  0.61420000  0.34190000  0.52130000  1.0 0.1219008659
H  H271  1  0.65500000  0.34840000  0.72620000  1.0 0.1219008659
H  H272  1  0.68530000  0.24520000  0.71530000  1.0 0.2789471213
H  H273  1  0.76370000  0.04020000  0.65670000  1.0 0.1219008659
H  H274  1  0.83330000  0.17280000  0.53950000  1.0 0.1046898429
H  H275  1  0.71340000  0.12850000  0.71210000  1.0 0.1549598191
H  H276  1  0.84450000  0.07830000  0.59360000  1.0 0.1219008659
C  C1  1  0.50366000  0.50327000  0.04775000  1.0 -0.020975852
C  C2  1  0.46547000  0.51766000  0.09889000  1.0 -0.0869963176
C  C3  1  0.37878000  0.45966000  0.06558000  1.0 0.0260185014
C  C4  1  0.35280000  0.47950000  0.12910000  1.0 -0.048589828
C  C5  1  0.17010000  0.44010000  0.15160000  1.0 -0.1700574158
C  C6  1  0.26200000  0.37650000  0.21030000  1.0 0.1219008659
C  C7  1  0.31520000  0.34560000  0.32920000  1.0 -0.151900829
C  C8  1  0.32786000  0.39616000  0.97822000  1.0 -0.175931954
C  C9  1  0.36252000  0.39487000  0.92369000  1.0 -0.0831897661
C  C10  1  0.45017000  0.45031000  0.95814000  1.0 -0.0317363331
C  C11  1  0.95552000  0.45591000  0.45225000  1.0 -0.020975852
C  C12  1  0.91877000  0.36658000  0.40111000  1.0 -0.0869963176
C  C13  1  0.89408000  0.31320000  0.43442000  1.0 0.0260185014
C  C14  1  0.85040000  0.22370000  0.37090000  1.0 -0.048589828
C  C15  1  0.78850000  0.01850000  0.34840000  1.0 -0.1700574158
C  C16  1  0.66620000  0.05170000  0.28970000  1.0 0.1258215223
C  C17  1  0.51640000  0.98600000  0.17080000  1.0 -0.151900829
C  C18  1  0.91794000  0.34964000  0.52178000  1.0 -0.175931954
C  C19  1  0.97118000  0.43883000  0.57631000  1.0 -0.0831897661
C  C20  1  0.99217000  0.49203000  0.54186000  1.0 -0.0317363331
C  C21  1  0.54448000  0.99673000  0.50039000  1.0 -0.020975852
C  C22  1  0.58123000  0.98234000  0.44781000  1.0 -0.0869963176
C  C23  1  0.60592000  0.04034000  0.41912000  1.0 0.0260185014
C  C24  1  0.64960000  0.02050000  0.37330000  1.0 -0.048589828
C  C25  1  0.71150000  0.05990000  0.23000000  1.0 -0.1700574158
C  C26  1  0.83380000  0.12350000  0.38550000  1.0 0.1258215223
C  C27  1  0.98360000  0.15440000  0.46960000  1.0 -0.151900829
C  C28  1  0.58206000  0.10384000  0.43170000  1.0 -0.175931954
C  C29  1  0.52882000  0.10513000  0.46765000  1.0 -0.0831897661
C  C30  1  0.50783000  0.04969000  0.49986000  1.0 -0.0317363331
C  C31  1  0.99634000  0.04409000  0.99961000  1.0 -0.020975852
C  C32  1  0.03453000  0.13342000  0.05219000  1.0 -0.0869963176
C  C33  1  0.12122000  0.18680000  0.08088000  1.0 0.0260185014
C  C34  1  0.14720000  0.27630000  0.12670000  1.0 -0.048589828
C  C35  1  0.32990000  0.48150000  0.27000000  1.0 -0.1700574158
C  C36  1  0.23800000  0.44830000  0.11450000  1.0 0.1219008659
C  C37  1  0.18480000  0.51400000  0.03040000  1.0 -0.151900829
C  C38  1  0.17214000  0.15036000  0.06830000  1.0 -0.175931954
C  C39  1  0.13748000  0.06117000  0.03235000  1.0 -0.0831897661
C  C40  1  0.04983000  0.00797000  0.00014000  1.0 -0.0317363331
C  C41  1  0.04775000  0.50366000  0.50327000  1.0 -0.020975852
C  C42  1  0.09889000  0.46547000  0.51766000  1.0 -0.0869963176
C  C43  1  0.06558000  0.37878000  0.45966000  1.0 0.0260185014
C  C44  1  0.12910000  0.35280000  0.47950000  1.0 -0.048589828
C  C45  1  0.15160000  0.17010000  0.44010000  1.0 -0.1700574158
C  C46  1  0.21030000  0.26200000  0.37650000  1.0 0.1219008659
C  C47  1  0.32920000  0.31520000  0.34560000  1.0 -0.151900829
C  C48  1  0.97822000  0.32786000  0.39616000  1.0 -0.175931954
C  C49  1  0.92369000  0.36252000  0.39487000  1.0 -0.0831897661
C  C50  1  0.95814000  0.45017000  0.45031000  1.0 -0.0317363331
C  C51  1  0.45225000  0.95552000  0.45591000  1.0 -0.020975852
C  C52  1  0.40111000  0.91877000  0.36658000  1.0 -0.0869963176
C  C53  1  0.43442000  0.89408000  0.31320000  1.0 0.0260185014
C  C54  1  0.37090000  0.85040000  0.22370000  1.0 -0.048589828
C  C55  1  0.34840000  0.78850000  0.01850000  1.0 -0.1700574158
C  C56  1  0.28970000  0.66620000  0.05170000  1.0 0.1219008659
C  C57  1  0.17080000  0.51640000  0.98600000  1.0 -0.151900829
C  C58  1  0.52178000  0.91794000  0.34964000  1.0 -0.175931954
C  C59  1  0.57631000  0.97118000  0.43883000  1.0 -0.0831897661
C  C60  1  0.54186000  0.99217000  0.49203000  1.0 -0.0317363331
C  C61  1  0.50039000  0.54448000  0.99673000  1.0 -0.020975852
C  C62  1  0.44781000  0.58123000  0.98234000  1.0 -0.0869963176
C  C63  1  0.41912000  0.60592000  0.04034000  1.0 0.0260185014
C  C64  1  0.37330000  0.64960000  0.02050000  1.0 -0.048589828
C  C65  1  0.23000000  0.71150000  0.05990000  1.0 -0.1700574158
C  C66  1  0.38550000  0.83380000  0.12350000  1.0 0.1219008659
C  C67  1  0.46960000  0.98360000  0.15440000  1.0 -0.151900829
C  C68  1  0.43170000  0.58206000  0.10384000  1.0 -0.175931954
C  C69  1  0.46765000  0.52882000  0.10513000  1.0 -0.0831897661
C  C70  1  0.49986000  0.50783000  0.04969000  1.0 -0.0317363331
C  C71  1  0.99961000  0.99634000  0.04409000  1.0 -0.020975852
C  C72  1  0.05219000  0.03453000  0.13342000  1.0 -0.0869963176
C  C73  1  0.08088000  0.12122000  0.18680000  1.0 0.0260185014
C  C74  1  0.12670000  0.14720000  0.27630000  1.0 -0.048589828
C  C75  1  0.27000000  0.32990000  0.48150000  1.0 -0.1700574158
C  C76  1  0.11450000  0.23800000  0.44830000  1.0 0.1219008659
C  C77  1  0.03040000  0.18480000  0.51400000  1.0 -0.151900829
C  C78  1  0.06830000  0.17214000  0.15036000  1.0 -0.175931954
C  C79  1  0.03235000  0.13748000  0.06117000  1.0 -0.0831897661
C  C80  1  0.00014000  0.04983000  0.00797000  1.0 -0.0317363331
C  C81  1  0.50327000  0.04775000  0.50366000  1.0 -0.020975852
C  C82  1  0.51766000  0.09889000  0.46547000  1.0 -0.0869963176
C  C83  1  0.45966000  0.06558000  0.37878000  1.0 0.0260185014
C  C84  1  0.47950000  0.12910000  0.35280000  1.0 -0.048589828
C  C85  1  0.44010000  0.15160000  0.17010000  1.0 -0.1700574158
C  C86  1  0.37650000  0.21030000  0.26200000  1.0 0.1219008659
C  C87  1  0.34560000  0.32920000  0.31520000  1.0 -0.151900829
C  C88  1  0.39616000  0.97822000  0.32786000  1.0 -0.175931954
C  C89  1  0.39487000  0.92369000  0.36252000  1.0 -0.0831897661
C  C90  1  0.45031000  0.95814000  0.45017000  1.0 -0.0317363331
C  C91  1  0.45591000  0.45225000  0.95552000  1.0 -0.020975852
C  C92  1  0.36658000  0.40111000  0.91877000  1.0 -0.0869963176
C  C93  1  0.31320000  0.43442000  0.89408000  1.0 0.0260185014
C  C94  1  0.22370000  0.37090000  0.85040000  1.0 -0.048589828
C  C95  1  0.01850000  0.34840000  0.78850000  1.0 -0.1700574158
C  C96  1  0.05170000  0.28970000  0.66620000  1.0 0.1219008659
C  C97  1  0.98600000  0.17080000  0.51640000  1.0 -0.151900829
C  C98  1  0.34964000  0.52178000  0.91794000  1.0 -0.175931954
C  C99  1  0.43883000  0.57631000  0.97118000  1.0 -0.0831897661
C  C100  1  0.49203000  0.54186000  0.99217000  1.0 -0.0317363331
C  C101  1  0.99673000  0.50039000  0.54448000  1.0 -0.020975852
C  C102  1  0.98234000  0.44781000  0.58123000  1.0 -0.0869963176
C  C103  1  0.04034000  0.41912000  0.60592000  1.0 0.0260185014
C  C104  1  0.02050000  0.37330000  0.64960000  1.0 -0.048589828
C  C105  1  0.05990000  0.23000000  0.71150000  1.0 -0.1700574158
C  C106  1  0.12350000  0.38550000  0.83380000  1.0 0.1219008659
C  C107  1  0.15440000  0.46960000  0.98360000  1.0 -0.151900829
C  C108  1  0.10384000  0.43170000  0.58206000  1.0 -0.175931954
C  C109  1  0.10513000  0.46765000  0.52882000  1.0 -0.0831897661
C  C110  1  0.04969000  0.49986000  0.50783000  1.0 -0.0317363331
C  C111  1  0.04409000  0.99961000  0.99634000  1.0 -0.020975852
C  C112  1  0.13342000  0.05219000  0.03453000  1.0 -0.0869963176
C  C113  1  0.18680000  0.08088000  0.12122000  1.0 0.0260185014
C  C114  1  0.27630000  0.12670000  0.14720000  1.0 -0.048589828
C  C115  1  0.48150000  0.27000000  0.32990000  1.0 -0.1700574158
C  C116  1  0.44830000  0.11450000  0.23800000  1.0 0.1258215223
C  C117  1  0.51400000  0.03040000  0.18480000  1.0 -0.151900829
C  C118  1  0.15036000  0.06830000  0.17214000  1.0 -0.175931954
C  C119  1  0.06117000  0.03235000  0.13748000  1.0 -0.0831897661
C  C120  1  0.00797000  0.00014000  0.04983000  1.0 -0.0317363331
C  C121  1  0.25000000  0.43780000  0.18780000  1.0 -0.020975852
C  C122  1  0.75000000  0.06220000  0.31220000  1.0 -0.020975852
C  C123  1  0.18780000  0.25000000  0.43780000  1.0 -0.020975852
C  C124  1  0.31220000  0.75000000  0.06220000  1.0 -0.020975852
C  C125  1  0.43780000  0.18780000  0.25000000  1.0 -0.020975852
C  C126  1  0.06220000  0.31220000  0.75000000  1.0 -0.020975852
C  C127  1  0.96808000  0.40532000  0.05486000  1.0 -0.2383217711
C  C128  1  0.80192000  0.26812000  0.92956000  1.0 -0.0869963176
C  C129  1  0.91229000  0.41781000  0.99628000  1.0 0.1886296783
C  C130  1  0.82690000  0.34590000  0.93340000  1.0 -0.151900829
C  C131  1  0.94000000  0.32676000  0.05116000  1.0 -0.1437170554
C  C132  1  0.82461000  0.16962000  0.98083000  1.0 -0.020975852
C  C133  1  0.85770000  0.25505000  0.98955000  1.0 0.0897362014
C  C134  1  0.85380000  0.05070000  0.08670000  1.0 0.2910196796
C  C135  1  0.85350000  0.94070000  0.12280000  1.0 -0.0831897661
C  C136  1  0.92680000  0.09030000  0.23430000  1.0 -0.114702345
C  C137  1  0.82530000  0.96040000  0.06050000  1.0 -0.2309738881
C  C138  1  0.89660000  0.00190000  0.20830000  1.0 -0.2811966525
C  C139  1  0.85046000  0.91322000  0.44514000  1.0 -0.2383217711
C  C140  1  0.83856000  0.87236000  0.57044000  1.0 -0.0869963176
C  C141  1  0.92153000  0.91601000  0.50372000  1.0 0.1886296783
C  C142  1  0.91250000  0.89350000  0.56660000  1.0 -0.151900829
C  C143  1  0.77560000  0.88884000  0.44884000  1.0 -0.1437170554
C  C144  1  0.68879000  0.84378000  0.51917000  1.0 -0.020975852
C  C145  1  0.76550000  0.86815000  0.51045000  1.0 0.0897362014
C  C146  1  0.46400000  0.76710000  0.41330000  1.0 0.2910196796
C  C147  1  0.31790000  0.73070000  0.37720000  1.0 -0.0869963176
C  C148  1  0.35600000  0.69250000  0.26570000  1.0 -0.1202220911
C  C149  1  0.39990000  0.76480000  0.43950000  1.0 -0.2309738881
C  C150  1  0.29360000  0.68830000  0.29170000  1.0 -0.2811966525
C  C151  1  0.64954000  0.09468000  0.06276000  1.0 -0.2383217711
C  C152  1  0.66144000  0.23188000  0.03380000  1.0 -0.0869963176
C  C153  1  0.57847000  0.08219000  0.99448000  1.0 0.1886296783
C  C154  1  0.58750000  0.15410000  0.98100000  1.0 -0.151900829
C  C155  1  0.72440000  0.17324000  0.11324000  1.0 -0.1437170554
C  C156  1  0.81121000  0.33038000  0.15499000  1.0 -0.020975852
C  C157  1  0.73450000  0.24495000  0.10265000  1.0 0.0897362014
C  C158  1  0.03600000  0.44930000  0.30310000  1.0 0.2910196796
C  C159  1  0.18210000  0.55930000  0.41280000  1.0 -0.0869963176
C  C160  1  0.14400000  0.40970000  0.33650000  1.0 -0.1202220911
C  C161  1  0.10010000  0.53960000  0.36490000  1.0 -0.2309738881
C  C162  1  0.20640000  0.49810000  0.39470000  1.0 -0.2811966525
C  C163  1  0.53192000  0.58678000  0.43724000  1.0 -0.2383217711
C  C164  1  0.69808000  0.62764000  0.46620000  1.0 -0.0869963176
C  C165  1  0.58771000  0.58399000  0.50552000  1.0 0.1886296783
C  C166  1  0.67310000  0.60650000  0.51900000  1.0 -0.151900829
C  C167  1  0.56000000  0.61116000  0.38676000  1.0 -0.1437170554
C  C168  1  0.67539000  0.65622000  0.34501000  1.0 -0.020975852
C  C169  1  0.64230000  0.63185000  0.39735000  1.0 0.0825086504
C  C170  1  0.64620000  0.73290000  0.19690000  1.0 0.2910196796
C  C171  1  0.64650000  0.76930000  0.08720000  1.0 -0.0869963176
C  C172  1  0.57320000  0.80750000  0.16350000  1.0 -0.1202220911
C  C173  1  0.67470000  0.73520000  0.13510000  1.0 -0.2309738881
C  C174  1  0.60340000  0.81170000  0.10530000  1.0 -0.2811966525
C  C175  1  0.05486000  0.96808000  0.40532000  1.0 -0.2383217711
C  C176  1  0.92956000  0.80192000  0.26812000  1.0 -0.0869963176
C  C177  1  0.99628000  0.91229000  0.41781000  1.0 0.1886296783
C  C178  1  0.93340000  0.82690000  0.34590000  1.0 -0.151900829
C  C179  1  0.05116000  0.94000000  0.32676000  1.0 -0.1437170554
C  C180  1  0.98083000  0.82461000  0.16962000  1.0 -0.020975852
C  C181  1  0.98955000  0.85770000  0.25505000  1.0 0.0825086504
C  C182  1  0.08670000  0.85380000  0.05070000  1.0 0.2910196796
C  C183  1  0.12280000  0.85350000  0.94070000  1.0 -0.0869963176
C  C184  1  0.23430000  0.92680000  0.09030000  1.0 -0.1202220911
C  C185  1  0.06050000  0.82530000  0.96040000  1.0 -0.2309738881
C  C186  1  0.20830000  0.89660000  0.00190000  1.0 -0.2811966525
C  C187  1  0.44514000  0.85046000  0.91322000  1.0 -0.2383217711
C  C188  1  0.57044000  0.83856000  0.87236000  1.0 -0.0869963176
C  C189  1  0.50372000  0.92153000  0.91601000  1.0 0.1886296783
C  C190  1  0.56660000  0.91250000  0.89350000  1.0 -0.151900829
C  C191  1  0.44884000  0.77560000  0.88884000  1.0 -0.1437170554
C  C192  1  0.51917000  0.68879000  0.84378000  1.0 -0.020975852
C  C193  1  0.51045000  0.76550000  0.86815000  1.0 0.0825086504
C  C194  1  0.41330000  0.46400000  0.76710000  1.0 0.2910196796
C  C195  1  0.37720000  0.31790000  0.73070000  1.0 -0.0869963176
C  C196  1  0.26570000  0.35600000  0.69250000  1.0 -0.1202220911
C  C197  1  0.43950000  0.39990000  0.76480000  1.0 -0.2309738881
C  C198  1  0.29170000  0.29360000  0.68830000  1.0 -0.2811966525
C  C199  1  0.06276000  0.64954000  0.09468000  1.0 -0.2383217711
C  C200  1  0.03380000  0.66144000  0.23188000  1.0 -0.0869963176
C  C201  1  0.99448000  0.57847000  0.08219000  1.0 0.1886296783
C  C202  1  0.98100000  0.58750000  0.15410000  1.0 -0.151900829
C  C203  1  0.11324000  0.72440000  0.17324000  1.0 -0.1437170554
C  C204  1  0.15499000  0.81121000  0.33038000  1.0 -0.020975852
C  C205  1  0.10265000  0.73450000  0.24495000  1.0 0.0825086504
C  C206  1  0.30310000  0.03600000  0.44930000  1.0 0.2910196796
C  C207  1  0.41280000  0.18210000  0.55930000  1.0 -0.0869963176
C  C208  1  0.33650000  0.14400000  0.40970000  1.0 -0.1202220911
C  C209  1  0.36490000  0.10010000  0.53960000  1.0 -0.2309738881
C  C210  1  0.39470000  0.20640000  0.49810000  1.0 -0.2811966525
C  C211  1  0.43724000  0.53192000  0.58678000  1.0 -0.2383217711
C  C212  1  0.46620000  0.69808000  0.62764000  1.0 -0.0869963176
C  C213  1  0.50552000  0.58771000  0.58399000  1.0 0.1886296783
C  C214  1  0.51900000  0.67310000  0.60650000  1.0 -0.151900829
C  C215  1  0.38676000  0.56000000  0.61116000  1.0 -0.1437170554
C  C216  1  0.34501000  0.67539000  0.65622000  1.0 -0.020975852
C  C217  1  0.39735000  0.64230000  0.63185000  1.0 0.0825086504
C  C218  1  0.19690000  0.64620000  0.73290000  1.0 0.2910196796
C  C219  1  0.08720000  0.64650000  0.76930000  1.0 -0.0869963176
C  C220  1  0.16350000  0.57320000  0.80750000  1.0 -0.1202220911
C  C221  1  0.13510000  0.67470000  0.73520000  1.0 -0.2309738881
C  C222  1  0.10530000  0.60340000  0.81170000  1.0 -0.2811966525
C  C223  1  0.40532000  0.05486000  0.96808000  1.0 -0.2383217711
C  C224  1  0.26812000  0.92956000  0.80192000  1.0 -0.0869963176
C  C225  1  0.41781000  0.99628000  0.91229000  1.0 0.1886296783
C  C226  1  0.34590000  0.93340000  0.82690000  1.0 -0.151900829
C  C227  1  0.32676000  0.05116000  0.94000000  1.0 -0.1437170554
C  C228  1  0.16962000  0.98083000  0.82461000  1.0 -0.020975852
C  C229  1  0.25505000  0.98955000  0.85770000  1.0 0.0825086504
C  C230  1  0.05070000  0.08670000  0.85380000  1.0 0.2910196796
C  C231  1  0.94070000  0.12280000  0.85350000  1.0 -0.0831897661
C  C232  1  0.09030000  0.23430000  0.92680000  1.0 -0.1202220911
C  C233  1  0.96040000  0.06050000  0.82530000  1.0 -0.2309738881
C  C234  1  0.00190000  0.20830000  0.89660000  1.0 -0.2811966525
C  C235  1  0.91322000  0.44514000  0.85046000  1.0 -0.2383217711
C  C236  1  0.87236000  0.57044000  0.83856000  1.0 -0.0869963176
C  C237  1  0.91601000  0.50372000  0.92153000  1.0 0.1886296783
C  C238  1  0.89350000  0.56660000  0.91250000  1.0 -0.151900829
C  C239  1  0.88884000  0.44884000  0.77560000  1.0 -0.1437170554
C  C240  1  0.84378000  0.51917000  0.68879000  1.0 -0.020975852
C  C241  1  0.86815000  0.51045000  0.76550000  1.0 0.0897362014
C  C242  1  0.76710000  0.41330000  0.46400000  1.0 0.2910196796
C  C243  1  0.73070000  0.37720000  0.31790000  1.0 -0.0831897661
C  C244  1  0.69250000  0.26570000  0.35600000  1.0 -0.1202220911
C  C245  1  0.76480000  0.43950000  0.39990000  1.0 -0.2309738881
C  C246  1  0.68830000  0.29170000  0.29360000  1.0 -0.2811966525
C  C247  1  0.09468000  0.06276000  0.64954000  1.0 -0.2383217711
C  C248  1  0.23188000  0.03380000  0.66144000  1.0 -0.0869963176
C  C249  1  0.08219000  0.99448000  0.57847000  1.0 0.1886296783
C  C250  1  0.15410000  0.98100000  0.58750000  1.0 -0.151900829
C  C251  1  0.17324000  0.11324000  0.72440000  1.0 -0.1437170554
C  C252  1  0.33038000  0.15499000  0.81121000  1.0 -0.020975852
C  C253  1  0.24495000  0.10265000  0.73450000  1.0 0.0825086504
C  C254  1  0.44930000  0.30310000  0.03600000  1.0 0.2910196796
C  C255  1  0.55930000  0.41280000  0.18210000  1.0 -0.0831897661
C  C256  1  0.40970000  0.33650000  0.14400000  1.0 -0.1202220911
C  C257  1  0.53960000  0.36490000  0.10010000  1.0 -0.2309738881
C  C258  1  0.49810000  0.39470000  0.20640000  1.0 -0.2811966525
C  C259  1  0.58678000  0.43724000  0.53192000  1.0 -0.2383217711
C  C260  1  0.62764000  0.46620000  0.69808000  1.0 -0.0869963176
C  C261  1  0.58399000  0.50552000  0.58771000  1.0 0.1886296783
C  C262  1  0.60650000  0.51900000  0.67310000  1.0 -0.151900829
C  C263  1  0.61116000  0.38676000  0.56000000  1.0 -0.1437170554
C  C264  1  0.65622000  0.34501000  0.67539000  1.0 -0.020975852
C  C265  1  0.63185000  0.39735000  0.64230000  1.0 0.0825086504
C  C266  1  0.73290000  0.19690000  0.64620000  1.0 0.2910196796
C  C267  1  0.76930000  0.08720000  0.64650000  1.0 -0.0869963176
C  C268  1  0.80750000  0.16350000  0.57320000  1.0 -0.114702345
C  C269  1  0.73520000  0.13510000  0.67470000  1.0 -0.2309738881
C  C270  1  0.81170000  0.10530000  0.60340000  1.0 -0.2811966525
N  N1  1  0.28060000  0.42820000  0.12720000  1.0 -0.0728316318
N  N2  1  0.80100000  0.15340000  0.37280000  1.0 -0.0728316318
N  N3  1  0.69900000  0.07180000  0.35240000  1.0 -0.0728316318
N  N4  1  0.21940000  0.34660000  0.14760000  1.0 -0.0728316318
N  N5  1  0.12720000  0.28060000  0.42820000  1.0 -0.0728316318
N  N6  1  0.37280000  0.80100000  0.15340000  1.0 -0.0728316318
N  N7  1  0.35240000  0.69900000  0.07180000  1.0 -0.0728316318
N  N8  1  0.14760000  0.21940000  0.34660000  1.0 -0.0728316318
N  N9  1  0.42820000  0.12720000  0.28060000  1.0 -0.0728316318
N  N10  1  0.15340000  0.37280000  0.80100000  1.0 -0.0728316318
N  N11  1  0.07180000  0.35240000  0.69900000  1.0 -0.0728316318
N  N12  1  0.34660000  0.14760000  0.21940000  1.0 -0.0728316318
N  N13  1  0.86208000  0.15671000  0.04127000  1.0 -0.1646024223
N  N14  1  0.82591000  0.07140000  0.02289000  1.0 -0.2811966525
N  N15  1  0.90540000  0.11280000  0.16960000  1.0 -0.3242189523
N  N16  1  0.61544000  0.82081000  0.45873000  1.0 -0.1646024223
N  N17  1  0.54851000  0.80302000  0.47711000  1.0 -0.2811966525
N  N18  1  0.44320000  0.73580000  0.33040000  1.0 -0.3242189523
N  N19  1  0.88456000  0.34329000  0.20537000  1.0 -0.1646024223
N  N20  1  0.95149000  0.42860000  0.25451000  1.0 -0.2811966525
N  N21  1  0.05680000  0.38720000  0.29260000  1.0 -0.3242189523
N  N22  1  0.63792000  0.67919000  0.29463000  1.0 -0.1646024223
N  N23  1  0.67409000  0.69698000  0.24549000  1.0 -0.2811966525
N  N24  1  0.59460000  0.76420000  0.20740000  1.0 -0.3242189523
N  N25  1  0.04127000  0.86208000  0.15671000  1.0 -0.1700574158
N  N26  1  0.02289000  0.82591000  0.07140000  1.0 -0.2811966525
N  N27  1  0.16960000  0.90540000  0.11280000  1.0 -0.3242189523
N  N28  1  0.45873000  0.61544000  0.82081000  1.0 -0.1700574158
N  N29  1  0.47711000  0.54851000  0.80302000  1.0 -0.2811966525
N  N30  1  0.33040000  0.44320000  0.73580000  1.0 -0.3242189523
N  N31  1  0.20537000  0.88456000  0.34329000  1.0 -0.1646024223
N  N32  1  0.25451000  0.95149000  0.42860000  1.0 -0.2811966525
N  N33  1  0.29260000  0.05680000  0.38720000  1.0 -0.3242189523
N  N34  1  0.29463000  0.63792000  0.67919000  1.0 -0.1700574158
N  N35  1  0.24549000  0.67409000  0.69698000  1.0 -0.2811966525
N  N36  1  0.20740000  0.59460000  0.76420000  1.0 -0.3242189523
N  N37  1  0.15671000  0.04127000  0.86208000  1.0 -0.1700574158
N  N38  1  0.07140000  0.02289000  0.82591000  1.0 -0.2811966525
N  N39  1  0.11280000  0.16960000  0.90540000  1.0 -0.3242189523
N  N40  1  0.82081000  0.45873000  0.61544000  1.0 -0.1700574158
N  N41  1  0.80302000  0.47711000  0.54851000  1.0 -0.2811966525
N  N42  1  0.73580000  0.33040000  0.44320000  1.0 -0.3242189523
N  N43  1  0.34329000  0.20537000  0.88456000  1.0 -0.1700574158
N  N44  1  0.42860000  0.25451000  0.95149000  1.0 -0.2811966525
N  N45  1  0.38720000  0.29260000  0.05680000  1.0 -0.3242189523
N  N46  1  0.67919000  0.29463000  0.63792000  1.0 -0.1700574158
N  N47  1  0.69698000  0.24549000  0.67409000  1.0 -0.2811966525
N  N48  1  0.76420000  0.20740000  0.59460000  1.0 -0.3242189523
N  N49  1  0.93950000  0.50000000  0.00000000  1.0 -0.2467781428
N  N50  1  0.00000000  0.93950000  0.50000000  1.0 -0.2467781428
N  N51  1  0.50000000  0.00000000  0.93950000  1.0 -0.2467781428
N  N52  1  0.56050000  0.56050000  0.56050000  1.0 -0.2467781428
Cl  Cl1  1  0.80651000  0.55651000  0.25000000  1.0 1.2423935298
Cl  Cl2  1  0.69349000  0.94349000  0.75000000  1.0 1.2423935298
Cl  Cl3  1  0.55651000  0.25000000  0.80651000  1.0 1.2423935298
Cl  Cl4  1  0.94349000  0.75000000  0.69349000  1.0 1.2423935298
Cl  Cl5  1  0.25000000  0.80651000  0.55651000  1.0 1.2423935298
Cl  Cl6  1  0.75000000  0.69349000  0.94349000  1.0 1.2423935298
O  O1  1  0.32850000  0.41100000  0.29870000  1.0 -0.1202220911
O  O2  1  0.20990000  0.29420000  0.14170000  1.0 -0.0574155461
O  O3  1  0.61230000  0.02980000  0.20130000  1.0 -0.1202220911
O  O4  1  0.65250000  0.06820000  0.35830000  1.0 -0.0574155461
O  O5  1  0.88770000  0.08900000  0.41750000  1.0 -0.1202220911
O  O6  1  0.84750000  0.20580000  0.41570000  1.0 -0.0574155461
O  O7  1  0.17150000  0.47020000  0.08250000  1.0 -0.1202220911
O  O8  1  0.29010000  0.43180000  0.08430000  1.0 -0.0574155461
O  O9  1  0.29870000  0.32850000  0.41100000  1.0 -0.1202220911
O  O10  1  0.14170000  0.20990000  0.29420000  1.0 -0.0574155461
O  O11  1  0.20130000  0.61230000  0.02980000  1.0 -0.1202220911
O  O12  1  0.35830000  0.65250000  0.06820000  1.0 -0.0574155461
O  O13  1  0.41750000  0.88770000  0.08900000  1.0 -0.1202220911
O  O14  1  0.41570000  0.84750000  0.20580000  1.0 -0.0574155461
O  O15  1  0.08250000  0.17150000  0.47020000  1.0 -0.1202220911
O  O16  1  0.08430000  0.29010000  0.43180000  1.0 -0.0574155461
O  O17  1  0.41100000  0.29870000  0.32850000  1.0 -0.1202220911
O  O18  1  0.29420000  0.14170000  0.20990000  1.0 -0.0574155461
O  O19  1  0.02980000  0.20130000  0.61230000  1.0 -0.1202220911
O  O20  1  0.06820000  0.35830000  0.65250000  1.0 -0.0574155461
O  O21  1  0.08900000  0.41750000  0.88770000  1.0 -0.1202220911
O  O22  1  0.20580000  0.41570000  0.84750000  1.0 -0.0574155461
O  O23  1  0.47020000  0.08250000  0.17150000  1.0 -0.1202220911
O  O24  1  0.43180000  0.08430000  0.29010000  1.0 -0.0574155461
O  O25  1  0.79910000  0.57160000  0.32450000  1.0 -0.4537496702
O  O26  1  0.79480000  0.61850000  0.22950000  1.0 -0.4663158666
O  O27  1  0.74710000  0.47460000  0.17550000  1.0 -0.4537496702
O  O28  1  0.88900000  0.56530000  0.27050000  1.0 -0.4663158666
O  O29  1  0.75290000  0.92840000  0.72750000  1.0 -0.4537496702
O  O30  1  0.61100000  0.88150000  0.67630000  1.0 -0.4663158666
O  O31  1  0.70090000  0.02540000  0.77250000  1.0 -0.4537496702
O  O32  1  0.70520000  0.93470000  0.82370000  1.0 -0.4663158666
O  O33  1  0.57160000  0.32450000  0.79910000  1.0 -0.4537496702
O  O34  1  0.61850000  0.22950000  0.79480000  1.0 -0.4663158666
O  O35  1  0.47460000  0.17550000  0.74710000  1.0 -0.4537496702
O  O36  1  0.56530000  0.27050000  0.88900000  1.0 -0.4663158666
O  O37  1  0.92840000  0.72750000  0.75290000  1.0 -0.4537496702
O  O38  1  0.88150000  0.67630000  0.61100000  1.0 -0.4663158666
O  O39  1  0.02540000  0.77250000  0.70090000  1.0 -0.4537496702
O  O40  1  0.93470000  0.82370000  0.70520000  1.0 -0.4663158666
O  O41  1  0.32450000  0.79910000  0.57160000  1.0 -0.4537496702
O  O42  1  0.22950000  0.79480000  0.61850000  1.0 -0.4663158666
O  O43  1  0.17550000  0.74710000  0.47460000  1.0 -0.4537496702
O  O44  1  0.27050000  0.88900000  0.56530000  1.0 -0.4663158666
O  O45  1  0.72750000  0.75290000  0.92840000  1.0 -0.4537496702
O  O46  1  0.67630000  0.61100000  0.88150000  1.0 -0.4663158666
O  O47  1  0.77250000  0.70090000  0.02540000  1.0 -0.4537496702
O  O48  1  0.82370000  0.70520000  0.93470000  1.0 -0.4663158666
