# DDEC6 charges by PACMAN v1.1 (https://github.com/mtap-research/PACMAN-charge/)
data_KENYIO_ion_pacman
_symmetry_space_group_name_H-M   'P 1'
_cell_length_a   18.74300000
_cell_length_b   18.74300000
_cell_length_c   18.74300000
_cell_angle_alpha   109.47100000
_cell_angle_beta   109.47100000
_cell_angle_gamma   109.47100000
_symmetry_Int_Tables_number   1
_chemical_formula_structural   Ag3H138C135N26(ClO8)3
_chemical_formula_sum   'Ag6 H276 C270 N52 Cl6 O48'
_cell_volume   5068.72783463
_cell_formula_units_Z   2
loop_
 _symmetry_equiv_pos_site_id
 _symmetry_equiv_pos_as_xyz
  1  'x, y, z'
loop_
 _atom_site_type_symbol
 _atom_site_label
 _atom_site_symmetry_multiplicity
 _atom_site_fract_x
 _atom_site_fract_y
 _atom_site_fract_z
 _atom_site_occupancy
 _atom_site_charge
Ag  Ag1  1  0.05001000  0.75000000  0.80001000  1.0 0.3785278526
Ag  Ag2  1  0.44999000  0.25000000  0.69999000  1.0 0.3785278526
Ag  Ag3  1  0.80001000  0.05001000  0.75000000  1.0 0.3785278526
Ag  Ag4  1  0.69999000  0.44999000  0.25000000  1.0 0.3785278526
Ag  Ag5  1  0.75000000  0.80001000  0.05001000  1.0 0.3785278526
Ag  Ag6  1  0.25000000  0.69999000  0.44999000  1.0 0.3785278526
H  H1  1  0.43440000  0.45550000  0.92510000  1.0 0.0886995015
H  H2  1  0.50140000  0.42930000  0.84090000  1.0 0.0974831595
H  H3  1  0.60720000  0.44860000  0.82380000  1.0 0.0886995015
H  H4  1  0.80190000  0.56250000  0.82700000  1.0 0.0036339292
H  H5  1  0.60870000  0.61480000  0.62070000  1.0 0.0974831595
H  H6  1  0.69870000  0.70210000  0.67820000  1.0 0.0886995015
H  H7  1  0.69310000  0.61410000  0.62380000  1.0 0.1102584868
H  H8  1  0.73090000  0.64150000  0.04360000  1.0 0.0635084543
H  H9  1  0.52310000  0.55030000  0.07620000  1.0 0.0832441249
H  H10  1  0.67400000  0.63540000  0.13680000  1.0 0.0974831595
H  H11  1  0.66280000  0.43980000  0.71860000  1.0 0.1102584868
H  H12  1  0.62580000  0.50400000  0.72560000  1.0 0.0886995015
H  H13  1  0.68880000  0.50740000  0.68740000  1.0 0.1102584868
H  H14  1  0.03040000  0.50930000  0.57490000  1.0 0.0886995015
H  H15  1  0.08840000  0.66050000  0.65910000  1.0 0.0974831595
H  H16  1  0.12480000  0.78340000  0.67620000  1.0 0.0886995015
H  H17  1  0.23550000  0.97490000  0.67300000  1.0 0.0036339292
H  H18  1  0.49410000  0.98800000  0.87930000  1.0 0.0974831595
H  H19  1  0.52390000  0.02050000  0.82180000  1.0 0.0886995015
H  H20  1  0.49030000  0.06930000  0.87620000  1.0 0.1102584868
H  H21  1  0.09790000  0.68730000  0.45640000  1.0 0.0635084543
H  H22  1  0.97410000  0.44690000  0.42380000  1.0 0.0832441249
H  H23  1  0.99860000  0.53720000  0.36320000  1.0 0.0974831595
H  H24  1  0.22120000  0.94420000  0.78140000  1.0 0.1102584868
H  H25  1  0.27840000  0.90020000  0.77440000  1.0 0.0886995015
H  H26  1  0.32000000  0.00140000  0.81260000  1.0 0.1102584868
H  H27  1  0.46960000  0.04450000  0.47890000  1.0 0.0886995015
H  H28  1  0.41160000  0.07070000  0.57210000  1.0 0.0974831595
H  H29  1  0.37520000  0.05140000  0.65860000  1.0 0.0886995015
H  H30  1  0.26450000  0.93750000  0.73940000  1.0 0.0036339292
H  H31  1  0.00590000  0.88520000  0.49390000  1.0 0.0974831595
H  H32  1  0.97610000  0.79790000  0.49660000  1.0 0.0886995015
H  H33  1  0.00970000  0.88590000  0.57900000  1.0 0.1102584868
H  H34  1  0.40210000  0.85850000  0.58940000  1.0 0.0635084543
H  H35  1  0.52590000  0.94970000  0.47280000  1.0 0.0832441249
H  H36  1  0.50140000  0.86460000  0.53860000  1.0 0.0974831595
H  H37  1  0.27880000  0.06020000  0.72300000  1.0 0.1102584868
H  H38  1  0.22160000  0.99600000  0.62180000  1.0 0.0886995015
H  H39  1  0.18000000  0.99260000  0.68140000  1.0 0.1102584868
H  H40  1  0.06560000  0.99070000  0.02110000  1.0 0.0886995015
H  H41  1  0.99860000  0.83950000  0.92790000  1.0 0.0974831595
H  H42  1  0.89280000  0.71660000  0.84140000  1.0 0.0886995015
H  H43  1  0.69810000  0.52510000  0.76060000  1.0 0.0036339292
H  H44  1  0.89130000  0.51200000  0.00610000  1.0 0.0974831595
H  H45  1  0.80130000  0.47950000  0.00340000  1.0 0.0886995015
H  H46  1  0.80690000  0.43070000  0.92100000  1.0 0.1102584868
H  H47  1  0.76910000  0.81270000  0.91060000  1.0 0.0635084543
H  H48  1  0.97690000  0.05310000  0.02720000  1.0 0.0832441249
H  H49  1  0.82600000  0.96280000  0.96140000  1.0 0.0974831595
H  H50  1  0.83720000  0.55580000  0.77700000  1.0 0.1102584868
H  H51  1  0.87420000  0.59980000  0.87820000  1.0 0.0886995015
H  H52  1  0.81120000  0.49860000  0.81860000  1.0 0.1102584868
H  H53  1  0.92510000  0.43440000  0.45550000  1.0 0.0886995015
H  H54  1  0.84090000  0.50140000  0.42930000  1.0 0.0974831595
H  H55  1  0.82380000  0.60720000  0.44860000  1.0 0.0886995015
H  H56  1  0.82700000  0.80190000  0.56250000  1.0 0.0036339292
H  H57  1  0.62070000  0.60870000  0.61480000  1.0 0.0974831595
H  H58  1  0.67820000  0.69870000  0.70210000  1.0 0.0886995015
H  H59  1  0.62380000  0.69310000  0.61410000  1.0 0.1102584868
H  H60  1  0.04360000  0.73090000  0.64150000  1.0 0.0635084543
H  H61  1  0.07620000  0.52310000  0.55030000  1.0 0.0832441249
H  H62  1  0.13680000  0.67400000  0.63540000  1.0 0.0974831595
H  H63  1  0.71860000  0.66280000  0.43980000  1.0 0.1102584868
H  H64  1  0.72560000  0.62580000  0.50400000  1.0 0.0886995015
H  H65  1  0.68740000  0.68880000  0.50740000  1.0 0.1102584868
H  H66  1  0.57490000  0.03040000  0.50930000  1.0 0.0886995015
H  H67  1  0.65910000  0.08840000  0.66050000  1.0 0.0974831595
H  H68  1  0.67620000  0.12480000  0.78340000  1.0 0.0886995015
H  H69  1  0.67300000  0.23550000  0.97490000  1.0 0.0036339292
H  H70  1  0.87930000  0.49410000  0.98800000  1.0 0.0974831595
H  H71  1  0.82180000  0.52390000  0.02050000  1.0 0.0886995015
H  H72  1  0.87620000  0.49030000  0.06930000  1.0 0.1102584868
H  H73  1  0.45640000  0.09790000  0.68730000  1.0 0.0635084543
H  H74  1  0.42380000  0.97410000  0.44690000  1.0 0.0832441249
H  H75  1  0.36320000  0.99860000  0.53720000  1.0 0.0974831595
H  H76  1  0.78140000  0.22120000  0.94420000  1.0 0.1102584868
H  H77  1  0.77440000  0.27840000  0.90020000  1.0 0.0886995015
H  H78  1  0.81260000  0.32000000  0.00140000  1.0 0.1102584868
H  H79  1  0.47890000  0.46960000  0.04450000  1.0 0.0886995015
H  H80  1  0.57210000  0.41160000  0.07070000  1.0 0.0974831595
H  H81  1  0.65860000  0.37520000  0.05140000  1.0 0.0886995015
H  H82  1  0.73940000  0.26450000  0.93750000  1.0 0.0036339292
H  H83  1  0.49390000  0.00590000  0.88520000  1.0 0.0974831595
H  H84  1  0.49660000  0.97610000  0.79790000  1.0 0.0886995015
H  H85  1  0.57900000  0.00970000  0.88590000  1.0 0.1102584868
H  H86  1  0.58940000  0.40210000  0.85850000  1.0 0.0635084543
H  H87  1  0.47280000  0.52590000  0.94970000  1.0 0.0832441249
H  H88  1  0.53860000  0.50140000  0.86460000  1.0 0.0974831595
H  H89  1  0.72300000  0.27880000  0.06020000  1.0 0.1102584868
H  H90  1  0.62180000  0.22160000  0.99600000  1.0 0.0886995015
H  H91  1  0.68140000  0.18000000  0.99260000  1.0 0.1102584868
H  H92  1  0.02110000  0.06560000  0.99070000  1.0 0.0886995015
H  H93  1  0.92790000  0.99860000  0.83950000  1.0 0.0974831595
H  H94  1  0.84140000  0.89280000  0.71660000  1.0 0.0886995015
H  H95  1  0.76060000  0.69810000  0.52510000  1.0 0.0036339292
H  H96  1  0.00610000  0.89130000  0.51200000  1.0 0.0974831595
H  H97  1  0.00340000  0.80130000  0.47950000  1.0 0.0886995015
H  H98  1  0.92100000  0.80690000  0.43070000  1.0 0.1102584868
H  H99  1  0.91060000  0.76910000  0.81270000  1.0 0.0635084543
H  H100  1  0.02720000  0.97690000  0.05310000  1.0 0.0832441249
H  H101  1  0.96140000  0.82600000  0.96280000  1.0 0.0974831595
H  H102  1  0.77700000  0.83720000  0.55580000  1.0 0.1102584868
H  H103  1  0.87820000  0.87420000  0.59980000  1.0 0.0886995015
H  H104  1  0.81860000  0.81120000  0.49860000  1.0 0.1102584868
H  H105  1  0.45550000  0.92510000  0.43440000  1.0 0.0886995015
H  H106  1  0.42930000  0.84090000  0.50140000  1.0 0.0974831595
H  H107  1  0.44860000  0.82380000  0.60720000  1.0 0.0886995015
H  H108  1  0.56250000  0.82700000  0.80190000  1.0 0.0036339292
H  H109  1  0.61480000  0.62070000  0.60870000  1.0 0.0974831595
H  H110  1  0.70210000  0.67820000  0.69870000  1.0 0.0886995015
H  H111  1  0.61410000  0.62380000  0.69310000  1.0 0.1102584868
H  H112  1  0.64150000  0.04360000  0.73090000  1.0 0.0635084543
H  H113  1  0.55030000  0.07620000  0.52310000  1.0 0.0832441249
H  H114  1  0.63540000  0.13680000  0.67400000  1.0 0.0974831595
H  H115  1  0.43980000  0.71860000  0.66280000  1.0 0.1102584868
H  H116  1  0.50400000  0.72560000  0.62580000  1.0 0.0886995015
H  H117  1  0.50740000  0.68740000  0.68880000  1.0 0.1102584868
H  H118  1  0.50930000  0.57490000  0.03040000  1.0 0.0886995015
H  H119  1  0.66050000  0.65910000  0.08840000  1.0 0.0974831595
H  H120  1  0.78340000  0.67620000  0.12480000  1.0 0.0886995015
H  H121  1  0.97490000  0.67300000  0.23550000  1.0 0.0036339292
H  H122  1  0.98800000  0.87930000  0.49410000  1.0 0.0974831595
H  H123  1  0.02050000  0.82180000  0.52390000  1.0 0.0886995015
H  H124  1  0.06930000  0.87620000  0.49030000  1.0 0.1102584868
H  H125  1  0.68730000  0.45640000  0.09790000  1.0 0.0635084543
H  H126  1  0.44690000  0.42380000  0.97410000  1.0 0.0832441249
H  H127  1  0.53720000  0.36320000  0.99860000  1.0 0.0974831595
H  H128  1  0.94420000  0.78140000  0.22120000  1.0 0.1102584868
H  H129  1  0.90020000  0.77440000  0.27840000  1.0 0.0886995015
H  H130  1  0.00140000  0.81260000  0.32000000  1.0 0.1102584868
H  H131  1  0.04450000  0.47890000  0.46960000  1.0 0.0886995015
H  H132  1  0.07070000  0.57210000  0.41160000  1.0 0.0974831595
H  H133  1  0.05140000  0.65860000  0.37520000  1.0 0.0886995015
H  H134  1  0.93750000  0.73940000  0.26450000  1.0 0.0036339292
H  H135  1  0.88520000  0.49390000  0.00590000  1.0 0.0974831595
H  H136  1  0.79790000  0.49660000  0.97610000  1.0 0.0886995015
H  H137  1  0.88590000  0.57900000  0.00970000  1.0 0.1102584868
H  H138  1  0.85850000  0.58940000  0.40210000  1.0 0.0635084543
H  H139  1  0.94970000  0.47280000  0.52590000  1.0 0.0832441249
H  H140  1  0.86460000  0.53860000  0.50140000  1.0 0.0974831595
H  H141  1  0.06020000  0.72300000  0.27880000  1.0 0.1102584868
H  H142  1  0.99600000  0.62180000  0.22160000  1.0 0.0886995015
H  H143  1  0.99260000  0.68140000  0.18000000  1.0 0.1102584868
H  H144  1  0.99070000  0.02110000  0.06560000  1.0 0.0886995015
H  H145  1  0.83950000  0.92790000  0.99860000  1.0 0.0974831595
H  H146  1  0.71660000  0.84140000  0.89280000  1.0 0.0886995015
H  H147  1  0.52510000  0.76060000  0.69810000  1.0 0.0036339292
H  H148  1  0.51200000  0.00610000  0.89130000  1.0 0.0974831595
H  H149  1  0.47950000  0.00340000  0.80130000  1.0 0.0886995015
H  H150  1  0.43070000  0.92100000  0.80690000  1.0 0.1102584868
H  H151  1  0.81270000  0.91060000  0.76910000  1.0 0.0635084543
H  H152  1  0.05310000  0.02720000  0.97690000  1.0 0.0832441249
H  H153  1  0.96280000  0.96140000  0.82600000  1.0 0.0974831595
H  H154  1  0.55580000  0.77700000  0.83720000  1.0 0.1102584868
H  H155  1  0.59980000  0.87820000  0.87420000  1.0 0.0886995015
H  H156  1  0.49860000  0.81860000  0.81120000  1.0 0.1102584868
H  H157  1  0.97630000  0.54940000  0.90290000  1.0 0.1395559002
H  H158  1  0.25480000  0.78050000  0.11750000  1.0 0.1329014725
H  H159  1  0.21590000  0.64870000  0.10600000  1.0 0.1395559002
H  H160  1  0.02140000  0.68090000  0.91090000  1.0 0.1192066204
H  H161  1  0.22740000  0.87770000  0.07310000  1.0 0.1192066204
H  H162  1  0.21490000  0.96980000  0.03290000  1.0 0.2739915353
H  H163  1  0.16110000  0.11750000  0.89960000  1.0 0.1192066204
H  H164  1  0.04240000  0.86610000  0.70690000  1.0 0.1192066204
H  H165  1  0.21640000  0.08340000  0.00080000  1.0 0.1488822092
H  H166  1  0.09180000  0.01400000  0.74740000  1.0 0.1395559002
H  H167  1  0.14650000  0.07340000  0.59710000  1.0 0.1395559002
H  H168  1  0.16300000  0.13730000  0.38250000  1.0 0.1329014725
H  H169  1  0.04270000  0.10990000  0.39400000  1.0 0.1395559002
H  H170  1  0.27000000  0.11050000  0.58910000  1.0 0.1192066204
H  H171  1  0.30460000  0.15430000  0.42690000  1.0 0.1192066204
H  H172  1  0.43690000  0.18200000  0.46710000  1.0 0.2739915353
H  H173  1  0.71790000  0.26150000  0.60040000  1.0 0.1192066204
H  H174  1  0.65920000  0.33550000  0.79310000  1.0 0.1192066204
H  H175  1  0.58260000  0.21560000  0.49920000  1.0 0.1488822092
H  H176  1  0.76660000  0.34440000  0.75260000  1.0 0.1395559002
H  H177  1  0.35350000  0.95060000  0.92690000  1.0 0.1395559002
H  H178  1  0.33700000  0.71950000  0.97430000  1.0 0.1329014725
H  H179  1  0.45730000  0.85130000  0.06720000  1.0 0.1395559002
H  H180  1  0.23000000  0.81910000  0.84050000  1.0 0.1192066204
H  H181  1  0.19540000  0.62230000  0.84970000  1.0 0.1192066204
H  H182  1  0.06310000  0.53020000  0.74510000  1.0 0.2739915353
H  H183  1  0.78210000  0.38250000  0.54360000  1.0 0.1192066204
H  H184  1  0.84080000  0.63390000  0.67630000  1.0 0.1192066204
H  H185  1  0.91740000  0.41660000  0.63300000  1.0 0.1488822092
H  H186  1  0.73340000  0.48600000  0.57780000  1.0 0.1395559002
H  H187  1  0.52370000  0.42660000  0.57310000  1.0 0.1395559002
H  H188  1  0.24520000  0.36270000  0.52570000  1.0 0.1329014725
H  H189  1  0.28410000  0.39010000  0.43280000  1.0 0.1395559002
H  H190  1  0.47860000  0.38950000  0.65950000  1.0 0.1192066204
H  H191  1  0.27260000  0.34570000  0.65030000  1.0 0.1192066204
H  H192  1  0.28510000  0.31800000  0.75490000  1.0 0.2739915353
H  H193  1  0.33890000  0.23850000  0.95640000  1.0 0.1192066204
H  H194  1  0.45760000  0.16450000  0.82370000  1.0 0.1192066204
H  H195  1  0.28360000  0.28440000  0.86700000  1.0 0.1488822092
H  H196  1  0.40820000  0.15560000  0.92220000  1.0 0.1395559002
H  H197  1  0.90290000  0.97630000  0.54940000  1.0 0.1395559002
H  H198  1  0.11750000  0.25480000  0.78050000  1.0 0.1329014725
H  H199  1  0.10600000  0.21590000  0.64870000  1.0 0.1395559002
H  H200  1  0.91090000  0.02140000  0.68090000  1.0 0.1192066204
H  H201  1  0.07310000  0.22740000  0.87770000  1.0 0.1192066204
H  H202  1  0.03290000  0.21490000  0.96980000  1.0 0.2739915353
H  H203  1  0.89960000  0.16110000  0.11750000  1.0 0.1192066204
H  H204  1  0.70690000  0.04240000  0.86610000  1.0 0.1192066204
H  H205  1  0.00080000  0.21640000  0.08340000  1.0 0.1488822092
H  H206  1  0.74740000  0.09180000  0.01400000  1.0 0.1395559002
H  H207  1  0.59710000  0.14650000  0.07340000  1.0 0.1395559002
H  H208  1  0.38250000  0.16300000  0.13730000  1.0 0.1329014725
H  H209  1  0.39400000  0.04270000  0.10990000  1.0 0.1395559002
H  H210  1  0.58910000  0.27000000  0.11050000  1.0 0.1192066204
H  H211  1  0.42690000  0.30460000  0.15430000  1.0 0.1192066204
H  H212  1  0.46710000  0.43690000  0.18200000  1.0 0.2739915353
H  H213  1  0.60040000  0.71790000  0.26150000  1.0 0.1192066204
H  H214  1  0.79310000  0.65920000  0.33550000  1.0 0.1192066204
H  H215  1  0.49920000  0.58260000  0.21560000  1.0 0.1488822092
H  H216  1  0.75260000  0.76660000  0.34440000  1.0 0.1395559002
H  H217  1  0.92690000  0.35350000  0.95060000  1.0 0.1395559002
H  H218  1  0.97430000  0.33700000  0.71950000  1.0 0.1329014725
H  H219  1  0.06720000  0.45730000  0.85130000  1.0 0.1395559002
H  H220  1  0.84050000  0.23000000  0.81910000  1.0 0.1192066204
H  H221  1  0.84970000  0.19540000  0.62230000  1.0 0.1192066204
H  H222  1  0.74510000  0.06310000  0.53020000  1.0 0.2739915353
H  H223  1  0.54360000  0.78210000  0.38250000  1.0 0.1192066204
H  H224  1  0.67630000  0.84080000  0.63390000  1.0 0.1192066204
H  H225  1  0.63300000  0.91740000  0.41660000  1.0 0.1488822092
H  H226  1  0.57780000  0.73340000  0.48600000  1.0 0.1395559002
H  H227  1  0.57310000  0.52370000  0.42660000  1.0 0.1395559002
H  H228  1  0.52570000  0.24520000  0.36270000  1.0 0.1329014725
H  H229  1  0.43280000  0.28410000  0.39010000  1.0 0.1395559002
H  H230  1  0.65950000  0.47860000  0.38950000  1.0 0.1192066204
H  H231  1  0.65030000  0.27260000  0.34570000  1.0 0.1192066204
H  H232  1  0.75490000  0.28510000  0.31800000  1.0 0.2739915353
H  H233  1  0.95640000  0.33890000  0.23850000  1.0 0.1192066204
H  H234  1  0.82370000  0.45760000  0.16450000  1.0 0.1192066204
H  H235  1  0.86700000  0.28360000  0.28440000  1.0 0.1488822092
H  H236  1  0.92220000  0.40820000  0.15560000  1.0 0.1395559002
H  H237  1  0.54940000  0.90290000  0.97630000  1.0 0.1395559002
H  H238  1  0.78050000  0.11750000  0.25480000  1.0 0.1329014725
H  H239  1  0.64870000  0.10600000  0.21590000  1.0 0.1395559002
H  H240  1  0.68090000  0.91090000  0.02140000  1.0 0.1192066204
H  H241  1  0.87770000  0.07310000  0.22740000  1.0 0.1192066204
H  H242  1  0.96980000  0.03290000  0.21490000  1.0 0.2739915353
H  H243  1  0.11750000  0.89960000  0.16110000  1.0 0.1192066204
H  H244  1  0.86610000  0.70690000  0.04240000  1.0 0.1192066204
H  H245  1  0.08340000  0.00080000  0.21640000  1.0 0.1488822092
H  H246  1  0.01400000  0.74740000  0.09180000  1.0 0.1395559002
H  H247  1  0.07340000  0.59710000  0.14650000  1.0 0.1395559002
H  H248  1  0.13730000  0.38250000  0.16300000  1.0 0.1329014725
H  H249  1  0.10990000  0.39400000  0.04270000  1.0 0.1395559002
H  H250  1  0.11050000  0.58910000  0.27000000  1.0 0.1192066204
H  H251  1  0.15430000  0.42690000  0.30460000  1.0 0.1192066204
H  H252  1  0.18200000  0.46710000  0.43690000  1.0 0.2739915353
H  H253  1  0.26150000  0.60040000  0.71790000  1.0 0.1192066204
H  H254  1  0.33550000  0.79310000  0.65920000  1.0 0.1192066204
H  H255  1  0.21560000  0.49920000  0.58260000  1.0 0.1488822092
H  H256  1  0.34440000  0.75260000  0.76660000  1.0 0.1395559002
H  H257  1  0.95060000  0.92690000  0.35350000  1.0 0.1395559002
H  H258  1  0.71950000  0.97430000  0.33700000  1.0 0.1329014725
H  H259  1  0.85130000  0.06720000  0.45730000  1.0 0.1395559002
H  H260  1  0.81910000  0.84050000  0.23000000  1.0 0.1192066204
H  H261  1  0.62230000  0.84970000  0.19540000  1.0 0.1192066204
H  H262  1  0.53020000  0.74510000  0.06310000  1.0 0.2739915353
H  H263  1  0.38250000  0.54360000  0.78210000  1.0 0.1192066204
H  H264  1  0.63390000  0.67630000  0.84080000  1.0 0.1192066204
H  H265  1  0.41660000  0.63300000  0.91740000  1.0 0.1488822092
H  H266  1  0.48600000  0.57780000  0.73340000  1.0 0.1395559002
H  H267  1  0.42660000  0.57310000  0.52370000  1.0 0.1395559002
H  H268  1  0.36270000  0.52570000  0.24520000  1.0 0.1329014725
H  H269  1  0.39010000  0.43280000  0.28410000  1.0 0.1395559002
H  H270  1  0.38950000  0.65950000  0.47860000  1.0 0.1192066204
H  H271  1  0.34570000  0.65030000  0.27260000  1.0 0.1192066204
H  H272  1  0.31800000  0.75490000  0.28510000  1.0 0.2739915353
H  H273  1  0.23850000  0.95640000  0.33890000  1.0 0.1192066204
H  H274  1  0.16450000  0.82370000  0.45760000  1.0 0.1192066204
H  H275  1  0.28440000  0.86700000  0.28360000  1.0 0.1488822092
H  H276  1  0.15560000  0.92220000  0.40820000  1.0 0.1395559002
C  C1  1  0.49674000  0.48826000  0.95092000  1.0 -0.0204780706
C  C2  1  0.53464000  0.47776000  0.89944000  1.0 -0.1053390812
C  C3  1  0.62077000  0.53661000  0.93288000  1.0 0.0682102642
C  C4  1  0.64620000  0.50800000  0.87060000  1.0 0.1102584868
C  C5  1  0.75680000  0.64510000  0.81870000  1.0 0.0313883916
C  C6  1  0.67050000  0.64040000  0.65710000  1.0 -0.1266387966
C  C7  1  0.67162000  0.59849000  0.02051000  1.0 -0.1506775976
C  C8  1  0.54853000  0.54656000  0.03927000  1.0 -0.0204780706
C  C9  1  0.63685000  0.59881000  0.07464000  1.0 -0.1175977517
C  C10  1  0.67560000  0.49770000  0.72970000  1.0 -0.391109439
C  C11  1  0.03734000  0.54582000  0.54908000  1.0 -0.0204780706
C  C12  1  0.07832000  0.63520000  0.60056000  1.0 -0.1053390812
C  C13  1  0.10373000  0.68789000  0.56712000  1.0 0.0682102642
C  C14  1  0.13740000  0.77560000  0.62940000  1.0 0.1102584868
C  C15  1  0.32640000  0.93810000  0.68130000  1.0 0.0313883916
C  C16  1  0.48330000  0.01340000  0.84290000  1.0 -0.1266387966
C  C17  1  0.07798000  0.65111000  0.47949000  1.0 -0.1506775976
C  C18  1  0.00729000  0.50926000  0.46073000  1.0 -0.0204780706
C  C19  1  0.02417000  0.56221000  0.42536000  1.0 -0.1175977517
C  C20  1  0.26800000  0.94590000  0.77030000  1.0 -0.391109439
C  C21  1  0.46266000  0.01174000  0.50848000  1.0 -0.0204780706
C  C22  1  0.42168000  0.02224000  0.55688000  1.0 -0.1053390812
C  C23  1  0.39627000  0.96339000  0.58416000  1.0 0.0682102642
C  C24  1  0.36260000  0.99200000  0.63820000  1.0 0.1102584868
C  C25  1  0.17360000  0.85490000  0.61170000  1.0 0.0313883916
C  C26  1  0.01670000  0.85960000  0.53010000  1.0 -0.1266387966
C  C27  1  0.42202000  0.90151000  0.57313000  1.0 -0.1506775976
C  C28  1  0.49271000  0.95344000  0.50197000  1.0 -0.0204780706
C  C29  1  0.47583000  0.90119000  0.53804000  1.0 -0.1175977517
C  C30  1  0.23200000  0.00230000  0.67790000  1.0 -0.391109439
C  C31  1  0.00326000  0.95418000  0.99152000  1.0 -0.0204780706
C  C32  1  0.96536000  0.86480000  0.94312000  1.0 -0.1053390812
C  C33  1  0.87923000  0.81211000  0.91584000  1.0 0.0682102642
C  C34  1  0.85380000  0.72440000  0.86180000  1.0 0.1102584868
C  C35  1  0.74320000  0.56190000  0.88830000  1.0 0.0313883916
C  C36  1  0.82950000  0.48660000  0.96990000  1.0 -0.1266387966
C  C37  1  0.82838000  0.84889000  0.92687000  1.0 -0.1506775976
C  C38  1  0.95147000  0.99074000  0.99803000  1.0 -0.0204780706
C  C39  1  0.86315000  0.93779000  0.96196000  1.0 -0.1175977517
C  C40  1  0.82440000  0.55410000  0.82210000  1.0 -0.391109439
C  C41  1  0.95092000  0.49674000  0.48826000  1.0 -0.0204780706
C  C42  1  0.89944000  0.53464000  0.47776000  1.0 -0.1053390812
C  C43  1  0.93288000  0.62077000  0.53661000  1.0 0.0682102642
C  C44  1  0.87060000  0.64620000  0.50800000  1.0 0.1102584868
C  C45  1  0.81870000  0.75680000  0.64510000  1.0 0.0313883916
C  C46  1  0.65710000  0.67050000  0.64040000  1.0 -0.1266387966
C  C47  1  0.02051000  0.67162000  0.59849000  1.0 -0.1506775976
C  C48  1  0.03927000  0.54853000  0.54656000  1.0 -0.0204780706
C  C49  1  0.07464000  0.63685000  0.59881000  1.0 -0.1175977517
C  C50  1  0.72970000  0.67560000  0.49770000  1.0 -0.391109439
C  C51  1  0.54908000  0.03734000  0.54582000  1.0 -0.0204780706
C  C52  1  0.60056000  0.07832000  0.63520000  1.0 -0.1053390812
C  C53  1  0.56712000  0.10373000  0.68789000  1.0 0.0682102642
C  C54  1  0.62940000  0.13740000  0.77560000  1.0 0.1102584868
C  C55  1  0.68130000  0.32640000  0.93810000  1.0 0.0313883916
C  C56  1  0.84290000  0.48330000  0.01340000  1.0 -0.1266387966
C  C57  1  0.47949000  0.07798000  0.65111000  1.0 -0.1506775976
C  C58  1  0.46073000  0.00729000  0.50926000  1.0 -0.0204780706
C  C59  1  0.42536000  0.02417000  0.56221000  1.0 -0.1175977517
C  C60  1  0.77030000  0.26800000  0.94590000  1.0 -0.391109439
C  C61  1  0.50848000  0.46266000  0.01174000  1.0 -0.0204780706
C  C62  1  0.55688000  0.42168000  0.02224000  1.0 -0.1053390812
C  C63  1  0.58416000  0.39627000  0.96339000  1.0 0.0682102642
C  C64  1  0.63820000  0.36260000  0.99200000  1.0 0.1102584868
C  C65  1  0.61170000  0.17360000  0.85490000  1.0 0.0313883916
C  C66  1  0.53010000  0.01670000  0.85960000  1.0 -0.1266387966
C  C67  1  0.57313000  0.42202000  0.90151000  1.0 -0.1506775976
C  C68  1  0.50197000  0.49271000  0.95344000  1.0 -0.0204780706
C  C69  1  0.53804000  0.47583000  0.90119000  1.0 -0.1175977517
C  C70  1  0.67790000  0.23200000  0.00230000  1.0 -0.391109439
C  C71  1  0.99152000  0.00326000  0.95418000  1.0 -0.0204780706
C  C72  1  0.94312000  0.96536000  0.86480000  1.0 -0.1053390812
C  C73  1  0.91584000  0.87923000  0.81211000  1.0 0.0682102642
C  C74  1  0.86180000  0.85380000  0.72440000  1.0 0.1102584868
C  C75  1  0.88830000  0.74320000  0.56190000  1.0 0.0313883916
C  C76  1  0.96990000  0.82950000  0.48660000  1.0 -0.1266387966
C  C77  1  0.92687000  0.82838000  0.84889000  1.0 -0.1506775976
C  C78  1  0.99803000  0.95147000  0.99074000  1.0 -0.0204780706
C  C79  1  0.96196000  0.86315000  0.93779000  1.0 -0.1175977517
C  C80  1  0.82210000  0.82440000  0.55410000  1.0 -0.391109439
C  C81  1  0.48826000  0.95092000  0.49674000  1.0 -0.0204780706
C  C82  1  0.47776000  0.89944000  0.53464000  1.0 -0.1053390812
C  C83  1  0.53661000  0.93288000  0.62077000  1.0 0.0682102642
C  C84  1  0.50800000  0.87060000  0.64620000  1.0 0.1102584868
C  C85  1  0.64510000  0.81870000  0.75680000  1.0 0.0313883916
C  C86  1  0.64040000  0.65710000  0.67050000  1.0 -0.1266387966
C  C87  1  0.59849000  0.02051000  0.67162000  1.0 -0.1506775976
C  C88  1  0.54656000  0.03927000  0.54853000  1.0 -0.0204780706
C  C89  1  0.59881000  0.07464000  0.63685000  1.0 -0.1175977517
C  C90  1  0.49770000  0.72970000  0.67560000  1.0 -0.391109439
C  C91  1  0.54582000  0.54908000  0.03734000  1.0 -0.0204780706
C  C92  1  0.63520000  0.60056000  0.07832000  1.0 -0.1053390812
C  C93  1  0.68789000  0.56712000  0.10373000  1.0 0.0682102642
C  C94  1  0.77560000  0.62940000  0.13740000  1.0 0.1102584868
C  C95  1  0.93810000  0.68130000  0.32640000  1.0 0.0313883916
C  C96  1  0.01340000  0.84290000  0.48330000  1.0 -0.1266387966
C  C97  1  0.65111000  0.47949000  0.07798000  1.0 -0.1506775976
C  C98  1  0.50926000  0.46073000  0.00729000  1.0 -0.0204780706
C  C99  1  0.56221000  0.42536000  0.02417000  1.0 -0.1175977517
C  C100  1  0.94590000  0.77030000  0.26800000  1.0 -0.391109439
C  C101  1  0.01174000  0.50848000  0.46266000  1.0 -0.0204780706
C  C102  1  0.02224000  0.55688000  0.42168000  1.0 -0.1053390812
C  C103  1  0.96339000  0.58416000  0.39627000  1.0 0.0682102642
C  C104  1  0.99200000  0.63820000  0.36260000  1.0 0.1102584868
C  C105  1  0.85490000  0.61170000  0.17360000  1.0 0.0313883916
C  C106  1  0.85960000  0.53010000  0.01670000  1.0 -0.1266387966
C  C107  1  0.90151000  0.57313000  0.42202000  1.0 -0.1506775976
C  C108  1  0.95344000  0.50197000  0.49271000  1.0 -0.0204780706
C  C109  1  0.90119000  0.53804000  0.47583000  1.0 -0.1175977517
C  C110  1  0.00230000  0.67790000  0.23200000  1.0 -0.391109439
C  C111  1  0.95418000  0.99152000  0.00326000  1.0 -0.0204780706
C  C112  1  0.86480000  0.94312000  0.96536000  1.0 -0.1053390812
C  C113  1  0.81211000  0.91584000  0.87923000  1.0 0.0682102642
C  C114  1  0.72440000  0.86180000  0.85380000  1.0 0.1102584868
C  C115  1  0.56190000  0.88830000  0.74320000  1.0 0.0313883916
C  C116  1  0.48660000  0.96990000  0.82950000  1.0 -0.1266387966
C  C117  1  0.84889000  0.92687000  0.82838000  1.0 -0.1506775976
C  C118  1  0.99074000  0.99803000  0.95147000  1.0 -0.0204780706
C  C119  1  0.93779000  0.96196000  0.86315000  1.0 -0.1175977517
C  C120  1  0.55410000  0.82210000  0.82440000  1.0 -0.391109439
C  C121  1  0.75000000  0.56650000  0.81650000  1.0 0.0413281448
C  C122  1  0.25000000  0.93350000  0.68350000  1.0 0.0413281448
C  C123  1  0.81650000  0.75000000  0.56650000  1.0 0.0413281448
C  C124  1  0.68350000  0.25000000  0.93350000  1.0 0.0413281448
C  C125  1  0.56650000  0.81650000  0.75000000  1.0 0.0413281448
C  C126  1  0.93350000  0.68350000  0.25000000  1.0 0.0413281448
C  C127  1  0.03314000  0.59550000  0.94584000  1.0 -0.210927819
C  C128  1  0.19940000  0.73300000  0.07240000  1.0 -0.0848122933
C  C129  1  0.08945000  0.58295000  0.00490000  1.0 0.1954363661
C  C130  1  0.17540000  0.65580000  0.06740000  1.0 -0.1506775976
C  C131  1  0.06080000  0.67410000  0.95110000  1.0 -0.1266387966
C  C132  1  0.17690000  0.83060000  0.02090000  1.0 -0.0368171317
C  C133  1  0.14370000  0.74560000  0.01170000  1.0 0.0832441249
C  C134  1  0.14810000  0.94890000  0.91640000  1.0 0.2954599462
C  C135  1  0.15020000  0.06000000  0.88220000  1.0 -0.0716396009
C  C136  1  0.07560000  0.90980000  0.76600000  1.0 -0.0716396009
C  C137  1  0.17770000  0.03960000  0.94190000  1.0 -0.238714668
C  C138  1  0.10320000  0.99670000  0.78970000  1.0 -0.238714668
C  C139  1  0.14966000  0.08730000  0.55416000  1.0 -0.210927819
C  C140  1  0.16060000  0.12700000  0.42760000  1.0 -0.0848122933
C  C141  1  0.07805000  0.08455000  0.49510000  1.0 0.1954363661
C  C142  1  0.08840000  0.10800000  0.43260000  1.0 -0.1506775976
C  C143  1  0.22300000  0.10970000  0.54890000  1.0 -0.1266387966
C  C144  1  0.30970000  0.15600000  0.47910000  1.0 -0.0368171317
C  C145  1  0.23390000  0.13200000  0.48830000  1.0 0.0832441249
C  C146  1  0.53250000  0.23170000  0.58360000  1.0 0.2954599462
C  C147  1  0.67780000  0.26800000  0.61780000  1.0 -0.0716396009
C  C148  1  0.64380000  0.30960000  0.73400000  1.0 -0.0716396009
C  C149  1  0.59770000  0.23580000  0.55810000  1.0 -0.238714668
C  C150  1  0.70700000  0.31350000  0.71030000  1.0 -0.238714668
C  C151  1  0.35034000  0.90450000  0.93764000  1.0 -0.210927819
C  C152  1  0.33940000  0.76700000  0.96640000  1.0 -0.0848122933
C  C153  1  0.42195000  0.91705000  0.00650000  1.0 0.1954363661
C  C154  1  0.41160000  0.84420000  0.01960000  1.0 -0.1506775976
C  C155  1  0.27700000  0.82590000  0.88670000  1.0 -0.1266387966
C  C156  1  0.19030000  0.66940000  0.84630000  1.0 -0.0368171317
C  C157  1  0.26610000  0.75440000  0.89810000  1.0 0.0832441249
C  C158  1  0.96750000  0.55110000  0.69920000  1.0 0.2954599462
C  C159  1  0.82220000  0.44000000  0.59020000  1.0 -0.0716396009
C  C160  1  0.85620000  0.59020000  0.66580000  1.0 -0.0716396009
C  C161  1  0.90230000  0.46040000  0.63810000  1.0 -0.238714668
C  C162  1  0.79300000  0.50330000  0.60650000  1.0 -0.238714668
C  C163  1  0.46686000  0.41270000  0.56236000  1.0 -0.210927819
C  C164  1  0.30060000  0.37300000  0.53360000  1.0 -0.0848122933
C  C165  1  0.41055000  0.41545000  0.49350000  1.0 0.1954363661
C  C166  1  0.32460000  0.39200000  0.48040000  1.0 -0.1506775976
C  C167  1  0.43920000  0.39030000  0.61330000  1.0 -0.1266387966
C  C168  1  0.32310000  0.34400000  0.65370000  1.0 -0.0368171317
C  C169  1  0.35630000  0.36800000  0.60190000  1.0 0.0832441249
C  C170  1  0.35190000  0.26830000  0.80080000  1.0 0.2954599462
C  C171  1  0.34980000  0.23200000  0.90980000  1.0 -0.0716396009
C  C172  1  0.42440000  0.19040000  0.83420000  1.0 -0.0716396009
C  C173  1  0.32230000  0.26420000  0.86190000  1.0 -0.238714668
C  C174  1  0.39680000  0.18650000  0.89350000  1.0 -0.238714668
C  C175  1  0.94584000  0.03314000  0.59550000  1.0 -0.210927819
C  C176  1  0.07240000  0.19940000  0.73300000  1.0 -0.0848122933
C  C177  1  0.00490000  0.08945000  0.58295000  1.0 0.1954363661
C  C178  1  0.06740000  0.17540000  0.65580000  1.0 -0.1506775976
C  C179  1  0.95110000  0.06080000  0.67410000  1.0 -0.1266387966
C  C180  1  0.02090000  0.17690000  0.83060000  1.0 -0.0368171317
C  C181  1  0.01170000  0.14370000  0.74560000  1.0 0.0832441249
C  C182  1  0.91640000  0.14810000  0.94890000  1.0 0.2954599462
C  C183  1  0.88220000  0.15020000  0.06000000  1.0 -0.0716396009
C  C184  1  0.76600000  0.07560000  0.90980000  1.0 -0.0716396009
C  C185  1  0.94190000  0.17770000  0.03960000  1.0 -0.238714668
C  C186  1  0.78970000  0.10320000  0.99670000  1.0 -0.238714668
C  C187  1  0.55416000  0.14966000  0.08730000  1.0 -0.210927819
C  C188  1  0.42760000  0.16060000  0.12700000  1.0 -0.0848122933
C  C189  1  0.49510000  0.07805000  0.08455000  1.0 0.1954363661
C  C190  1  0.43260000  0.08840000  0.10800000  1.0 -0.1506775976
C  C191  1  0.54890000  0.22300000  0.10970000  1.0 -0.1266387966
C  C192  1  0.47910000  0.30970000  0.15600000  1.0 -0.0368171317
C  C193  1  0.48830000  0.23390000  0.13200000  1.0 0.0832441249
C  C194  1  0.58360000  0.53250000  0.23170000  1.0 0.2954599462
C  C195  1  0.61780000  0.67780000  0.26800000  1.0 -0.0716396009
C  C196  1  0.73400000  0.64380000  0.30960000  1.0 -0.0716396009
C  C197  1  0.55810000  0.59770000  0.23580000  1.0 -0.238714668
C  C198  1  0.71030000  0.70700000  0.31350000  1.0 -0.238714668
C  C199  1  0.93764000  0.35034000  0.90450000  1.0 -0.210927819
C  C200  1  0.96640000  0.33940000  0.76700000  1.0 -0.0848122933
C  C201  1  0.00650000  0.42195000  0.91705000  1.0 0.1954363661
C  C202  1  0.01960000  0.41160000  0.84420000  1.0 -0.1506775976
C  C203  1  0.88670000  0.27700000  0.82590000  1.0 -0.1266387966
C  C204  1  0.84630000  0.19030000  0.66940000  1.0 -0.0368171317
C  C205  1  0.89810000  0.26610000  0.75440000  1.0 0.0832441249
C  C206  1  0.69920000  0.96750000  0.55110000  1.0 0.2954599462
C  C207  1  0.59020000  0.82220000  0.44000000  1.0 -0.0716396009
C  C208  1  0.66580000  0.85620000  0.59020000  1.0 -0.0716396009
C  C209  1  0.63810000  0.90230000  0.46040000  1.0 -0.238714668
C  C210  1  0.60650000  0.79300000  0.50330000  1.0 -0.238714668
C  C211  1  0.56236000  0.46686000  0.41270000  1.0 -0.210927819
C  C212  1  0.53360000  0.30060000  0.37300000  1.0 -0.0848122933
C  C213  1  0.49350000  0.41055000  0.41545000  1.0 0.1954363661
C  C214  1  0.48040000  0.32460000  0.39200000  1.0 -0.1506775976
C  C215  1  0.61330000  0.43920000  0.39030000  1.0 -0.1266387966
C  C216  1  0.65370000  0.32310000  0.34400000  1.0 -0.0368171317
C  C217  1  0.60190000  0.35630000  0.36800000  1.0 0.0832441249
C  C218  1  0.80080000  0.35190000  0.26830000  1.0 0.2954599462
C  C219  1  0.90980000  0.34980000  0.23200000  1.0 -0.0716396009
C  C220  1  0.83420000  0.42440000  0.19040000  1.0 -0.0716396009
C  C221  1  0.86190000  0.32230000  0.26420000  1.0 -0.238714668
C  C222  1  0.89350000  0.39680000  0.18650000  1.0 -0.238714668
C  C223  1  0.59550000  0.94584000  0.03314000  1.0 -0.210927819
C  C224  1  0.73300000  0.07240000  0.19940000  1.0 -0.0848122933
C  C225  1  0.58295000  0.00490000  0.08945000  1.0 0.1954363661
C  C226  1  0.65580000  0.06740000  0.17540000  1.0 -0.1506775976
C  C227  1  0.67410000  0.95110000  0.06080000  1.0 -0.1266387966
C  C228  1  0.83060000  0.02090000  0.17690000  1.0 -0.0368171317
C  C229  1  0.74560000  0.01170000  0.14370000  1.0 0.0832441249
C  C230  1  0.94890000  0.91640000  0.14810000  1.0 0.2954599462
C  C231  1  0.06000000  0.88220000  0.15020000  1.0 -0.0716396009
C  C232  1  0.90980000  0.76600000  0.07560000  1.0 -0.0716396009
C  C233  1  0.03960000  0.94190000  0.17770000  1.0 -0.238714668
C  C234  1  0.99670000  0.78970000  0.10320000  1.0 -0.238714668
C  C235  1  0.08730000  0.55416000  0.14966000  1.0 -0.210927819
C  C236  1  0.12700000  0.42760000  0.16060000  1.0 -0.0848122933
C  C237  1  0.08455000  0.49510000  0.07805000  1.0 0.1954363661
C  C238  1  0.10800000  0.43260000  0.08840000  1.0 -0.1506775976
C  C239  1  0.10970000  0.54890000  0.22300000  1.0 -0.1266387966
C  C240  1  0.15600000  0.47910000  0.30970000  1.0 -0.0368171317
C  C241  1  0.13200000  0.48830000  0.23390000  1.0 0.0832441249
C  C242  1  0.23170000  0.58360000  0.53250000  1.0 0.2954599462
C  C243  1  0.26800000  0.61780000  0.67780000  1.0 -0.0716396009
C  C244  1  0.30960000  0.73400000  0.64380000  1.0 -0.0716396009
C  C245  1  0.23580000  0.55810000  0.59770000  1.0 -0.238714668
C  C246  1  0.31350000  0.71030000  0.70700000  1.0 -0.238714668
C  C247  1  0.90450000  0.93764000  0.35034000  1.0 -0.210927819
C  C248  1  0.76700000  0.96640000  0.33940000  1.0 -0.0848122933
C  C249  1  0.91705000  0.00650000  0.42195000  1.0 0.1954363661
C  C250  1  0.84420000  0.01960000  0.41160000  1.0 -0.1506775976
C  C251  1  0.82590000  0.88670000  0.27700000  1.0 -0.1266387966
C  C252  1  0.66940000  0.84630000  0.19030000  1.0 -0.0368171317
C  C253  1  0.75440000  0.89810000  0.26610000  1.0 0.0832441249
C  C254  1  0.55110000  0.69920000  0.96750000  1.0 0.2954599462
C  C255  1  0.44000000  0.59020000  0.82220000  1.0 -0.0716396009
C  C256  1  0.59020000  0.66580000  0.85620000  1.0 -0.0716396009
C  C257  1  0.46040000  0.63810000  0.90230000  1.0 -0.238714668
C  C258  1  0.50330000  0.60650000  0.79300000  1.0 -0.238714668
C  C259  1  0.41270000  0.56236000  0.46686000  1.0 -0.210927819
C  C260  1  0.37300000  0.53360000  0.30060000  1.0 -0.0848122933
C  C261  1  0.41545000  0.49350000  0.41055000  1.0 0.1954363661
C  C262  1  0.39200000  0.48040000  0.32460000  1.0 -0.1506775976
C  C263  1  0.39030000  0.61330000  0.43920000  1.0 -0.1266387966
C  C264  1  0.34400000  0.65370000  0.32310000  1.0 -0.0368171317
C  C265  1  0.36800000  0.60190000  0.35630000  1.0 0.0832441249
C  C266  1  0.26830000  0.80080000  0.35190000  1.0 0.2954599462
C  C267  1  0.23200000  0.90980000  0.34980000  1.0 -0.0716396009
C  C268  1  0.19040000  0.83420000  0.42440000  1.0 -0.0716396009
C  C269  1  0.26420000  0.86190000  0.32230000  1.0 -0.238714668
C  C270  1  0.18650000  0.89350000  0.39680000  1.0 -0.238714668
N  N1  1  0.72140000  0.55740000  0.87580000  1.0 -0.0204780706
N  N2  1  0.18160000  0.84560000  0.62420000  1.0 -0.0204780706
N  N3  1  0.31840000  0.94260000  0.66400000  1.0 -0.0204780706
N  N4  1  0.77860000  0.65440000  0.83600000  1.0 -0.0204780706
N  N5  1  0.87580000  0.72140000  0.55740000  1.0 -0.0204780706
N  N6  1  0.62420000  0.18160000  0.84560000  1.0 -0.0204780706
N  N7  1  0.66400000  0.31840000  0.94260000  1.0 -0.0204780706
N  N8  1  0.83600000  0.77860000  0.65440000  1.0 -0.0204780706
N  N9  1  0.55740000  0.87580000  0.72140000  1.0 -0.0204780706
N  N10  1  0.84560000  0.62420000  0.18160000  1.0 -0.0204780706
N  N11  1  0.94260000  0.66400000  0.31840000  1.0 -0.0204780706
N  N12  1  0.65440000  0.83600000  0.77860000  1.0 -0.0204780706
N  N13  1  0.14063000  0.84452000  0.96129000  1.0 -0.14434692
N  N14  1  0.17500000  0.92840000  0.97980000  1.0 -0.2749039107
N  N15  1  0.09910000  0.88820000  0.83390000  1.0 -0.3271811578
N  N16  1  0.38323000  0.17934000  0.53871000  1.0 -0.14434692
N  N17  1  0.44860000  0.19520000  0.52020000  1.0 -0.2749039107
N  N18  1  0.55430000  0.26520000  0.66610000  1.0 -0.3271811578
N  N19  1  0.11677000  0.65548000  0.79611000  1.0 -0.14434692
N  N20  1  0.05140000  0.57160000  0.74660000  1.0 -0.2756657176
N  N21  1  0.94570000  0.61180000  0.71090000  1.0 -0.3271811578
N  N22  1  0.35937000  0.32066000  0.70389000  1.0 -0.14434692
N  N23  1  0.32500000  0.30480000  0.75340000  1.0 -0.2749039107
N  N24  1  0.40090000  0.23480000  0.78910000  1.0 -0.3271811578
N  N25  1  0.96129000  0.14063000  0.84452000  1.0 -0.14434692
N  N26  1  0.97980000  0.17500000  0.92840000  1.0 -0.2749039107
N  N27  1  0.83390000  0.09910000  0.88820000  1.0 -0.3271811578
N  N28  1  0.53871000  0.38323000  0.17934000  1.0 -0.14434692
N  N29  1  0.52020000  0.44860000  0.19520000  1.0 -0.2749039107
N  N30  1  0.66610000  0.55430000  0.26520000  1.0 -0.3271811578
N  N31  1  0.79611000  0.11677000  0.65548000  1.0 -0.14434692
N  N32  1  0.74660000  0.05140000  0.57160000  1.0 -0.2749039107
N  N33  1  0.71090000  0.94570000  0.61180000  1.0 -0.3271811578
N  N34  1  0.70389000  0.35937000  0.32066000  1.0 -0.14434692
N  N35  1  0.75340000  0.32500000  0.30480000  1.0 -0.2749039107
N  N36  1  0.78910000  0.40090000  0.23480000  1.0 -0.3271811578
N  N37  1  0.84452000  0.96129000  0.14063000  1.0 -0.14434692
N  N38  1  0.92840000  0.97980000  0.17500000  1.0 -0.2749039107
N  N39  1  0.88820000  0.83390000  0.09910000  1.0 -0.3271811578
N  N40  1  0.17934000  0.53871000  0.38323000  1.0 -0.14434692
N  N41  1  0.19520000  0.52020000  0.44860000  1.0 -0.2749039107
N  N42  1  0.26520000  0.66610000  0.55430000  1.0 -0.3271811578
N  N43  1  0.65548000  0.79611000  0.11677000  1.0 -0.14434692
N  N44  1  0.57160000  0.74660000  0.05140000  1.0 -0.2749039107
N  N45  1  0.61180000  0.71090000  0.94570000  1.0 -0.3271811578
N  N46  1  0.32066000  0.70389000  0.35937000  1.0 -0.14434692
N  N47  1  0.30480000  0.75340000  0.32500000  1.0 -0.2749039107
N  N48  1  0.23480000  0.78910000  0.40090000  1.0 -0.3271811578
N  N49  1  0.06180000  0.50000000  0.00000000  1.0 -0.238714668
N  N50  1  0.00000000  0.06180000  0.50000000  1.0 -0.238714668
N  N51  1  0.50000000  0.00000000  0.06180000  1.0 -0.238714668
N  N52  1  0.43820000  0.43820000  0.43820000  1.0 -0.2454680674
Cl  Cl1  1  0.19403000  0.44403000  0.75000000  1.0 1.2484481461
Cl  Cl2  1  0.30597000  0.05597000  0.25000000  1.0 1.2484481461
Cl  Cl3  1  0.44403000  0.75000000  0.19403000  1.0 1.2484481461
Cl  Cl4  1  0.05597000  0.25000000  0.30597000  1.0 1.2484481461
Cl  Cl5  1  0.75000000  0.19403000  0.44403000  1.0 1.2484481461
Cl  Cl6  1  0.25000000  0.30597000  0.05597000  1.0 1.2484481461
O  O1  1  0.69480000  0.62740000  0.73460000  1.0 -0.160323945
O  O2  1  0.83420000  0.71600000  0.88400000  1.0 -0.1017723398
O  O3  1  0.39280000  0.96020000  0.76540000  1.0 -0.160323945
O  O4  1  0.33200000  0.95020000  0.61600000  1.0 -0.1017723398
O  O5  1  0.10720000  0.87260000  0.56740000  1.0 -0.160323945
O  O6  1  0.16800000  0.78400000  0.61820000  1.0 -0.1017723398
O  O7  1  0.80520000  0.53980000  0.93260000  1.0 -0.160323945
O  O8  1  0.66580000  0.54980000  0.88180000  1.0 -0.1017723398
O  O9  1  0.73460000  0.69480000  0.62740000  1.0 -0.160323945
O  O10  1  0.88400000  0.83420000  0.71600000  1.0 -0.1017723398
O  O11  1  0.76540000  0.39280000  0.96020000  1.0 -0.160323945
O  O12  1  0.61600000  0.33200000  0.95020000  1.0 -0.1017723398
O  O13  1  0.56740000  0.10720000  0.87260000  1.0 -0.160323945
O  O14  1  0.61820000  0.16800000  0.78400000  1.0 -0.1017723398
O  O15  1  0.93260000  0.80520000  0.53980000  1.0 -0.160323945
O  O16  1  0.88180000  0.66580000  0.54980000  1.0 -0.1017723398
O  O17  1  0.62740000  0.73460000  0.69480000  1.0 -0.160323945
O  O18  1  0.71600000  0.88400000  0.83420000  1.0 -0.1017723398
O  O19  1  0.96020000  0.76540000  0.39280000  1.0 -0.160323945
O  O20  1  0.95020000  0.61600000  0.33200000  1.0 -0.1017723398
O  O21  1  0.87260000  0.56740000  0.10720000  1.0 -0.160323945
O  O22  1  0.78400000  0.61820000  0.16800000  1.0 -0.1017723398
O  O23  1  0.53980000  0.93260000  0.80520000  1.0 -0.160323945
O  O24  1  0.54980000  0.88180000  0.66580000  1.0 -0.1017723398
O  O25  1  0.19800000  0.42780000  0.67340000  1.0 -0.4551445021
O  O26  1  0.20770000  0.38310000  0.77160000  1.0 -0.4705788516
O  O27  1  0.25440000  0.52460000  0.82660000  1.0 -0.4551445021
O  O28  1  0.11150000  0.43610000  0.72840000  1.0 -0.4705788516
O  O29  1  0.24560000  0.07220000  0.27020000  1.0 -0.4551445021
O  O30  1  0.38850000  0.11690000  0.32460000  1.0 -0.4705788516
O  O31  1  0.30200000  0.97540000  0.22980000  1.0 -0.4551445021
O  O32  1  0.29230000  0.06390000  0.17540000  1.0 -0.4705788516
O  O33  1  0.42780000  0.67340000  0.19800000  1.0 -0.4551445021
O  O34  1  0.38310000  0.77160000  0.20770000  1.0 -0.4705788516
O  O35  1  0.52460000  0.82660000  0.25440000  1.0 -0.4551445021
O  O36  1  0.43610000  0.72840000  0.11150000  1.0 -0.4705788516
O  O37  1  0.07220000  0.27020000  0.24560000  1.0 -0.4551445021
O  O38  1  0.11690000  0.32460000  0.38850000  1.0 -0.4705788516
O  O39  1  0.97540000  0.22980000  0.30200000  1.0 -0.4551445021
O  O40  1  0.06390000  0.17540000  0.29230000  1.0 -0.4705788516
O  O41  1  0.67340000  0.19800000  0.42780000  1.0 -0.4551445021
O  O42  1  0.77160000  0.20770000  0.38310000  1.0 -0.4705788516
O  O43  1  0.82660000  0.25440000  0.52460000  1.0 -0.4551445021
O  O44  1  0.72840000  0.11150000  0.43610000  1.0 -0.4705788516
O  O45  1  0.27020000  0.24560000  0.07220000  1.0 -0.4551445021
O  O46  1  0.32460000  0.38850000  0.11690000  1.0 -0.4705788516
O  O47  1  0.22980000  0.30200000  0.97540000  1.0 -0.4551445021
O  O48  1  0.17540000  0.29230000  0.06390000  1.0 -0.4705788516
