# DDEC6 charges by PACMAN v1.1 (https://github.com/mtap-research/PACMAN-charge/)
data_KENYEK_ion_pacman
_symmetry_space_group_name_H-M   'P 1'
_cell_length_a   18.75690000
_cell_length_b   18.75690000
_cell_length_c   18.75690000
_cell_angle_alpha   109.47100000
_cell_angle_beta   109.47100000
_cell_angle_gamma   109.47100000
_symmetry_Int_Tables_number   1
_chemical_formula_structural   Ag3H138C135N26(ClO8)3
_chemical_formula_sum   'Ag6 H276 C270 N52 Cl6 O48'
_cell_volume   5080.01326069
_cell_formula_units_Z   2
loop_
 _symmetry_equiv_pos_site_id
 _symmetry_equiv_pos_as_xyz
  1  'x, y, z'
loop_
 _atom_site_type_symbol
 _atom_site_label
 _atom_site_symmetry_multiplicity
 _atom_site_fract_x
 _atom_site_fract_y
 _atom_site_fract_z
 _atom_site_occupancy
 _atom_site_charge
Ag  Ag1  1  0.94976000  0.25000000  0.19976000  1.0 0.3896533283
Ag  Ag2  1  0.55024000  0.75000000  0.30024000  1.0 0.3896533283
Ag  Ag3  1  0.19976000  0.94976000  0.25000000  1.0 0.3896533283
Ag  Ag4  1  0.30024000  0.55024000  0.75000000  1.0 0.3896533283
Ag  Ag5  1  0.25000000  0.19976000  0.94976000  1.0 0.3896533283
Ag  Ag6  1  0.75000000  0.30024000  0.55024000  1.0 0.3896533283
H  H1  1  0.56020000  0.54890000  0.07470000  1.0 0.0779991294
H  H2  1  0.49730000  0.56960000  0.15230000  1.0 0.0983253251
H  H3  1  0.38900000  0.53890000  0.17430000  1.0 0.0983253251
H  H4  1  0.19880000  0.43760000  0.17000000  1.0 0.0422110168
H  H5  1  0.39160000  0.40470000  0.39890000  1.0 0.0860387492
H  H6  1  0.29410000  0.37540000  0.37450000  1.0 0.160394051
H  H7  1  0.31750000  0.30920000  0.32530000  1.0 0.108694205
H  H8  1  0.26630000  0.35570000  0.95340000  1.0 0.0690846687
H  H9  1  0.33930000  0.55840000  0.26350000  1.0 0.108694205
H  H10  1  0.31880000  0.50750000  0.31210000  1.0 0.0983253251
H  H11  1  0.37760000  0.49690000  0.27110000  1.0 0.0779991294
H  H12  1  0.47520000  0.45350000  0.92170000  1.0 0.0779991294
H  H13  1  0.32550000  0.36320000  0.85970000  1.0 0.0860387492
H  H14  1  0.97420000  0.48550000  0.42530000  1.0 0.0779991294
H  H15  1  0.91730000  0.34500000  0.34770000  1.0 0.0983253251
H  H16  1  0.86460000  0.21470000  0.32570000  1.0 0.0983253251
H  H17  1  0.76760000  0.02880000  0.33000000  1.0 0.0422110168
H  H18  1  0.50580000  0.99270000  0.10110000  1.0 0.0860387492
H  H19  1  0.50090000  0.91960000  0.12550000  1.0 0.160394051
H  H20  1  0.48390000  0.99220000  0.17470000  1.0 0.108694205
H  H21  1  0.90230000  0.31290000  0.54660000  1.0 0.0690846687
H  H22  1  0.79490000  0.07580000  0.23650000  1.0 0.108694205
H  H23  1  0.69540000  0.00670000  0.18790000  1.0 0.0983253251
H  H24  1  0.72580000  0.10650000  0.22890000  1.0 0.0779991294
H  H25  1  0.03180000  0.55350000  0.57830000  1.0 0.0779991294
H  H26  1  0.00350000  0.46580000  0.64030000  1.0 0.0860387492
H  H27  1  0.52580000  0.95110000  0.51130000  1.0 0.0779991294
H  H28  1  0.58270000  0.93040000  0.42770000  1.0 0.0983253251
H  H29  1  0.63540000  0.96110000  0.35010000  1.0 0.0983253251
H  H30  1  0.73240000  0.06240000  0.26120000  1.0 0.0422110168
H  H31  1  0.99420000  0.09530000  0.48690000  1.0 0.0860387492
H  H32  1  0.99910000  0.12460000  0.41870000  1.0 0.160394051
H  H33  1  0.01610000  0.19080000  0.50830000  1.0 0.108694205
H  H34  1  0.59770000  0.14430000  0.41060000  1.0 0.0690846687
H  H35  1  0.70510000  0.94160000  0.28090000  1.0 0.108694205
H  H36  1  0.80460000  0.99250000  0.31130000  1.0 0.0983253251
H  H37  1  0.77420000  0.00310000  0.38070000  1.0 0.0779991294
H  H38  1  0.46820000  0.04650000  0.52170000  1.0 0.0779991294
H  H39  1  0.49650000  0.13680000  0.46230000  1.0 0.0860387492
H  H40  1  0.93980000  0.01450000  0.98870000  1.0 0.0779991294
H  H41  1  0.00270000  0.15500000  0.07230000  1.0 0.0983253251
H  H42  1  0.11100000  0.28530000  0.14990000  1.0 0.0983253251
H  H43  1  0.30120000  0.47120000  0.23880000  1.0 0.0422110168
H  H44  1  0.10840000  0.50730000  0.01310000  1.0 0.0860387492
H  H45  1  0.20590000  0.58040000  0.08130000  1.0 0.160394051
H  H46  1  0.18250000  0.50780000  0.99170000  1.0 0.108694205
H  H47  1  0.23370000  0.18710000  0.08940000  1.0 0.0690846687
H  H48  1  0.16070000  0.42420000  0.21910000  1.0 0.108694205
H  H49  1  0.18120000  0.49330000  0.18870000  1.0 0.0983253251
H  H50  1  0.12240000  0.39350000  0.11930000  1.0 0.0779991294
H  H51  1  0.02480000  0.94650000  0.97830000  1.0 0.0779991294
H  H52  1  0.17450000  0.03420000  0.03770000  1.0 0.0860387492
H  H53  1  0.07470000  0.56020000  0.54890000  1.0 0.0779991294
H  H54  1  0.15230000  0.49730000  0.56960000  1.0 0.0983253251
H  H55  1  0.17430000  0.38900000  0.53890000  1.0 0.0983253251
H  H56  1  0.17000000  0.19880000  0.43760000  1.0 0.0422110168
H  H57  1  0.39890000  0.39160000  0.40470000  1.0 0.0860387492
H  H58  1  0.37450000  0.29410000  0.37540000  1.0 0.160394051
H  H59  1  0.32530000  0.31750000  0.30920000  1.0 0.108694205
H  H60  1  0.95340000  0.26630000  0.35570000  1.0 0.0690846687
H  H61  1  0.26350000  0.33930000  0.55840000  1.0 0.108694205
H  H62  1  0.31210000  0.31880000  0.50750000  1.0 0.0983253251
H  H63  1  0.27110000  0.37760000  0.49690000  1.0 0.0779991294
H  H64  1  0.92170000  0.47520000  0.45350000  1.0 0.0779991294
H  H65  1  0.85970000  0.32550000  0.36320000  1.0 0.0860387492
H  H66  1  0.42530000  0.97420000  0.48550000  1.0 0.0779991294
H  H67  1  0.34770000  0.91730000  0.34500000  1.0 0.0983253251
H  H68  1  0.32570000  0.86460000  0.21470000  1.0 0.0983253251
H  H69  1  0.33000000  0.76760000  0.02880000  1.0 0.0422110168
H  H70  1  0.10110000  0.50580000  0.99270000  1.0 0.0860387492
H  H71  1  0.12550000  0.50090000  0.91960000  1.0 0.160394051
H  H72  1  0.17470000  0.48390000  0.99220000  1.0 0.108694205
H  H73  1  0.54660000  0.90230000  0.31290000  1.0 0.0690846687
H  H74  1  0.23650000  0.79490000  0.07580000  1.0 0.108694205
H  H75  1  0.18790000  0.69540000  0.00670000  1.0 0.0983253251
H  H76  1  0.22890000  0.72580000  0.10650000  1.0 0.0779991294
H  H77  1  0.57830000  0.03180000  0.55350000  1.0 0.0779991294
H  H78  1  0.64030000  0.00350000  0.46580000  1.0 0.0860387492
H  H79  1  0.51130000  0.52580000  0.95110000  1.0 0.0779991294
H  H80  1  0.42770000  0.58270000  0.93040000  1.0 0.0983253251
H  H81  1  0.35010000  0.63540000  0.96110000  1.0 0.0983253251
H  H82  1  0.26120000  0.73240000  0.06240000  1.0 0.0422110168
H  H83  1  0.48690000  0.99420000  0.09530000  1.0 0.0860387492
H  H84  1  0.41870000  0.99910000  0.12460000  1.0 0.160394051
H  H85  1  0.50830000  0.01610000  0.19080000  1.0 0.108694205
H  H86  1  0.41060000  0.59770000  0.14430000  1.0 0.0690846687
H  H87  1  0.28090000  0.70510000  0.94160000  1.0 0.108694205
H  H88  1  0.31130000  0.80460000  0.99250000  1.0 0.0983253251
H  H89  1  0.38070000  0.77420000  0.00310000  1.0 0.0779991294
H  H90  1  0.52170000  0.46820000  0.04650000  1.0 0.0779991294
H  H91  1  0.46230000  0.49650000  0.13680000  1.0 0.0860387492
H  H92  1  0.98870000  0.93980000  0.01450000  1.0 0.0779991294
H  H93  1  0.07230000  0.00270000  0.15500000  1.0 0.0983253251
H  H94  1  0.14990000  0.11100000  0.28530000  1.0 0.0983253251
H  H95  1  0.23880000  0.30120000  0.47120000  1.0 0.0422110168
H  H96  1  0.01310000  0.10840000  0.50730000  1.0 0.0860387492
H  H97  1  0.08130000  0.20590000  0.58040000  1.0 0.160394051
H  H98  1  0.99170000  0.18250000  0.50780000  1.0 0.108694205
H  H99  1  0.08940000  0.23370000  0.18710000  1.0 0.0690846687
H  H100  1  0.21910000  0.16070000  0.42420000  1.0 0.108694205
H  H101  1  0.18870000  0.18120000  0.49330000  1.0 0.0983253251
H  H102  1  0.11930000  0.12240000  0.39350000  1.0 0.0779991294
H  H103  1  0.97830000  0.02480000  0.94650000  1.0 0.0779991294
H  H104  1  0.03770000  0.17450000  0.03420000  1.0 0.0860387492
H  H105  1  0.54890000  0.07470000  0.56020000  1.0 0.0779991294
H  H106  1  0.56960000  0.15230000  0.49730000  1.0 0.0983253251
H  H107  1  0.53890000  0.17430000  0.38900000  1.0 0.0983253251
H  H108  1  0.43760000  0.17000000  0.19880000  1.0 0.0422110168
H  H109  1  0.40470000  0.39890000  0.39160000  1.0 0.0860387492
H  H110  1  0.37540000  0.37450000  0.29410000  1.0 0.160394051
H  H111  1  0.30920000  0.32530000  0.31750000  1.0 0.108694205
H  H112  1  0.35570000  0.95340000  0.26630000  1.0 0.0690846687
H  H113  1  0.55840000  0.26350000  0.33930000  1.0 0.108694205
H  H114  1  0.50750000  0.31210000  0.31880000  1.0 0.0983253251
H  H115  1  0.49690000  0.27110000  0.37760000  1.0 0.0779991294
H  H116  1  0.45350000  0.92170000  0.47520000  1.0 0.0779991294
H  H117  1  0.36320000  0.85970000  0.32550000  1.0 0.0860387492
H  H118  1  0.48550000  0.42530000  0.97420000  1.0 0.0779991294
H  H119  1  0.34500000  0.34770000  0.91730000  1.0 0.0983253251
H  H120  1  0.21470000  0.32570000  0.86460000  1.0 0.0983253251
H  H121  1  0.02880000  0.33000000  0.76760000  1.0 0.0422110168
H  H122  1  0.99270000  0.10110000  0.50580000  1.0 0.0860387492
H  H123  1  0.91960000  0.12550000  0.50090000  1.0 0.160394051
H  H124  1  0.99220000  0.17470000  0.48390000  1.0 0.108694205
H  H125  1  0.31290000  0.54660000  0.90230000  1.0 0.0690846687
H  H126  1  0.07580000  0.23650000  0.79490000  1.0 0.108694205
H  H127  1  0.00670000  0.18790000  0.69540000  1.0 0.0983253251
H  H128  1  0.10650000  0.22890000  0.72580000  1.0 0.0779991294
H  H129  1  0.55350000  0.57830000  0.03180000  1.0 0.0779991294
H  H130  1  0.46580000  0.64030000  0.00350000  1.0 0.0860387492
H  H131  1  0.95110000  0.51130000  0.52580000  1.0 0.0779991294
H  H132  1  0.93040000  0.42770000  0.58270000  1.0 0.0983253251
H  H133  1  0.96110000  0.35010000  0.63540000  1.0 0.0983253251
H  H134  1  0.06240000  0.26120000  0.73240000  1.0 0.0422110168
H  H135  1  0.09530000  0.48690000  0.99420000  1.0 0.0860387492
H  H136  1  0.12460000  0.41870000  0.99910000  1.0 0.160394051
H  H137  1  0.19080000  0.50830000  0.01610000  1.0 0.108694205
H  H138  1  0.14430000  0.41060000  0.59770000  1.0 0.0690846687
H  H139  1  0.94160000  0.28090000  0.70510000  1.0 0.108694205
H  H140  1  0.99250000  0.31130000  0.80460000  1.0 0.0983253251
H  H141  1  0.00310000  0.38070000  0.77420000  1.0 0.0779991294
H  H142  1  0.04650000  0.52170000  0.46820000  1.0 0.0779991294
H  H143  1  0.13680000  0.46230000  0.49650000  1.0 0.0860387492
H  H144  1  0.01450000  0.98870000  0.93980000  1.0 0.0779991294
H  H145  1  0.15500000  0.07230000  0.00270000  1.0 0.0983253251
H  H146  1  0.28530000  0.14990000  0.11100000  1.0 0.0983253251
H  H147  1  0.47120000  0.23880000  0.30120000  1.0 0.0422110168
H  H148  1  0.50730000  0.01310000  0.10840000  1.0 0.0860387492
H  H149  1  0.58040000  0.08130000  0.20590000  1.0 0.160394051
H  H150  1  0.50780000  0.99170000  0.18250000  1.0 0.108694205
H  H151  1  0.18710000  0.08940000  0.23370000  1.0 0.0690846687
H  H152  1  0.42420000  0.21910000  0.16070000  1.0 0.108694205
H  H153  1  0.49330000  0.18870000  0.18120000  1.0 0.0983253251
H  H154  1  0.39350000  0.11930000  0.12240000  1.0 0.0779991294
H  H155  1  0.94650000  0.97830000  0.02480000  1.0 0.0779991294
H  H156  1  0.03420000  0.03770000  0.17450000  1.0 0.0860387492
H  H157  1  0.02330000  0.45260000  0.09790000  1.0 0.1390451511
H  H158  1  0.74520000  0.22070000  0.88370000  1.0 0.1390451511
H  H159  1  0.78400000  0.35060000  0.89300000  1.0 0.1390451511
H  H160  1  0.97970000  0.31990000  0.08920000  1.0 0.1195579723
H  H161  1  0.77330000  0.12300000  0.92610000  1.0 0.1195579723
H  H162  1  0.78560000  0.03050000  0.96690000  1.0 0.2762375184
H  H163  1  0.84440000  0.88420000  0.09800000  1.0 0.1195579723
H  H164  1  0.95730000  0.13330000  0.29220000  1.0 0.108694205
H  H165  1  0.78350000  0.91710000  0.99920000  1.0 0.1537769022
H  H166  1  0.90310000  0.98220000  0.24850000  1.0 0.1316541019
H  H167  1  0.85470000  0.92540000  0.40210000  1.0 0.1390451511
H  H168  1  0.83700000  0.86150000  0.61630000  1.0 0.1390451511
H  H169  1  0.95760000  0.89100000  0.60700000  1.0 0.1390451511
H  H170  1  0.73070000  0.89050000  0.41080000  1.0 0.1195579723
H  H171  1  0.69690000  0.84720000  0.57390000  1.0 0.1195579723
H  H172  1  0.56360000  0.81870000  0.53310000  1.0 0.2762375184
H  H173  1  0.28620000  0.74640000  0.40200000  1.0 0.1195579723
H  H174  1  0.34110000  0.66510000  0.20780000  1.0 0.108694205
H  H175  1  0.41790000  0.78430000  0.50080000  1.0 0.1537769022
H  H176  1  0.23370000  0.65460000  0.25150000  1.0 0.1316541019
H  H177  1  0.64530000  0.04740000  0.07070000  1.0 0.1390451511
H  H178  1  0.66300000  0.27930000  0.02450000  1.0 0.1390451511
H  H179  1  0.54240000  0.14940000  0.93340000  1.0 0.1390451511
H  H180  1  0.76930000  0.18010000  0.15980000  1.0 0.1195579723
H  H181  1  0.80310000  0.37700000  0.15030000  1.0 0.1195579723
H  H182  1  0.93640000  0.46950000  0.25510000  1.0 0.2762375184
H  H183  1  0.21380000  0.61580000  0.46020000  1.0 0.1195579723
H  H184  1  0.15890000  0.36670000  0.32400000  1.0 0.108694205
H  H185  1  0.08210000  0.58290000  0.36640000  1.0 0.1537769022
H  H186  1  0.26630000  0.51780000  0.42090000  1.0 0.1316541019
H  H187  1  0.47670000  0.57460000  0.42930000  1.0 0.1390451511
H  H188  1  0.75480000  0.63850000  0.47550000  1.0 0.1390451511
H  H189  1  0.71600000  0.60900000  0.56660000  1.0 0.1390451511
H  H190  1  0.52030000  0.60950000  0.34020000  1.0 0.1195579723
H  H191  1  0.72670000  0.65280000  0.34970000  1.0 0.1195579723
H  H192  1  0.71440000  0.68130000  0.24490000  1.0 0.2762375184
H  H193  1  0.65560000  0.75360000  0.03980000  1.0 0.1195579723
H  H194  1  0.54270000  0.83490000  0.17600000  1.0 0.108694205
H  H195  1  0.71650000  0.71570000  0.13360000  1.0 0.1537769022
H  H196  1  0.59690000  0.84540000  0.07910000  1.0 0.1316541019
H  H197  1  0.09790000  0.02330000  0.45260000  1.0 0.1390451511
H  H198  1  0.88370000  0.74520000  0.22070000  1.0 0.1390451511
H  H199  1  0.89300000  0.78400000  0.35060000  1.0 0.1390451511
H  H200  1  0.08920000  0.97970000  0.31990000  1.0 0.1195579723
H  H201  1  0.92610000  0.77330000  0.12300000  1.0 0.1195579723
H  H202  1  0.96690000  0.78560000  0.03050000  1.0 0.2762375184
H  H203  1  0.09800000  0.84440000  0.88420000  1.0 0.1195579723
H  H204  1  0.29220000  0.95730000  0.13330000  1.0 0.108694205
H  H205  1  0.99920000  0.78350000  0.91710000  1.0 0.1537769022
H  H206  1  0.24850000  0.90310000  0.98220000  1.0 0.1316541019
H  H207  1  0.40210000  0.85470000  0.92540000  1.0 0.1390451511
H  H208  1  0.61630000  0.83700000  0.86150000  1.0 0.1390451511
H  H209  1  0.60700000  0.95760000  0.89100000  1.0 0.1390451511
H  H210  1  0.41080000  0.73070000  0.89050000  1.0 0.1195579723
H  H211  1  0.57390000  0.69690000  0.84720000  1.0 0.1195579723
H  H212  1  0.53310000  0.56360000  0.81870000  1.0 0.2762375184
H  H213  1  0.40200000  0.28620000  0.74640000  1.0 0.1195579723
H  H214  1  0.20780000  0.34110000  0.66510000  1.0 0.108694205
H  H215  1  0.50080000  0.41790000  0.78430000  1.0 0.1537769022
H  H216  1  0.25150000  0.23370000  0.65460000  1.0 0.1316541019
H  H217  1  0.07070000  0.64530000  0.04740000  1.0 0.1390451511
H  H218  1  0.02450000  0.66300000  0.27930000  1.0 0.1390451511
H  H219  1  0.93340000  0.54240000  0.14940000  1.0 0.1390451511
H  H220  1  0.15980000  0.76930000  0.18010000  1.0 0.1195579723
H  H221  1  0.15030000  0.80310000  0.37700000  1.0 0.1195579723
H  H222  1  0.25510000  0.93640000  0.46950000  1.0 0.2762375184
H  H223  1  0.46020000  0.21380000  0.61580000  1.0 0.1195579723
H  H224  1  0.32400000  0.15890000  0.36670000  1.0 0.108694205
H  H225  1  0.36640000  0.08210000  0.58290000  1.0 0.1537769022
H  H226  1  0.42090000  0.26630000  0.51780000  1.0 0.1316541019
H  H227  1  0.42930000  0.47670000  0.57460000  1.0 0.1390451511
H  H228  1  0.47550000  0.75480000  0.63850000  1.0 0.1390451511
H  H229  1  0.56660000  0.71600000  0.60900000  1.0 0.1390451511
H  H230  1  0.34020000  0.52030000  0.60950000  1.0 0.1195579723
H  H231  1  0.34970000  0.72670000  0.65280000  1.0 0.1195579723
H  H232  1  0.24490000  0.71440000  0.68130000  1.0 0.2762375184
H  H233  1  0.03980000  0.65560000  0.75360000  1.0 0.1195579723
H  H234  1  0.17600000  0.54270000  0.83490000  1.0 0.108694205
H  H235  1  0.13360000  0.71650000  0.71570000  1.0 0.1537769022
H  H236  1  0.07910000  0.59690000  0.84540000  1.0 0.1316541019
H  H237  1  0.45260000  0.09790000  0.02330000  1.0 0.1390451511
H  H238  1  0.22070000  0.88370000  0.74520000  1.0 0.1390451511
H  H239  1  0.35060000  0.89300000  0.78400000  1.0 0.1390451511
H  H240  1  0.31990000  0.08920000  0.97970000  1.0 0.1195579723
H  H241  1  0.12300000  0.92610000  0.77330000  1.0 0.1195579723
H  H242  1  0.03050000  0.96690000  0.78560000  1.0 0.2762375184
H  H243  1  0.88420000  0.09800000  0.84440000  1.0 0.1195579723
H  H244  1  0.13330000  0.29220000  0.95730000  1.0 0.108694205
H  H245  1  0.91710000  0.99920000  0.78350000  1.0 0.1537769022
H  H246  1  0.98220000  0.24850000  0.90310000  1.0 0.1316541019
H  H247  1  0.92540000  0.40210000  0.85470000  1.0 0.1390451511
H  H248  1  0.86150000  0.61630000  0.83700000  1.0 0.1390451511
H  H249  1  0.89100000  0.60700000  0.95760000  1.0 0.1390451511
H  H250  1  0.89050000  0.41080000  0.73070000  1.0 0.1195579723
H  H251  1  0.84720000  0.57390000  0.69690000  1.0 0.1195579723
H  H252  1  0.81870000  0.53310000  0.56360000  1.0 0.2762375184
H  H253  1  0.74640000  0.40200000  0.28620000  1.0 0.1195579723
H  H254  1  0.66510000  0.20780000  0.34110000  1.0 0.108694205
H  H255  1  0.78430000  0.50080000  0.41790000  1.0 0.1537769022
H  H256  1  0.65460000  0.25150000  0.23370000  1.0 0.1316541019
H  H257  1  0.04740000  0.07070000  0.64530000  1.0 0.1390451511
H  H258  1  0.27930000  0.02450000  0.66300000  1.0 0.1390451511
H  H259  1  0.14940000  0.93340000  0.54240000  1.0 0.1390451511
H  H260  1  0.18010000  0.15980000  0.76930000  1.0 0.1195579723
H  H261  1  0.37700000  0.15030000  0.80310000  1.0 0.1195579723
H  H262  1  0.46950000  0.25510000  0.93640000  1.0 0.2762375184
H  H263  1  0.61580000  0.46020000  0.21380000  1.0 0.1195579723
H  H264  1  0.36670000  0.32400000  0.15890000  1.0 0.108694205
H  H265  1  0.58290000  0.36640000  0.08210000  1.0 0.1537769022
H  H266  1  0.51780000  0.42090000  0.26630000  1.0 0.1316541019
H  H267  1  0.57460000  0.42930000  0.47670000  1.0 0.1390451511
H  H268  1  0.63850000  0.47550000  0.75480000  1.0 0.1390451511
H  H269  1  0.60900000  0.56660000  0.71600000  1.0 0.1390451511
H  H270  1  0.60950000  0.34020000  0.52030000  1.0 0.1195579723
H  H271  1  0.65280000  0.34970000  0.72670000  1.0 0.1195579723
H  H272  1  0.68130000  0.24490000  0.71440000  1.0 0.2762375184
H  H273  1  0.75360000  0.03980000  0.65560000  1.0 0.1195579723
H  H274  1  0.83490000  0.17600000  0.54270000  1.0 0.108694205
H  H275  1  0.71570000  0.13360000  0.71650000  1.0 0.1537769022
H  H276  1  0.84540000  0.07910000  0.59690000  1.0 0.1316541019
C  C1  1  0.50210000  0.50089000  0.04633000  1.0 -0.0199931737
C  C2  1  0.46460000  0.51553000  0.09797000  1.0 -0.1078994701
C  C3  1  0.37831000  0.45712000  0.06499000  1.0 0.0543551605
C  C4  1  0.35110000  0.47990000  0.12700000  1.0 0.0628459949
C  C5  1  0.24130000  0.35880000  0.19330000  1.0 0.1855547014
C  C6  1  0.33200000  0.36920000  0.35200000  1.0 -0.1183996839
C  C7  1  0.32597000  0.39802000  0.97669000  1.0 -0.1906762984
C  C8  1  0.32830000  0.50490000  0.26420000  1.0 -0.4161376325
C  C9  1  0.44835000  0.45021000  0.95692000  1.0 -0.0275678484
C  C10  1  0.36016000  0.39820000  0.92218000  1.0 -0.1078994701
C  C11  1  0.95456000  0.45577000  0.45367000  1.0 -0.0199931737
C  C12  1  0.91756000  0.36663000  0.40203000  1.0 -0.1078994701
C  C13  1  0.89213000  0.31332000  0.43501000  1.0 0.0543551605
C  C14  1  0.85290000  0.22410000  0.37300000  1.0 0.0628459949
C  C15  1  0.66550000  0.04800000  0.30670000  1.0 0.1855547014
C  C16  1  0.51720000  0.98000000  0.14800000  1.0 -0.1183996839
C  C17  1  0.92133000  0.34928000  0.52331000  1.0 -0.1906762984
C  C18  1  0.74070000  0.06410000  0.23580000  1.0 -0.4161376325
C  C19  1  0.99329000  0.49143000  0.54308000  1.0 -0.0275678484
C  C20  1  0.97602000  0.43798000  0.57782000  1.0 -0.1078994701
C  C21  1  0.54544000  0.99911000  0.50121000  1.0 -0.0199931737
C  C22  1  0.58244000  0.98447000  0.44907000  1.0 -0.1078994701
C  C23  1  0.60787000  0.04288000  0.42119000  1.0 0.0543551605
C  C24  1  0.64710000  0.02010000  0.37120000  1.0 0.0628459949
C  C25  1  0.83450000  0.14120000  0.38250000  1.0 0.1855547014
C  C26  1  0.98280000  0.13080000  0.46280000  1.0 -0.1183996839
C  C27  1  0.57867000  0.10198000  0.42795000  1.0 -0.1906762984
C  C28  1  0.75930000  0.99510000  0.32340000  1.0 -0.4161376325
C  C29  1  0.50671000  0.04979000  0.49814000  1.0 -0.0275678484
C  C30  1  0.52398000  0.10180000  0.46196000  1.0 -0.1078994701
C  C31  1  0.99790000  0.04423000  0.99879000  1.0 -0.0199931737
C  C32  1  0.03540000  0.13337000  0.05093000  1.0 -0.1078994701
C  C33  1  0.12169000  0.18668000  0.07881000  1.0 0.0543551605
C  C34  1  0.14890000  0.27590000  0.12880000  1.0 0.0628459949
C  C35  1  0.25870000  0.45200000  0.11750000  1.0 0.1855547014
C  C36  1  0.16800000  0.52000000  0.03720000  1.0 -0.1183996839
C  C37  1  0.17403000  0.15072000  0.07205000  1.0 -0.1906762984
C  C38  1  0.17170000  0.43590000  0.17660000  1.0 -0.4161376325
C  C39  1  0.05165000  0.00857000  0.00186000  1.0 -0.0275678484
C  C40  1  0.13984000  0.06202000  0.03804000  1.0 -0.1078994701
C  C41  1  0.04633000  0.50210000  0.50089000  1.0 -0.0199931737
C  C42  1  0.09797000  0.46460000  0.51553000  1.0 -0.1078994701
C  C43  1  0.06499000  0.37831000  0.45712000  1.0 0.0543551605
C  C44  1  0.12700000  0.35110000  0.47990000  1.0 0.0628459949
C  C45  1  0.19330000  0.24130000  0.35880000  1.0 0.1848245296
C  C46  1  0.35200000  0.33200000  0.36920000  1.0 -0.1183996839
C  C47  1  0.97669000  0.32597000  0.39802000  1.0 -0.1906762984
C  C48  1  0.26420000  0.32830000  0.50490000  1.0 -0.4161376325
C  C49  1  0.95692000  0.44835000  0.45021000  1.0 -0.0275678484
C  C50  1  0.92218000  0.36016000  0.39820000  1.0 -0.1078994701
C  C51  1  0.45367000  0.95456000  0.45577000  1.0 -0.0199931737
C  C52  1  0.40203000  0.91756000  0.36663000  1.0 -0.1078994701
C  C53  1  0.43501000  0.89213000  0.31332000  1.0 0.0543551605
C  C54  1  0.37300000  0.85290000  0.22410000  1.0 0.0628459949
C  C55  1  0.30670000  0.66550000  0.04800000  1.0 0.1848245296
C  C56  1  0.14800000  0.51720000  0.98000000  1.0 -0.1183996839
C  C57  1  0.52331000  0.92133000  0.34928000  1.0 -0.1906762984
C  C58  1  0.23580000  0.74070000  0.06410000  1.0 -0.4161376325
C  C59  1  0.54308000  0.99329000  0.49143000  1.0 -0.0275678484
C  C60  1  0.57782000  0.97602000  0.43798000  1.0 -0.1078994701
C  C61  1  0.50121000  0.54544000  0.99911000  1.0 -0.0199931737
C  C62  1  0.44907000  0.58244000  0.98447000  1.0 -0.1078994701
C  C63  1  0.42119000  0.60787000  0.04288000  1.0 0.0543551605
C  C64  1  0.37120000  0.64710000  0.02010000  1.0 0.0628459949
C  C65  1  0.38250000  0.83450000  0.14120000  1.0 0.1855547014
C  C66  1  0.46280000  0.98280000  0.13080000  1.0 -0.1183996839
C  C67  1  0.42795000  0.57867000  0.10198000  1.0 -0.1906762984
C  C68  1  0.32340000  0.75930000  0.99510000  1.0 -0.4161376325
C  C69  1  0.49814000  0.50671000  0.04979000  1.0 -0.0275678484
C  C70  1  0.46196000  0.52398000  0.10180000  1.0 -0.1078994701
C  C71  1  0.99879000  0.99790000  0.04423000  1.0 -0.0199931737
C  C72  1  0.05093000  0.03540000  0.13337000  1.0 -0.1078994701
C  C73  1  0.07881000  0.12169000  0.18668000  1.0 0.0543551605
C  C74  1  0.12880000  0.14890000  0.27590000  1.0 0.0628459949
C  C75  1  0.11750000  0.25870000  0.45200000  1.0 0.1855547014
C  C76  1  0.03720000  0.16800000  0.52000000  1.0 -0.1183996839
C  C77  1  0.07205000  0.17403000  0.15072000  1.0 -0.1906762984
C  C78  1  0.17660000  0.17170000  0.43590000  1.0 -0.4161376325
C  C79  1  0.00186000  0.05165000  0.00857000  1.0 -0.0275678484
C  C80  1  0.03804000  0.13984000  0.06202000  1.0 -0.1078994701
C  C81  1  0.50089000  0.04633000  0.50210000  1.0 -0.0199931737
C  C82  1  0.51553000  0.09797000  0.46460000  1.0 -0.1078994701
C  C83  1  0.45712000  0.06499000  0.37831000  1.0 0.0543551605
C  C84  1  0.47990000  0.12700000  0.35110000  1.0 0.0628459949
C  C85  1  0.35880000  0.19330000  0.24130000  1.0 0.1855547014
C  C86  1  0.36920000  0.35200000  0.33200000  1.0 -0.1183996839
C  C87  1  0.39802000  0.97669000  0.32597000  1.0 -0.1906762984
C  C88  1  0.50490000  0.26420000  0.32830000  1.0 -0.4161376325
C  C89  1  0.45021000  0.95692000  0.44835000  1.0 -0.0275678484
C  C90  1  0.39820000  0.92218000  0.36016000  1.0 -0.1078994701
C  C91  1  0.45577000  0.45367000  0.95456000  1.0 -0.0199931737
C  C92  1  0.36663000  0.40203000  0.91756000  1.0 -0.1078994701
C  C93  1  0.31332000  0.43501000  0.89213000  1.0 0.0543551605
C  C94  1  0.22410000  0.37300000  0.85290000  1.0 0.0628459949
C  C95  1  0.04800000  0.30670000  0.66550000  1.0 0.1855547014
C  C96  1  0.98000000  0.14800000  0.51720000  1.0 -0.1183996839
C  C97  1  0.34928000  0.52331000  0.92133000  1.0 -0.1906762984
C  C98  1  0.06410000  0.23580000  0.74070000  1.0 -0.4161376325
C  C99  1  0.49143000  0.54308000  0.99329000  1.0 -0.0275678484
C  C100  1  0.43798000  0.57782000  0.97602000  1.0 -0.1078994701
C  C101  1  0.99911000  0.50121000  0.54544000  1.0 -0.0199931737
C  C102  1  0.98447000  0.44907000  0.58244000  1.0 -0.1078994701
C  C103  1  0.04288000  0.42119000  0.60787000  1.0 0.0543551605
C  C104  1  0.02010000  0.37120000  0.64710000  1.0 0.0628459949
C  C105  1  0.14120000  0.38250000  0.83450000  1.0 0.1848245296
C  C106  1  0.13080000  0.46280000  0.98280000  1.0 -0.1183996839
C  C107  1  0.10198000  0.42795000  0.57867000  1.0 -0.1906762984
C  C108  1  0.99510000  0.32340000  0.75930000  1.0 -0.4161376325
C  C109  1  0.04979000  0.49814000  0.50671000  1.0 -0.0275678484
C  C110  1  0.10180000  0.46196000  0.52398000  1.0 -0.1078994701
C  C111  1  0.04423000  0.99879000  0.99790000  1.0 -0.0199931737
C  C112  1  0.13337000  0.05093000  0.03540000  1.0 -0.1078994701
C  C113  1  0.18668000  0.07881000  0.12169000  1.0 0.0543551605
C  C114  1  0.27590000  0.12880000  0.14890000  1.0 0.0628459949
C  C115  1  0.45200000  0.11750000  0.25870000  1.0 0.1855547014
C  C116  1  0.52000000  0.03720000  0.16800000  1.0 -0.1183996839
C  C117  1  0.15072000  0.07205000  0.17403000  1.0 -0.1906762984
C  C118  1  0.43590000  0.17660000  0.17170000  1.0 -0.4161376325
C  C119  1  0.00857000  0.00186000  0.05165000  1.0 -0.0275678484
C  C120  1  0.06202000  0.03804000  0.13984000  1.0 -0.1078994701
C  C121  1  0.25000000  0.43200000  0.18200000  1.0 0.0422110168
C  C122  1  0.75000000  0.06800000  0.31800000  1.0 0.0422110168
C  C123  1  0.18200000  0.25000000  0.43200000  1.0 0.0422110168
C  C124  1  0.31800000  0.75000000  0.06800000  1.0 0.0422110168
C  C125  1  0.43200000  0.18200000  0.25000000  1.0 0.0422110168
C  C126  1  0.06800000  0.31800000  0.75000000  1.0 0.0422110168
C  C127  1  0.96684000  0.40570000  0.05454000  1.0 -0.2233844702
C  C128  1  0.80090000  0.26800000  0.92830000  1.0 -0.0883336209
C  C129  1  0.91020000  0.41650000  0.99510000  1.0 0.1848245296
C  C130  1  0.82440000  0.34380000  0.93220000  1.0 -0.1496561994
C  C131  1  0.93980000  0.32670000  0.04950000  1.0 -0.1357494759
C  C132  1  0.82310000  0.17010000  0.97880000  1.0 -0.0354060647
C  C133  1  0.85590000  0.25470000  0.98840000  1.0 0.0779991294
C  C134  1  0.85150000  0.05140000  0.08330000  1.0 0.2933130595
C  C135  1  0.85180000  0.94060000  0.11600000  1.0 -0.0883336209
C  C136  1  0.92370000  0.09000000  0.23290000  1.0 -0.0834219317
C  C137  1  0.82300000  0.96090000  0.05790000  1.0 -0.2317377669
C  C138  1  0.89460000  0.00090000  0.20730000  1.0 -0.2517646569
C  C139  1  0.85116000  0.91230000  0.44546000  1.0 -0.2233844702
C  C140  1  0.83970000  0.87260000  0.57170000  1.0 -0.0883336209
C  C141  1  0.92140000  0.91510000  0.50490000  1.0 0.1855547014
C  C142  1  0.91160000  0.89220000  0.56780000  1.0 -0.1496561994
C  C143  1  0.77720000  0.89030000  0.45050000  1.0 -0.1357494759
C  C144  1  0.69130000  0.84430000  0.52120000  1.0 -0.0354060647
C  C145  1  0.76630000  0.86750000  0.51160000  1.0 0.0779991294
C  C146  1  0.46810000  0.76820000  0.41670000  1.0 0.2933130595
C  C147  1  0.32460000  0.73580000  0.38400000  1.0 -0.0883336209
C  C148  1  0.35710000  0.69080000  0.26710000  1.0 -0.0834219317
C  C149  1  0.40300000  0.76510000  0.44210000  1.0 -0.2317377669
C  C150  1  0.29360000  0.68730000  0.29270000  1.0 -0.2517646569
C  C151  1  0.64884000  0.09430000  0.06114000  1.0 -0.2233844702
C  C152  1  0.66030000  0.23200000  0.03290000  1.0 -0.0883336209
C  C153  1  0.57860000  0.08350000  0.99370000  1.0 0.1848245296
C  C154  1  0.58840000  0.15620000  0.98060000  1.0 -0.1496561994
C  C155  1  0.72280000  0.17330000  0.11310000  1.0 -0.1357494759
C  C156  1  0.80870000  0.32990000  0.15300000  1.0 -0.0354060647
C  C157  1  0.73370000  0.24530000  0.10120000  1.0 0.0779991294
C  C158  1  0.03190000  0.44860000  0.30010000  1.0 0.2933130595
C  C159  1  0.17540000  0.55940000  0.41120000  1.0 -0.0883336209
C  C160  1  0.14290000  0.41000000  0.33370000  1.0 -0.0834219317
C  C161  1  0.09700000  0.53910000  0.36210000  1.0 -0.2317377669
C  C162  1  0.20640000  0.49910000  0.39370000  1.0 -0.2517646569
C  C163  1  0.53316000  0.58770000  0.43886000  1.0 -0.2233844702
C  C164  1  0.69910000  0.62740000  0.46710000  1.0 -0.0883336209
C  C165  1  0.58980000  0.58490000  0.50630000  1.0 0.1848245296
C  C166  1  0.67560000  0.60780000  0.51940000  1.0 -0.1496561994
C  C167  1  0.56020000  0.60970000  0.38690000  1.0 -0.1357494759
C  C168  1  0.67690000  0.65570000  0.34700000  1.0 -0.0354060647
C  C169  1  0.64410000  0.63250000  0.39880000  1.0 0.0779991294
C  C170  1  0.64850000  0.73180000  0.19990000  1.0 0.2933130595
C  C171  1  0.64820000  0.76420000  0.08880000  1.0 -0.0883336209
C  C172  1  0.57630000  0.80920000  0.16630000  1.0 -0.0834219317
C  C173  1  0.67700000  0.73490000  0.13790000  1.0 -0.2317377669
C  C174  1  0.60540000  0.81270000  0.10630000  1.0 -0.2517646569
C  C175  1  0.05454000  0.96684000  0.40570000  1.0 -0.2233844702
C  C176  1  0.92830000  0.80090000  0.26800000  1.0 -0.0883336209
C  C177  1  0.99510000  0.91020000  0.41650000  1.0 0.1848245296
C  C178  1  0.93220000  0.82440000  0.34380000  1.0 -0.1496561994
C  C179  1  0.04950000  0.93980000  0.32670000  1.0 -0.1357494759
C  C180  1  0.97880000  0.82310000  0.17010000  1.0 -0.0354060647
C  C181  1  0.98840000  0.85590000  0.25470000  1.0 0.0779991294
C  C182  1  0.08330000  0.85150000  0.05140000  1.0 0.2933130595
C  C183  1  0.11600000  0.85180000  0.94060000  1.0 -0.0883336209
C  C184  1  0.23290000  0.92370000  0.09000000  1.0 -0.0834219317
C  C185  1  0.05790000  0.82300000  0.96090000  1.0 -0.2317377669
C  C186  1  0.20730000  0.89460000  0.00090000  1.0 -0.2517646569
C  C187  1  0.44546000  0.85116000  0.91230000  1.0 -0.2233844702
C  C188  1  0.57170000  0.83970000  0.87260000  1.0 -0.0883336209
C  C189  1  0.50490000  0.92140000  0.91510000  1.0 0.1848245296
C  C190  1  0.56780000  0.91160000  0.89220000  1.0 -0.1496561994
C  C191  1  0.45050000  0.77720000  0.89030000  1.0 -0.1357494759
C  C192  1  0.52120000  0.69130000  0.84430000  1.0 -0.0354060647
C  C193  1  0.51160000  0.76630000  0.86750000  1.0 0.0779991294
C  C194  1  0.41670000  0.46810000  0.76820000  1.0 0.2933130595
C  C195  1  0.38400000  0.32460000  0.73580000  1.0 -0.0883336209
C  C196  1  0.26710000  0.35710000  0.69080000  1.0 -0.0834219317
C  C197  1  0.44210000  0.40300000  0.76510000  1.0 -0.2317377669
C  C198  1  0.29270000  0.29360000  0.68730000  1.0 -0.2517646569
C  C199  1  0.06114000  0.64884000  0.09430000  1.0 -0.2233844702
C  C200  1  0.03290000  0.66030000  0.23200000  1.0 -0.0883336209
C  C201  1  0.99370000  0.57860000  0.08350000  1.0 0.1848245296
C  C202  1  0.98060000  0.58840000  0.15620000  1.0 -0.1496561994
C  C203  1  0.11310000  0.72280000  0.17330000  1.0 -0.1357494759
C  C204  1  0.15300000  0.80870000  0.32990000  1.0 -0.0354060647
C  C205  1  0.10120000  0.73370000  0.24530000  1.0 0.0779991294
C  C206  1  0.30010000  0.03190000  0.44860000  1.0 0.2933130595
C  C207  1  0.41120000  0.17540000  0.55940000  1.0 -0.0883336209
C  C208  1  0.33370000  0.14290000  0.41000000  1.0 -0.0834219317
C  C209  1  0.36210000  0.09700000  0.53910000  1.0 -0.2317377669
C  C210  1  0.39370000  0.20640000  0.49910000  1.0 -0.2517646569
C  C211  1  0.43886000  0.53316000  0.58770000  1.0 -0.2233844702
C  C212  1  0.46710000  0.69910000  0.62740000  1.0 -0.0883336209
C  C213  1  0.50630000  0.58980000  0.58490000  1.0 0.1848245296
C  C214  1  0.51940000  0.67560000  0.60780000  1.0 -0.1496561994
C  C215  1  0.38690000  0.56020000  0.60970000  1.0 -0.1357494759
C  C216  1  0.34700000  0.67690000  0.65570000  1.0 -0.0354060647
C  C217  1  0.39880000  0.64410000  0.63250000  1.0 0.0779991294
C  C218  1  0.19990000  0.64850000  0.73180000  1.0 0.2933130595
C  C219  1  0.08880000  0.64820000  0.76420000  1.0 -0.0883336209
C  C220  1  0.16630000  0.57630000  0.80920000  1.0 -0.0834219317
C  C221  1  0.13790000  0.67700000  0.73490000  1.0 -0.2317377669
C  C222  1  0.10630000  0.60540000  0.81270000  1.0 -0.2517646569
C  C223  1  0.40570000  0.05454000  0.96684000  1.0 -0.2233844702
C  C224  1  0.26800000  0.92830000  0.80090000  1.0 -0.0883336209
C  C225  1  0.41650000  0.99510000  0.91020000  1.0 0.1855547014
C  C226  1  0.34380000  0.93220000  0.82440000  1.0 -0.1496561994
C  C227  1  0.32670000  0.04950000  0.93980000  1.0 -0.1357494759
C  C228  1  0.17010000  0.97880000  0.82310000  1.0 -0.0354060647
C  C229  1  0.25470000  0.98840000  0.85590000  1.0 0.0779991294
C  C230  1  0.05140000  0.08330000  0.85150000  1.0 0.2933130595
C  C231  1  0.94060000  0.11600000  0.85180000  1.0 -0.0883336209
C  C232  1  0.09000000  0.23290000  0.92370000  1.0 -0.0834219317
C  C233  1  0.96090000  0.05790000  0.82300000  1.0 -0.2317377669
C  C234  1  0.00090000  0.20730000  0.89460000  1.0 -0.2517646569
C  C235  1  0.91230000  0.44546000  0.85116000  1.0 -0.2233844702
C  C236  1  0.87260000  0.57170000  0.83970000  1.0 -0.0883336209
C  C237  1  0.91510000  0.50490000  0.92140000  1.0 0.1848245296
C  C238  1  0.89220000  0.56780000  0.91160000  1.0 -0.1496561994
C  C239  1  0.89030000  0.45050000  0.77720000  1.0 -0.1357494759
C  C240  1  0.84430000  0.52120000  0.69130000  1.0 -0.0354060647
C  C241  1  0.86750000  0.51160000  0.76630000  1.0 0.0779991294
C  C242  1  0.76820000  0.41670000  0.46810000  1.0 0.2933130595
C  C243  1  0.73580000  0.38400000  0.32460000  1.0 -0.0883336209
C  C244  1  0.69080000  0.26710000  0.35710000  1.0 -0.0834219317
C  C245  1  0.76510000  0.44210000  0.40300000  1.0 -0.2317377669
C  C246  1  0.68730000  0.29270000  0.29360000  1.0 -0.2517646569
C  C247  1  0.09430000  0.06114000  0.64884000  1.0 -0.2233844702
C  C248  1  0.23200000  0.03290000  0.66030000  1.0 -0.0883336209
C  C249  1  0.08350000  0.99370000  0.57860000  1.0 0.1855547014
C  C250  1  0.15620000  0.98060000  0.58840000  1.0 -0.1496561994
C  C251  1  0.17330000  0.11310000  0.72280000  1.0 -0.1357494759
C  C252  1  0.32990000  0.15300000  0.80870000  1.0 -0.0354060647
C  C253  1  0.24530000  0.10120000  0.73370000  1.0 0.0779991294
C  C254  1  0.44860000  0.30010000  0.03190000  1.0 0.2933130595
C  C255  1  0.55940000  0.41120000  0.17540000  1.0 -0.0883336209
C  C256  1  0.41000000  0.33370000  0.14290000  1.0 -0.0834219317
C  C257  1  0.53910000  0.36210000  0.09700000  1.0 -0.2317377669
C  C258  1  0.49910000  0.39370000  0.20640000  1.0 -0.2517646569
C  C259  1  0.58770000  0.43886000  0.53316000  1.0 -0.2233844702
C  C260  1  0.62740000  0.46710000  0.69910000  1.0 -0.0883336209
C  C261  1  0.58490000  0.50630000  0.58980000  1.0 0.1848245296
C  C262  1  0.60780000  0.51940000  0.67560000  1.0 -0.1496561994
C  C263  1  0.60970000  0.38690000  0.56020000  1.0 -0.1357494759
C  C264  1  0.65570000  0.34700000  0.67690000  1.0 -0.0354060647
C  C265  1  0.63250000  0.39880000  0.64410000  1.0 0.0779991294
C  C266  1  0.73180000  0.19990000  0.64850000  1.0 0.2933130595
C  C267  1  0.76420000  0.08880000  0.64820000  1.0 -0.0883336209
C  C268  1  0.80920000  0.16630000  0.57630000  1.0 -0.0834219317
C  C269  1  0.73490000  0.13790000  0.67700000  1.0 -0.2317377669
C  C270  1  0.81270000  0.10630000  0.60540000  1.0 -0.2517646569
N  N1  1  0.27400000  0.42800000  0.11700000  1.0 -0.0199931737
N  N2  1  0.81100000  0.15700000  0.38300000  1.0 -0.0143392417
N  N3  1  0.68900000  0.07200000  0.34600000  1.0 -0.0143392417
N  N4  1  0.22600000  0.34300000  0.15400000  1.0 -0.0199931737
N  N5  1  0.11700000  0.27400000  0.42800000  1.0 -0.0143392417
N  N6  1  0.38300000  0.81100000  0.15700000  1.0 -0.0199931737
N  N7  1  0.34600000  0.68900000  0.07200000  1.0 -0.0199931737
N  N8  1  0.15400000  0.22600000  0.34300000  1.0 -0.0143392417
N  N9  1  0.42800000  0.11700000  0.27400000  1.0 -0.0143392417
N  N10  1  0.15700000  0.38300000  0.81100000  1.0 -0.0143392417
N  N11  1  0.07200000  0.34600000  0.68900000  1.0 -0.0143392417
N  N12  1  0.34300000  0.15400000  0.22600000  1.0 -0.0143392417
N  N13  1  0.85907000  0.15625000  0.03918000  1.0 -0.160414079
N  N14  1  0.82490000  0.07190000  0.02020000  1.0 -0.2771156398
N  N15  1  0.90070000  0.11220000  0.16650000  1.0 -0.3450877932
N  N16  1  0.61707000  0.81989000  0.46082000  1.0 -0.160414079
N  N17  1  0.55170000  0.80470000  0.47980000  1.0 -0.2771156398
N  N18  1  0.44570000  0.73420000  0.33350000  1.0 -0.3450877932
N  N19  1  0.88293000  0.34375000  0.20282000  1.0 -0.160414079
N  N20  1  0.94830000  0.42810000  0.25300000  1.0 -0.2771156398
N  N21  1  0.05430000  0.38780000  0.28850000  1.0 -0.3446941343
N  N22  1  0.64093000  0.68011000  0.29718000  1.0 -0.160414079
N  N23  1  0.67510000  0.69530000  0.24700000  1.0 -0.2771156398
N  N24  1  0.59930000  0.76580000  0.21150000  1.0 -0.3450877932
N  N25  1  0.03918000  0.85907000  0.15625000  1.0 -0.160414079
N  N26  1  0.02020000  0.82490000  0.07190000  1.0 -0.2771156398
N  N27  1  0.16650000  0.90070000  0.11220000  1.0 -0.3450877932
N  N28  1  0.46082000  0.61707000  0.81989000  1.0 -0.160414079
N  N29  1  0.47980000  0.55170000  0.80470000  1.0 -0.2771156398
N  N30  1  0.33350000  0.44570000  0.73420000  1.0 -0.3450877932
N  N31  1  0.20282000  0.88293000  0.34375000  1.0 -0.160414079
N  N32  1  0.25300000  0.94830000  0.42810000  1.0 -0.2771156398
N  N33  1  0.28850000  0.05430000  0.38780000  1.0 -0.3450877932
N  N34  1  0.29718000  0.64093000  0.68011000  1.0 -0.160414079
N  N35  1  0.24700000  0.67510000  0.69530000  1.0 -0.2771156398
N  N36  1  0.21150000  0.59930000  0.76580000  1.0 -0.3450877932
N  N37  1  0.15625000  0.03918000  0.85907000  1.0 -0.160414079
N  N38  1  0.07190000  0.02020000  0.82490000  1.0 -0.2771156398
N  N39  1  0.11220000  0.16650000  0.90070000  1.0 -0.3450877932
N  N40  1  0.81989000  0.46082000  0.61707000  1.0 -0.160414079
N  N41  1  0.80470000  0.47980000  0.55170000  1.0 -0.2771156398
N  N42  1  0.73420000  0.33350000  0.44570000  1.0 -0.3450877932
N  N43  1  0.34375000  0.20282000  0.88293000  1.0 -0.160414079
N  N44  1  0.42810000  0.25300000  0.94830000  1.0 -0.2771156398
N  N45  1  0.38780000  0.28850000  0.05430000  1.0 -0.3450877932
N  N46  1  0.68011000  0.29718000  0.64093000  1.0 -0.160414079
N  N47  1  0.69530000  0.24700000  0.67510000  1.0 -0.2771156398
N  N48  1  0.76580000  0.21150000  0.59930000  1.0 -0.3450877932
N  N49  1  0.93720000  0.50000000  0.00000000  1.0 -0.257604402
N  N50  1  0.00000000  0.93720000  0.50000000  1.0 -0.257604402
N  N51  1  0.50000000  0.00000000  0.93720000  1.0 -0.257604402
N  N52  1  0.56280000  0.56280000  0.56280000  1.0 -0.257604402
Cl  Cl1  1  0.80595000  0.55595000  0.25000000  1.0 1.2368748618
Cl  Cl2  1  0.69405000  0.94405000  0.75000000  1.0 1.2368748618
Cl  Cl3  1  0.55595000  0.25000000  0.80595000  1.0 1.2368748618
Cl  Cl4  1  0.94405000  0.75000000  0.69405000  1.0 1.2368748618
Cl  Cl5  1  0.25000000  0.80595000  0.55595000  1.0 1.2368748618
Cl  Cl6  1  0.75000000  0.69405000  0.94405000  1.0 1.2368748618
O  O1  1  0.31270000  0.38230000  0.27460000  1.0 -0.2038966683
O  O2  1  0.17520000  0.28290000  0.12130000  1.0 -0.0630385918
O  O3  1  0.60770000  0.03810000  0.22540000  1.0 -0.2038966683
O  O4  1  0.66160000  0.05390000  0.37870000  1.0 -0.0630385918
O  O5  1  0.89230000  0.11770000  0.43040000  1.0 -0.2038966683
O  O6  1  0.83840000  0.21710000  0.39230000  1.0 -0.0630385918
O  O7  1  0.18730000  0.46190000  0.06960000  1.0 -0.2038966683
O  O8  1  0.32480000  0.44610000  0.10770000  1.0 -0.0630385918
O  O9  1  0.27460000  0.31270000  0.38230000  1.0 -0.2038966683
O  O10  1  0.12130000  0.17520000  0.28290000  1.0 -0.0630385918
O  O11  1  0.22540000  0.60770000  0.03810000  1.0 -0.2038966683
O  O12  1  0.37870000  0.66160000  0.05390000  1.0 -0.0630385918
O  O13  1  0.43040000  0.89230000  0.11770000  1.0 -0.2038966683
O  O14  1  0.39230000  0.83840000  0.21710000  1.0 -0.0630385918
O  O15  1  0.06960000  0.18730000  0.46190000  1.0 -0.2038966683
O  O16  1  0.10770000  0.32480000  0.44610000  1.0 -0.0630385918
O  O17  1  0.38230000  0.27460000  0.31270000  1.0 -0.2038966683
O  O18  1  0.28290000  0.12130000  0.17520000  1.0 -0.0630385918
O  O19  1  0.03810000  0.22540000  0.60770000  1.0 -0.2038966683
O  O20  1  0.05390000  0.37870000  0.66160000  1.0 -0.0630385918
O  O21  1  0.11770000  0.43040000  0.89230000  1.0 -0.2038966683
O  O22  1  0.21710000  0.39230000  0.83840000  1.0 -0.0630385918
O  O23  1  0.46190000  0.06960000  0.18730000  1.0 -0.2038966683
O  O24  1  0.44610000  0.10770000  0.32480000  1.0 -0.0630385918
O  O25  1  0.80150000  0.57240000  0.32590000  1.0 -0.4507949568
O  O26  1  0.79320000  0.61660000  0.23000000  1.0 -0.4507949568
O  O27  1  0.74650000  0.47560000  0.17410000  1.0 -0.4507949568
O  O28  1  0.88660000  0.56320000  0.27000000  1.0 -0.4507949568
O  O29  1  0.75350000  0.92760000  0.72910000  1.0 -0.4507949568
O  O30  1  0.61340000  0.88340000  0.67660000  1.0 -0.4507949568
O  O31  1  0.69850000  0.02440000  0.77090000  1.0 -0.4507949568
O  O32  1  0.70680000  0.93680000  0.82340000  1.0 -0.4507949568
O  O33  1  0.57240000  0.32590000  0.80150000  1.0 -0.4507949568
O  O34  1  0.61660000  0.23000000  0.79320000  1.0 -0.4507949568
O  O35  1  0.47560000  0.17410000  0.74650000  1.0 -0.4507949568
O  O36  1  0.56320000  0.27000000  0.88660000  1.0 -0.4507949568
O  O37  1  0.92760000  0.72910000  0.75350000  1.0 -0.4507949568
O  O38  1  0.88340000  0.67660000  0.61340000  1.0 -0.4507949568
O  O39  1  0.02440000  0.77090000  0.69850000  1.0 -0.4507949568
O  O40  1  0.93680000  0.82340000  0.70680000  1.0 -0.4507949568
O  O41  1  0.32590000  0.80150000  0.57240000  1.0 -0.4507949568
O  O42  1  0.23000000  0.79320000  0.61660000  1.0 -0.4507949568
O  O43  1  0.17410000  0.74650000  0.47560000  1.0 -0.4507949568
O  O44  1  0.27000000  0.88660000  0.56320000  1.0 -0.4507949568
O  O45  1  0.72910000  0.75350000  0.92760000  1.0 -0.4507949568
O  O46  1  0.67660000  0.61340000  0.88340000  1.0 -0.4507949568
O  O47  1  0.77090000  0.69850000  0.02440000  1.0 -0.4507949568
O  O48  1  0.82340000  0.70680000  0.93680000  1.0 -0.4507949568
