# DDEC6 charges by PACMAN v1.1 (https://github.com/mtap-research/PACMAN-charge/)
data_KENYAG_ion_pacman
_symmetry_space_group_name_H-M   'P 1'
_cell_length_a   18.66250000
_cell_length_b   18.66250000
_cell_length_c   18.66250000
_cell_angle_alpha   109.47100000
_cell_angle_beta   109.47100000
_cell_angle_gamma   109.47100000
_symmetry_Int_Tables_number   1
_chemical_formula_structural   Ag3H138C135N26(ClO8)3
_chemical_formula_sum   'Ag6 H276 C270 N52 Cl6 O48'
_cell_volume   5003.69833688
_cell_formula_units_Z   2
loop_
 _symmetry_equiv_pos_site_id
 _symmetry_equiv_pos_as_xyz
  1  'x, y, z'
loop_
 _atom_site_type_symbol
 _atom_site_label
 _atom_site_symmetry_multiplicity
 _atom_site_fract_x
 _atom_site_fract_y
 _atom_site_fract_z
 _atom_site_occupancy
 _atom_site_charge
Ag  Ag1  1  0.04830000  0.75000000  0.79830000  1.0 0.3847091984
Ag  Ag2  1  0.45170000  0.25000000  0.70170000  1.0 0.3851207386
Ag  Ag3  1  0.79830000  0.04830000  0.75000000  1.0 0.3847091984
Ag  Ag4  1  0.70170000  0.45170000  0.25000000  1.0 0.3851207386
Ag  Ag5  1  0.75000000  0.79830000  0.04830000  1.0 0.3851207386
Ag  Ag6  1  0.25000000  0.70170000  0.45170000  1.0 0.3851207386
H  H1  1  0.44180000  0.44390000  0.92430000  1.0 0.0805636385
H  H2  1  0.50080000  0.41880000  0.84340000  1.0 0.0931356888
H  H3  1  0.60960000  0.45260000  0.81640000  1.0 0.0805636385
H  H4  1  0.71050000  0.50740000  0.75310000  1.0 0.0459044495
H  H5  1  0.86630000  0.57460000  0.81750000  1.0 0.0558527308
H  H6  1  0.82050000  0.51910000  0.85180000  1.0 0.1594486569
H  H7  1  0.87580000  0.62110000  0.90950000  1.0 0.129588277
H  H8  1  0.61590000  0.62010000  0.63220000  1.0 0.0805636385
H  H9  1  0.71330000  0.64940000  0.65650000  1.0 0.0805636385
H  H10  1  0.68990000  0.71560000  0.70590000  1.0 0.0651721995
H  H11  1  0.73410000  0.63710000  0.03560000  1.0 0.0805636385
H  H12  1  0.68410000  0.64240000  0.13250000  1.0 0.0805636385
H  H13  1  0.53740000  0.54480000  0.08220000  1.0 0.0805636385
H  H14  1  0.01960000  0.51750000  0.57570000  1.0 0.0805636385
H  H15  1  0.07540000  0.65740000  0.65660000  1.0 0.0931356888
H  H16  1  0.13620000  0.79320000  0.68360000  1.0 0.0805636385
H  H17  1  0.25430000  0.95740000  0.74690000  1.0 0.0459044495
H  H18  1  0.25710000  0.04880000  0.68250000  1.0 0.0558527308
H  H19  1  0.16730000  0.96870000  0.64820000  1.0 0.1594486569
H  H20  1  0.21160000  0.96630000  0.59050000  1.0 0.129588277
H  H21  1  0.48790000  0.98370000  0.86780000  1.0 0.0805636385
H  H22  1  0.49290000  0.05680000  0.84350000  1.0 0.0805636385
H  H23  1  0.50970000  0.98400000  0.79410000  1.0 0.0651721995
H  H24  1  0.10150000  0.69850000  0.46440000  1.0 0.0805636385
H  H25  1  0.00990000  0.55160000  0.36750000  1.0 0.0805636385
H  H26  1  0.96260000  0.45520000  0.41780000  1.0 0.0805636385
H  H27  1  0.48040000  0.05610000  0.49790000  1.0 0.0805636385
H  H28  1  0.42460000  0.08120000  0.58200000  1.0 0.0931356888
H  H29  1  0.36380000  0.04740000  0.65700000  1.0 0.0805636385
H  H30  1  0.24570000  0.99260000  0.70310000  1.0 0.0459044495
H  H31  1  0.24290000  0.92540000  0.79170000  1.0 0.0558527308
H  H32  1  0.33270000  0.98090000  0.80140000  1.0 0.1594486569
H  H33  1  0.28840000  0.87890000  0.75470000  1.0 0.129588277
H  H34  1  0.01210000  0.87990000  0.49580000  1.0 0.0805636385
H  H35  1  0.00710000  0.85060000  0.56390000  1.0 0.0805636385
H  H36  1  0.99030000  0.78440000  0.47430000  1.0 0.0651721995
H  H37  1  0.39850000  0.86290000  0.59700000  1.0 0.0805636385
H  H38  1  0.49010000  0.85760000  0.54170000  1.0 0.0805636385
H  H39  1  0.53740000  0.95520000  0.49260000  1.0 0.0805636385
H  H40  1  0.05820000  0.98250000  0.00210000  1.0 0.0805636385
H  H41  1  0.99920000  0.84260000  0.91800000  1.0 0.0931356888
H  H42  1  0.89040000  0.70680000  0.84300000  1.0 0.0805636385
H  H43  1  0.78950000  0.54260000  0.79690000  1.0 0.0459044495
H  H44  1  0.63370000  0.45120000  0.70830000  1.0 0.0558527308
H  H45  1  0.67950000  0.53130000  0.69860000  1.0 0.1594486569
H  H46  1  0.62420000  0.53370000  0.74530000  1.0 0.129588277
H  H47  1  0.88410000  0.51630000  0.00420000  1.0 0.0805636385
H  H48  1  0.78670000  0.44320000  0.93610000  1.0 0.0805636385
H  H49  1  0.81010000  0.51600000  0.02570000  1.0 0.0651721995
H  H50  1  0.76590000  0.80150000  0.90300000  1.0 0.0805636385
H  H51  1  0.81590000  0.94840000  0.95830000  1.0 0.0805636385
H  H52  1  0.96260000  0.04480000  0.00740000  1.0 0.0805636385
H  H53  1  0.92430000  0.44180000  0.44390000  1.0 0.0805636385
H  H54  1  0.84340000  0.50080000  0.41880000  1.0 0.0931356888
H  H55  1  0.81640000  0.60960000  0.45260000  1.0 0.0805636385
H  H56  1  0.75310000  0.71050000  0.50740000  1.0 0.0459044495
H  H57  1  0.81750000  0.86630000  0.57460000  1.0 0.0558527308
H  H58  1  0.85180000  0.82050000  0.51910000  1.0 0.1594486569
H  H59  1  0.90950000  0.87580000  0.62110000  1.0 0.129588277
H  H60  1  0.63220000  0.61590000  0.62010000  1.0 0.0805636385
H  H61  1  0.65650000  0.71330000  0.64940000  1.0 0.0805636385
H  H62  1  0.70590000  0.68990000  0.71560000  1.0 0.0651721995
H  H63  1  0.03560000  0.73410000  0.63710000  1.0 0.0805636385
H  H64  1  0.13250000  0.68410000  0.64240000  1.0 0.0805636385
H  H65  1  0.08220000  0.53740000  0.54480000  1.0 0.0805636385
H  H66  1  0.57570000  0.01960000  0.51750000  1.0 0.0805636385
H  H67  1  0.65660000  0.07540000  0.65740000  1.0 0.0931356888
H  H68  1  0.68360000  0.13620000  0.79320000  1.0 0.0805636385
H  H69  1  0.74690000  0.25430000  0.95740000  1.0 0.0459044495
H  H70  1  0.68250000  0.25710000  0.04880000  1.0 0.0558527308
H  H71  1  0.64820000  0.16730000  0.96870000  1.0 0.1594486569
H  H72  1  0.59050000  0.21160000  0.96630000  1.0 0.129588277
H  H73  1  0.86780000  0.48790000  0.98370000  1.0 0.0805636385
H  H74  1  0.84350000  0.49290000  0.05680000  1.0 0.0805636385
H  H75  1  0.79410000  0.50970000  0.98400000  1.0 0.0651721995
H  H76  1  0.46440000  0.10150000  0.69850000  1.0 0.0805636385
H  H77  1  0.36750000  0.00990000  0.55160000  1.0 0.0805636385
H  H78  1  0.41780000  0.96260000  0.45520000  1.0 0.0805636385
H  H79  1  0.49790000  0.48040000  0.05610000  1.0 0.0805636385
H  H80  1  0.58200000  0.42460000  0.08120000  1.0 0.0931356888
H  H81  1  0.65700000  0.36380000  0.04740000  1.0 0.0805636385
H  H82  1  0.70310000  0.24570000  0.99260000  1.0 0.0459044495
H  H83  1  0.79170000  0.24290000  0.92540000  1.0 0.0558527308
H  H84  1  0.80140000  0.33270000  0.98090000  1.0 0.1594486569
H  H85  1  0.75470000  0.28840000  0.87890000  1.0 0.129588277
H  H86  1  0.49580000  0.01210000  0.87990000  1.0 0.0805636385
H  H87  1  0.56390000  0.00710000  0.85060000  1.0 0.0805636385
H  H88  1  0.47430000  0.99030000  0.78440000  1.0 0.0651721995
H  H89  1  0.59700000  0.39850000  0.86290000  1.0 0.0805636385
H  H90  1  0.54170000  0.49010000  0.85760000  1.0 0.0805636385
H  H91  1  0.49260000  0.53740000  0.95520000  1.0 0.0805636385
H  H92  1  0.00210000  0.05820000  0.98250000  1.0 0.0805636385
H  H93  1  0.91800000  0.99920000  0.84260000  1.0 0.0931356888
H  H94  1  0.84300000  0.89040000  0.70680000  1.0 0.0805636385
H  H95  1  0.79690000  0.78950000  0.54260000  1.0 0.0459044495
H  H96  1  0.70830000  0.63370000  0.45120000  1.0 0.0558527308
H  H97  1  0.69860000  0.67950000  0.53130000  1.0 0.1594486569
H  H98  1  0.74530000  0.62420000  0.53370000  1.0 0.129588277
H  H99  1  0.00420000  0.88410000  0.51630000  1.0 0.0805636385
H  H100  1  0.93610000  0.78670000  0.44320000  1.0 0.0805636385
H  H101  1  0.02570000  0.81010000  0.51600000  1.0 0.0651721995
H  H102  1  0.90300000  0.76590000  0.80150000  1.0 0.0805636385
H  H103  1  0.95830000  0.81590000  0.94840000  1.0 0.0805636385
H  H104  1  0.00740000  0.96260000  0.04480000  1.0 0.0805636385
H  H105  1  0.44390000  0.92430000  0.44180000  1.0 0.0805636385
H  H106  1  0.41880000  0.84340000  0.50080000  1.0 0.0931356888
H  H107  1  0.45260000  0.81640000  0.60960000  1.0 0.0805636385
H  H108  1  0.50740000  0.75310000  0.71050000  1.0 0.0459044495
H  H109  1  0.57460000  0.81750000  0.86630000  1.0 0.0558527308
H  H110  1  0.51910000  0.85180000  0.82050000  1.0 0.1594486569
H  H111  1  0.62110000  0.90950000  0.87580000  1.0 0.129588277
H  H112  1  0.62010000  0.63220000  0.61590000  1.0 0.0805636385
H  H113  1  0.64940000  0.65650000  0.71330000  1.0 0.0805636385
H  H114  1  0.71560000  0.70590000  0.68990000  1.0 0.0651721995
H  H115  1  0.63710000  0.03560000  0.73410000  1.0 0.0805636385
H  H116  1  0.64240000  0.13250000  0.68410000  1.0 0.0805636385
H  H117  1  0.54480000  0.08220000  0.53740000  1.0 0.0805636385
H  H118  1  0.51750000  0.57570000  0.01960000  1.0 0.0805636385
H  H119  1  0.65740000  0.65660000  0.07540000  1.0 0.0931356888
H  H120  1  0.79320000  0.68360000  0.13620000  1.0 0.0805636385
H  H121  1  0.95740000  0.74690000  0.25430000  1.0 0.0459044495
H  H122  1  0.04880000  0.68250000  0.25710000  1.0 0.0558527308
H  H123  1  0.96870000  0.64820000  0.16730000  1.0 0.1594486569
H  H124  1  0.96630000  0.59050000  0.21160000  1.0 0.129588277
H  H125  1  0.98370000  0.86780000  0.48790000  1.0 0.0805636385
H  H126  1  0.05680000  0.84350000  0.49290000  1.0 0.0805636385
H  H127  1  0.98400000  0.79410000  0.50970000  1.0 0.0651721995
H  H128  1  0.69850000  0.46440000  0.10150000  1.0 0.0805636385
H  H129  1  0.55160000  0.36750000  0.00990000  1.0 0.0805636385
H  H130  1  0.45520000  0.41780000  0.96260000  1.0 0.0805636385
H  H131  1  0.05610000  0.49790000  0.48040000  1.0 0.0805636385
H  H132  1  0.08120000  0.58200000  0.42460000  1.0 0.0931356888
H  H133  1  0.04740000  0.65700000  0.36380000  1.0 0.0805636385
H  H134  1  0.99260000  0.70310000  0.24570000  1.0 0.0459044495
H  H135  1  0.92540000  0.79170000  0.24290000  1.0 0.0558527308
H  H136  1  0.98090000  0.80140000  0.33270000  1.0 0.1594486569
H  H137  1  0.87890000  0.75470000  0.28840000  1.0 0.129588277
H  H138  1  0.87990000  0.49580000  0.01210000  1.0 0.0805636385
H  H139  1  0.85060000  0.56390000  0.00710000  1.0 0.0805636385
H  H140  1  0.78440000  0.47430000  0.99030000  1.0 0.0651721995
H  H141  1  0.86290000  0.59700000  0.39850000  1.0 0.0805636385
H  H142  1  0.85760000  0.54170000  0.49010000  1.0 0.0805636385
H  H143  1  0.95520000  0.49260000  0.53740000  1.0 0.0805636385
H  H144  1  0.98250000  0.00210000  0.05820000  1.0 0.0805636385
H  H145  1  0.84260000  0.91800000  0.99920000  1.0 0.0931356888
H  H146  1  0.70680000  0.84300000  0.89040000  1.0 0.0805636385
H  H147  1  0.54260000  0.79690000  0.78950000  1.0 0.0459044495
H  H148  1  0.45120000  0.70830000  0.63370000  1.0 0.0558527308
H  H149  1  0.53130000  0.69860000  0.67950000  1.0 0.1594486569
H  H150  1  0.53370000  0.74530000  0.62420000  1.0 0.129588277
H  H151  1  0.51630000  0.00420000  0.88410000  1.0 0.0805636385
H  H152  1  0.44320000  0.93610000  0.78670000  1.0 0.0805636385
H  H153  1  0.51600000  0.02570000  0.81010000  1.0 0.0651721995
H  H154  1  0.80150000  0.90300000  0.76590000  1.0 0.0805636385
H  H155  1  0.94840000  0.95830000  0.81590000  1.0 0.0805636385
H  H156  1  0.04480000  0.00740000  0.96260000  1.0 0.0805636385
H  H157  1  0.97640000  0.54800000  0.90160000  1.0 0.129588277
H  H158  1  0.25410000  0.78020000  0.11550000  1.0 0.129588277
H  H159  1  0.21420000  0.64720000  0.10520000  1.0 0.1366177503
H  H160  1  0.02060000  0.68030000  0.90810000  1.0 0.1139542911
H  H161  1  0.22620000  0.87890000  0.06970000  1.0 0.1179384332
H  H162  1  0.21250000  0.97050000  0.02860000  1.0 0.2730269722
H  H163  1  0.16070000  0.11820000  0.89430000  1.0 0.1139542911
H  H164  1  0.04460000  0.86720000  0.70580000  1.0 0.129588277
H  H165  1  0.21250000  0.08280000  0.99590000  1.0 0.1494585465
H  H166  1  0.08770000  0.00960000  0.74170000  1.0 0.129588277
H  H167  1  0.14640000  0.07480000  0.59840000  1.0 0.129588277
H  H168  1  0.16470000  0.13860000  0.38450000  1.0 0.129588277
H  H169  1  0.04200000  0.10900000  0.39480000  1.0 0.1366177503
H  H170  1  0.27220000  0.11250000  0.59190000  1.0 0.1139542911
H  H171  1  0.30920000  0.15650000  0.43030000  1.0 0.1179384332
H  H172  1  0.44190000  0.18390000  0.47140000  1.0 0.2730269722
H  H173  1  0.72390000  0.26640000  0.60570000  1.0 0.1139542911
H  H174  1  0.66140000  0.33880000  0.79420000  1.0 0.129588277
H  H175  1  0.58690000  0.21660000  0.50410000  1.0 0.1494585465
H  H176  1  0.76790000  0.34600000  0.75830000  1.0 0.129588277
H  H177  1  0.35360000  0.95200000  0.92840000  1.0 0.129588277
H  H178  1  0.33530000  0.71980000  0.97390000  1.0 0.129588277
H  H179  1  0.45800000  0.85280000  0.06700000  1.0 0.1366177503
H  H180  1  0.22780000  0.81970000  0.84030000  1.0 0.1139542911
H  H181  1  0.19080000  0.62110000  0.84730000  1.0 0.1179384332
H  H182  1  0.05810000  0.52950000  0.74200000  1.0 0.2730269722
H  H183  1  0.77610000  0.38180000  0.54250000  1.0 0.1139542911
H  H184  1  0.83860000  0.63280000  0.67740000  1.0 0.129588277
H  H185  1  0.91310000  0.41720000  0.62970000  1.0 0.1494585465
H  H186  1  0.73210000  0.49040000  0.57810000  1.0 0.129588277
H  H187  1  0.52360000  0.42520000  0.57160000  1.0 0.129588277
H  H188  1  0.24590000  0.36140000  0.52610000  1.0 0.129588277
H  H189  1  0.28580000  0.39100000  0.43300000  1.0 0.1366177503
H  H190  1  0.47940000  0.38750000  0.65970000  1.0 0.1139542911
H  H191  1  0.27380000  0.34350000  0.65270000  1.0 0.1179384332
H  H192  1  0.28750000  0.31610000  0.75800000  1.0 0.2730269722
H  H193  1  0.33930000  0.23360000  0.95750000  1.0 0.1139542911
H  H194  1  0.45540000  0.16120000  0.82260000  1.0 0.129588277
H  H195  1  0.28750000  0.28340000  0.87030000  1.0 0.1494585465
H  H196  1  0.41230000  0.15400000  0.92190000  1.0 0.129588277
H  H197  1  0.90160000  0.97640000  0.54800000  1.0 0.129588277
H  H198  1  0.11550000  0.25410000  0.78020000  1.0 0.129588277
H  H199  1  0.10520000  0.21420000  0.64720000  1.0 0.1366177503
H  H200  1  0.90810000  0.02060000  0.68030000  1.0 0.1139542911
H  H201  1  0.06970000  0.22620000  0.87890000  1.0 0.1179384332
H  H202  1  0.02860000  0.21250000  0.97050000  1.0 0.2730269722
H  H203  1  0.89430000  0.16070000  0.11820000  1.0 0.1139542911
H  H204  1  0.70580000  0.04460000  0.86720000  1.0 0.129588277
H  H205  1  0.99590000  0.21250000  0.08280000  1.0 0.1494585465
H  H206  1  0.74170000  0.08770000  0.00960000  1.0 0.129588277
H  H207  1  0.59840000  0.14640000  0.07480000  1.0 0.129588277
H  H208  1  0.38450000  0.16470000  0.13860000  1.0 0.129588277
H  H209  1  0.39480000  0.04200000  0.10900000  1.0 0.1366177503
H  H210  1  0.59190000  0.27220000  0.11250000  1.0 0.1139542911
H  H211  1  0.43030000  0.30920000  0.15650000  1.0 0.1179384332
H  H212  1  0.47140000  0.44190000  0.18390000  1.0 0.2730269722
H  H213  1  0.60570000  0.72390000  0.26640000  1.0 0.1139542911
H  H214  1  0.79420000  0.66140000  0.33880000  1.0 0.129588277
H  H215  1  0.50410000  0.58690000  0.21660000  1.0 0.1494585465
H  H216  1  0.75830000  0.76790000  0.34600000  1.0 0.129588277
H  H217  1  0.92840000  0.35360000  0.95200000  1.0 0.129588277
H  H218  1  0.97390000  0.33530000  0.71980000  1.0 0.129588277
H  H219  1  0.06700000  0.45800000  0.85280000  1.0 0.1366177503
H  H220  1  0.84030000  0.22780000  0.81970000  1.0 0.1139542911
H  H221  1  0.84730000  0.19080000  0.62110000  1.0 0.1179384332
H  H222  1  0.74200000  0.05810000  0.52950000  1.0 0.2730269722
H  H223  1  0.54250000  0.77610000  0.38180000  1.0 0.1139542911
H  H224  1  0.67740000  0.83860000  0.63280000  1.0 0.129588277
H  H225  1  0.62970000  0.91310000  0.41720000  1.0 0.1494585465
H  H226  1  0.57810000  0.73210000  0.49040000  1.0 0.129588277
H  H227  1  0.57160000  0.52360000  0.42520000  1.0 0.129588277
H  H228  1  0.52610000  0.24590000  0.36140000  1.0 0.129588277
H  H229  1  0.43300000  0.28580000  0.39100000  1.0 0.1366177503
H  H230  1  0.65970000  0.47940000  0.38750000  1.0 0.1139542911
H  H231  1  0.65270000  0.27380000  0.34350000  1.0 0.1179384332
H  H232  1  0.75800000  0.28750000  0.31610000  1.0 0.2730269722
H  H233  1  0.95750000  0.33930000  0.23360000  1.0 0.1139542911
H  H234  1  0.82260000  0.45540000  0.16120000  1.0 0.129588277
H  H235  1  0.87030000  0.28750000  0.28340000  1.0 0.1494585465
H  H236  1  0.92190000  0.41230000  0.15400000  1.0 0.129588277
H  H237  1  0.54800000  0.90160000  0.97640000  1.0 0.129588277
H  H238  1  0.78020000  0.11550000  0.25410000  1.0 0.129588277
H  H239  1  0.64720000  0.10520000  0.21420000  1.0 0.1366177503
H  H240  1  0.68030000  0.90810000  0.02060000  1.0 0.1139542911
H  H241  1  0.87890000  0.06970000  0.22620000  1.0 0.1179384332
H  H242  1  0.97050000  0.02860000  0.21250000  1.0 0.2730269722
H  H243  1  0.11820000  0.89430000  0.16070000  1.0 0.1139542911
H  H244  1  0.86720000  0.70580000  0.04460000  1.0 0.129588277
H  H245  1  0.08280000  0.99590000  0.21250000  1.0 0.1494585465
H  H246  1  0.00960000  0.74170000  0.08770000  1.0 0.129588277
H  H247  1  0.07480000  0.59840000  0.14640000  1.0 0.129588277
H  H248  1  0.13860000  0.38450000  0.16470000  1.0 0.129588277
H  H249  1  0.10900000  0.39480000  0.04200000  1.0 0.1366177503
H  H250  1  0.11250000  0.59190000  0.27220000  1.0 0.1139542911
H  H251  1  0.15650000  0.43030000  0.30920000  1.0 0.1179384332
H  H252  1  0.18390000  0.47140000  0.44190000  1.0 0.2730269722
H  H253  1  0.26640000  0.60570000  0.72390000  1.0 0.1139542911
H  H254  1  0.33880000  0.79420000  0.66140000  1.0 0.129588277
H  H255  1  0.21660000  0.50410000  0.58690000  1.0 0.1494585465
H  H256  1  0.34600000  0.75830000  0.76790000  1.0 0.129588277
H  H257  1  0.95200000  0.92840000  0.35360000  1.0 0.129588277
H  H258  1  0.71980000  0.97390000  0.33530000  1.0 0.129588277
H  H259  1  0.85280000  0.06700000  0.45800000  1.0 0.1366177503
H  H260  1  0.81970000  0.84030000  0.22780000  1.0 0.1139542911
H  H261  1  0.62110000  0.84730000  0.19080000  1.0 0.1179384332
H  H262  1  0.52950000  0.74200000  0.05810000  1.0 0.2730269722
H  H263  1  0.38180000  0.54250000  0.77610000  1.0 0.1139542911
H  H264  1  0.63280000  0.67740000  0.83860000  1.0 0.129588277
H  H265  1  0.41720000  0.62970000  0.91310000  1.0 0.1494585465
H  H266  1  0.49040000  0.57810000  0.73210000  1.0 0.129588277
H  H267  1  0.42520000  0.57160000  0.52360000  1.0 0.129588277
H  H268  1  0.36140000  0.52610000  0.24590000  1.0 0.129588277
H  H269  1  0.39100000  0.43300000  0.28580000  1.0 0.1366177503
H  H270  1  0.38750000  0.65970000  0.47940000  1.0 0.1139542911
H  H271  1  0.34350000  0.65270000  0.27380000  1.0 0.1179384332
H  H272  1  0.31610000  0.75800000  0.28750000  1.0 0.2730269722
H  H273  1  0.23360000  0.95750000  0.33930000  1.0 0.1139542911
H  H274  1  0.16120000  0.82260000  0.45540000  1.0 0.129588277
H  H275  1  0.28340000  0.87030000  0.28750000  1.0 0.1494585465
H  H276  1  0.15400000  0.92190000  0.41230000  1.0 0.129588277
C  C1  1  0.49993000  0.49192000  0.95271000  1.0 -0.0384264923
C  C2  1  0.53357000  0.47291000  0.89772000  1.0 -0.0916658096
C  C3  1  0.61990000  0.52794000  0.92624000  1.0 0.0408291224
C  C4  1  0.64760000  0.51170000  0.86370000  1.0 -0.0031971895
C  C5  1  0.83720000  0.57290000  0.85090000  1.0 -0.2181530182
C  C6  1  0.74570000  0.62730000  0.79420000  1.0 0.1594486569
C  C7  1  0.67530000  0.65560000  0.67910000  1.0 -0.1346563656
C  C8  1  0.67452000  0.59489000  0.01233000  1.0 -0.1493067639
C  C9  1  0.64463000  0.60087000  0.07112000  1.0 -0.0989116092
C  C10  1  0.55737000  0.54809000  0.04152000  1.0 -0.0384264923
C  C11  1  0.03921000  0.54722000  0.54729000  1.0 -0.0384264923
C  C12  1  0.07519000  0.63585000  0.60228000  1.0 -0.0916658096
C  C13  1  0.10170000  0.69366000  0.57376000  1.0 0.0408291224
C  C14  1  0.14800000  0.78390000  0.63630000  1.0 -0.0031971895
C  C15  1  0.22200000  0.98630000  0.64910000  1.0 -0.2181530182
C  C16  1  0.33310000  0.95150000  0.70580000  1.0 0.1594486569
C  C17  1  0.47650000  0.99620000  0.82090000  1.0 -0.1346563656
C  C18  1  0.08256000  0.66219000  0.48767000  1.0 -0.1493067639
C  C19  1  0.02975000  0.57351000  0.42888000  1.0 -0.0989116092
C  C20  1  0.00657000  0.51585000  0.45848000  1.0 -0.0384264923
C  C21  1  0.46079000  0.00808000  0.50801000  1.0 -0.0384264923
C  C22  1  0.42481000  0.02709000  0.56066000  1.0 -0.0916658096
C  C23  1  0.39830000  0.97206000  0.59196000  1.0 0.0408291224
C  C24  1  0.35200000  0.98830000  0.63590000  1.0 -0.0031971895
C  C25  1  0.27800000  0.92710000  0.76430000  1.0 -0.2181530182
C  C26  1  0.16690000  0.87270000  0.61840000  1.0 0.1594486569
C  C27  1  0.02350000  0.84440000  0.51970000  1.0 -0.1346563656
C  C28  1  0.41744000  0.90511000  0.57963000  1.0 -0.1493067639
C  C29  1  0.47025000  0.89913000  0.54376000  1.0 -0.0989116092
C  C30  1  0.49343000  0.95191000  0.50928000  1.0 -0.0384264923
C  C31  1  0.00007000  0.95278000  0.99199000  1.0 -0.0384264923
C  C32  1  0.96643000  0.86415000  0.93934000  1.0 -0.0916658096
C  C33  1  0.88010000  0.80634000  0.90804000  1.0 0.0408291224
C  C34  1  0.85240000  0.71610000  0.86410000  1.0 -0.0031971895
C  C35  1  0.66280000  0.51370000  0.73570000  1.0 -0.2181530182
C  C36  1  0.75430000  0.54850000  0.88160000  1.0 0.1594486569
C  C37  1  0.82470000  0.50380000  0.98030000  1.0 -0.1346563656
C  C38  1  0.82548000  0.83781000  0.92037000  1.0 -0.1493067639
C  C39  1  0.85537000  0.92649000  0.95624000  1.0 -0.0989116092
C  C40  1  0.94263000  0.98415000  0.99072000  1.0 -0.0384264923
C  C41  1  0.95271000  0.49993000  0.49192000  1.0 -0.0384264923
C  C42  1  0.89772000  0.53357000  0.47291000  1.0 -0.0916658096
C  C43  1  0.92624000  0.61990000  0.52794000  1.0 0.0408291224
C  C44  1  0.86370000  0.64760000  0.51170000  1.0 -0.0031971895
C  C45  1  0.85090000  0.83720000  0.57290000  1.0 -0.2181530182
C  C46  1  0.79420000  0.74570000  0.62730000  1.0 0.1594486569
C  C47  1  0.67910000  0.67530000  0.65560000  1.0 -0.1346563656
C  C48  1  0.01233000  0.67452000  0.59489000  1.0 -0.1493067639
C  C49  1  0.07112000  0.64463000  0.60087000  1.0 -0.0989116092
C  C50  1  0.04152000  0.55737000  0.54809000  1.0 -0.0384264923
C  C51  1  0.54729000  0.03921000  0.54722000  1.0 -0.0384264923
C  C52  1  0.60228000  0.07519000  0.63585000  1.0 -0.0916658096
C  C53  1  0.57376000  0.10170000  0.69366000  1.0 0.0408291224
C  C54  1  0.63630000  0.14800000  0.78390000  1.0 -0.0031971895
C  C55  1  0.64910000  0.22200000  0.98630000  1.0 -0.2181530182
C  C56  1  0.70580000  0.33310000  0.95150000  1.0 0.1594486569
C  C57  1  0.82090000  0.47650000  0.99620000  1.0 -0.1346563656
C  C58  1  0.48767000  0.08256000  0.66219000  1.0 -0.1493067639
C  C59  1  0.42888000  0.02975000  0.57351000  1.0 -0.0989116092
C  C60  1  0.45848000  0.00657000  0.51585000  1.0 -0.0384264923
C  C61  1  0.50801000  0.46079000  0.00808000  1.0 -0.0384264923
C  C62  1  0.56066000  0.42481000  0.02709000  1.0 -0.0916658096
C  C63  1  0.59196000  0.39830000  0.97206000  1.0 0.0408291224
C  C64  1  0.63590000  0.35200000  0.98830000  1.0 -0.0031971895
C  C65  1  0.76430000  0.27800000  0.92710000  1.0 -0.2181530182
C  C66  1  0.61840000  0.16690000  0.87270000  1.0 0.1594486569
C  C67  1  0.51970000  0.02350000  0.84440000  1.0 -0.1346563656
C  C68  1  0.57963000  0.41744000  0.90511000  1.0 -0.1493067639
C  C69  1  0.54376000  0.47025000  0.89913000  1.0 -0.0989116092
C  C70  1  0.50928000  0.49343000  0.95191000  1.0 -0.0384264923
C  C71  1  0.99199000  0.00007000  0.95278000  1.0 -0.0384264923
C  C72  1  0.93934000  0.96643000  0.86415000  1.0 -0.0916658096
C  C73  1  0.90804000  0.88010000  0.80634000  1.0 0.0408291224
C  C74  1  0.86410000  0.85240000  0.71610000  1.0 -0.0031971895
C  C75  1  0.73570000  0.66280000  0.51370000  1.0 -0.2181530182
C  C76  1  0.88160000  0.75430000  0.54850000  1.0 0.1594486569
C  C77  1  0.98030000  0.82470000  0.50380000  1.0 -0.1346563656
C  C78  1  0.92037000  0.82548000  0.83781000  1.0 -0.1493067639
C  C79  1  0.95624000  0.85537000  0.92649000  1.0 -0.0989116092
C  C80  1  0.99072000  0.94263000  0.98415000  1.0 -0.0384264923
C  C81  1  0.49192000  0.95271000  0.49993000  1.0 -0.0384264923
C  C82  1  0.47291000  0.89772000  0.53357000  1.0 -0.0916658096
C  C83  1  0.52794000  0.92624000  0.61990000  1.0 0.0408291224
C  C84  1  0.51170000  0.86370000  0.64760000  1.0 -0.0031971895
C  C85  1  0.57290000  0.85090000  0.83720000  1.0 -0.2181530182
C  C86  1  0.62730000  0.79420000  0.74570000  1.0 0.1594486569
C  C87  1  0.65560000  0.67910000  0.67530000  1.0 -0.1346563656
C  C88  1  0.59489000  0.01233000  0.67452000  1.0 -0.1493067639
C  C89  1  0.60087000  0.07112000  0.64463000  1.0 -0.0989116092
C  C90  1  0.54809000  0.04152000  0.55737000  1.0 -0.0384264923
C  C91  1  0.54722000  0.54729000  0.03921000  1.0 -0.0384264923
C  C92  1  0.63585000  0.60228000  0.07519000  1.0 -0.0916658096
C  C93  1  0.69366000  0.57376000  0.10170000  1.0 0.0408291224
C  C94  1  0.78390000  0.63630000  0.14800000  1.0 -0.0031971895
C  C95  1  0.98630000  0.64910000  0.22200000  1.0 -0.2181530182
C  C96  1  0.95150000  0.70580000  0.33310000  1.0 0.1594486569
C  C97  1  0.99620000  0.82090000  0.47650000  1.0 -0.1346563656
C  C98  1  0.66219000  0.48767000  0.08256000  1.0 -0.1493067639
C  C99  1  0.57351000  0.42888000  0.02975000  1.0 -0.0989116092
C  C100  1  0.51585000  0.45848000  0.00657000  1.0 -0.0384264923
C  C101  1  0.00808000  0.50801000  0.46079000  1.0 -0.0384264923
C  C102  1  0.02709000  0.56066000  0.42481000  1.0 -0.0916658096
C  C103  1  0.97206000  0.59196000  0.39830000  1.0 0.0408291224
C  C104  1  0.98830000  0.63590000  0.35200000  1.0 -0.0031971895
C  C105  1  0.92710000  0.76430000  0.27800000  1.0 -0.2181530182
C  C106  1  0.87270000  0.61840000  0.16690000  1.0 0.1594486569
C  C107  1  0.84440000  0.51970000  0.02350000  1.0 -0.1346563656
C  C108  1  0.90511000  0.57963000  0.41744000  1.0 -0.1493067639
C  C109  1  0.89913000  0.54376000  0.47025000  1.0 -0.0989116092
C  C110  1  0.95191000  0.50928000  0.49343000  1.0 -0.0384264923
C  C111  1  0.95278000  0.99199000  0.00007000  1.0 -0.0384264923
C  C112  1  0.86415000  0.93934000  0.96643000  1.0 -0.0916658096
C  C113  1  0.80634000  0.90804000  0.88010000  1.0 0.0408291224
C  C114  1  0.71610000  0.86410000  0.85240000  1.0 -0.0031971895
C  C115  1  0.51370000  0.73570000  0.66280000  1.0 -0.2181530182
C  C116  1  0.54850000  0.88160000  0.75430000  1.0 0.1594486569
C  C117  1  0.50380000  0.98030000  0.82470000  1.0 -0.1346563656
C  C118  1  0.83781000  0.92037000  0.82548000  1.0 -0.1493067639
C  C119  1  0.92649000  0.95624000  0.85537000  1.0 -0.0989116092
C  C120  1  0.98415000  0.99072000  0.94263000  1.0 -0.0384264923
C  C121  1  0.75000000  0.55930000  0.80930000  1.0 -0.0031971895
C  C122  1  0.25000000  0.94070000  0.69070000  1.0 -0.0031971895
C  C123  1  0.80930000  0.75000000  0.55930000  1.0 -0.0031971895
C  C124  1  0.69070000  0.25000000  0.94070000  1.0 -0.0031971895
C  C125  1  0.55930000  0.80930000  0.75000000  1.0 -0.0031971895
C  C126  1  0.94070000  0.69070000  0.25000000  1.0 -0.0031971895
C  C127  1  0.03258000  0.59459000  0.94459000  1.0 -0.2293032038
C  C128  1  0.19870000  0.73300000  0.07130000  1.0 -0.0916658096
C  C129  1  0.08871000  0.58351000  0.00440000  1.0 0.1829791768
C  C130  1  0.17430000  0.65460000  0.06690000  1.0 -0.1582429368
C  C131  1  0.05940000  0.67384000  0.94864000  1.0 -0.144558176
C  C132  1  0.17560000  0.83164000  0.01844000  1.0 -0.0243802868
C  C133  1  0.14240000  0.74538000  0.01078000  1.0 0.0805636385
C  C134  1  0.14640000  0.94970000  0.91310000  1.0 0.2853354778
C  C135  1  0.14880000  0.06090000  0.87770000  1.0 -0.0555524413
C  C136  1  0.07590000  0.91080000  0.76450000  1.0 -0.1108724558
C  C137  1  0.17500000  0.03930000  0.93730000  1.0 -0.2293032038
C  C138  1  0.10070000  0.99440000  0.78510000  1.0 -0.2756577541
C  C139  1  0.15000000  0.08799000  0.55541000  1.0 -0.2293032038
C  C140  1  0.16170000  0.12740000  0.42870000  1.0 -0.0916658096
C  C141  1  0.07911000  0.08431000  0.49560000  1.0 0.1829791768
C  C142  1  0.08770000  0.10740000  0.43310000  1.0 -0.1582429368
C  C143  1  0.22520000  0.11076000  0.55136000  1.0 -0.144558176
C  C144  1  0.31320000  0.15716000  0.48156000  1.0 -0.0243802868
C  C145  1  0.23460000  0.13162000  0.48922000  1.0 0.0805636385
C  C146  1  0.53660000  0.23330000  0.58690000  1.0 0.2853354778
C  C147  1  0.68320000  0.27110000  0.62230000  1.0 -0.0548555959
C  C148  1  0.64630000  0.31140000  0.73550000  1.0 -0.1108724558
C  C149  1  0.60200000  0.23770000  0.56270000  1.0 -0.2293032038
C  C150  1  0.70930000  0.31560000  0.71490000  1.0 -0.2744321552
C  C151  1  0.35000000  0.90541000  0.93799000  1.0 -0.2293032038
C  C152  1  0.33830000  0.76700000  0.96570000  1.0 -0.0916658096
C  C153  1  0.42089000  0.91649000  0.00520000  1.0 0.1829791768
C  C154  1  0.41230000  0.84540000  0.01970000  1.0 -0.1582429368
C  C155  1  0.27480000  0.82616000  0.88556000  1.0 -0.144558176
C  C156  1  0.18680000  0.66836000  0.84396000  1.0 -0.0243802868
C  C157  1  0.26540000  0.75462000  0.89702000  1.0 0.0805636385
C  C158  1  0.96340000  0.55030000  0.69670000  1.0 0.2853354778
C  C159  1  0.81680000  0.43910000  0.58790000  1.0 -0.0548555959
C  C160  1  0.85370000  0.58920000  0.66510000  1.0 -0.1108724558
C  C161  1  0.89800000  0.46070000  0.63570000  1.0 -0.2293032038
C  C162  1  0.79070000  0.50560000  0.60630000  1.0 -0.2744321552
C  C163  1  0.46742000  0.41201000  0.56201000  1.0 -0.2293032038
C  C164  1  0.30130000  0.37260000  0.53430000  1.0 -0.0916658096
C  C165  1  0.41129000  0.41569000  0.49480000  1.0 0.1829791768
C  C166  1  0.32570000  0.39260000  0.48030000  1.0 -0.1582429368
C  C167  1  0.44060000  0.38924000  0.61444000  1.0 -0.144558176
C  C168  1  0.32440000  0.34284000  0.65604000  1.0 -0.0243802868
C  C169  1  0.35760000  0.36838000  0.60298000  1.0 0.0805636385
C  C170  1  0.35360000  0.26670000  0.80330000  1.0 0.2853354778
C  C171  1  0.35120000  0.22890000  0.91210000  1.0 -0.0548555959
C  C172  1  0.42410000  0.18860000  0.83490000  1.0 -0.1108724558
C  C173  1  0.32500000  0.26230000  0.86430000  1.0 -0.2293032038
C  C174  1  0.39930000  0.18440000  0.89370000  1.0 -0.2744321552
C  C175  1  0.94459000  0.03258000  0.59459000  1.0 -0.2293032038
C  C176  1  0.07130000  0.19870000  0.73300000  1.0 -0.0916658096
C  C177  1  0.00440000  0.08871000  0.58351000  1.0 0.1829791768
C  C178  1  0.06690000  0.17430000  0.65460000  1.0 -0.1582429368
C  C179  1  0.94864000  0.05940000  0.67384000  1.0 -0.144558176
C  C180  1  0.01844000  0.17560000  0.83164000  1.0 -0.0243802868
C  C181  1  0.01078000  0.14240000  0.74538000  1.0 0.0805636385
C  C182  1  0.91310000  0.14640000  0.94970000  1.0 0.2853354778
C  C183  1  0.87770000  0.14880000  0.06090000  1.0 -0.0548555959
C  C184  1  0.76450000  0.07590000  0.91080000  1.0 -0.1108724558
C  C185  1  0.93730000  0.17500000  0.03930000  1.0 -0.2293032038
C  C186  1  0.78510000  0.10070000  0.99440000  1.0 -0.2744321552
C  C187  1  0.55541000  0.15000000  0.08799000  1.0 -0.2293032038
C  C188  1  0.42870000  0.16170000  0.12740000  1.0 -0.0916658096
C  C189  1  0.49560000  0.07911000  0.08431000  1.0 0.1829791768
C  C190  1  0.43310000  0.08770000  0.10740000  1.0 -0.1582429368
C  C191  1  0.55136000  0.22520000  0.11076000  1.0 -0.144558176
C  C192  1  0.48156000  0.31320000  0.15716000  1.0 -0.0243802868
C  C193  1  0.48922000  0.23460000  0.13162000  1.0 0.0805636385
C  C194  1  0.58690000  0.53660000  0.23330000  1.0 0.2853354778
C  C195  1  0.62230000  0.68320000  0.27110000  1.0 -0.0548555959
C  C196  1  0.73550000  0.64630000  0.31140000  1.0 -0.1108724558
C  C197  1  0.56270000  0.60200000  0.23770000  1.0 -0.2293032038
C  C198  1  0.71490000  0.70930000  0.31560000  1.0 -0.2744321552
C  C199  1  0.93799000  0.35000000  0.90541000  1.0 -0.2293032038
C  C200  1  0.96570000  0.33830000  0.76700000  1.0 -0.0916658096
C  C201  1  0.00520000  0.42089000  0.91649000  1.0 0.1829791768
C  C202  1  0.01970000  0.41230000  0.84540000  1.0 -0.1582429368
C  C203  1  0.88556000  0.27480000  0.82616000  1.0 -0.144558176
C  C204  1  0.84396000  0.18680000  0.66836000  1.0 -0.0243802868
C  C205  1  0.89702000  0.26540000  0.75462000  1.0 0.0805636385
C  C206  1  0.69670000  0.96340000  0.55030000  1.0 0.2853354778
C  C207  1  0.58790000  0.81680000  0.43910000  1.0 -0.0548555959
C  C208  1  0.66510000  0.85370000  0.58920000  1.0 -0.1108724558
C  C209  1  0.63570000  0.89800000  0.46070000  1.0 -0.2293032038
C  C210  1  0.60630000  0.79070000  0.50560000  1.0 -0.2744321552
C  C211  1  0.56201000  0.46742000  0.41201000  1.0 -0.2293032038
C  C212  1  0.53430000  0.30130000  0.37260000  1.0 -0.0916658096
C  C213  1  0.49480000  0.41129000  0.41569000  1.0 0.1829791768
C  C214  1  0.48030000  0.32570000  0.39260000  1.0 -0.1582429368
C  C215  1  0.61444000  0.44060000  0.38924000  1.0 -0.144558176
C  C216  1  0.65604000  0.32440000  0.34284000  1.0 -0.0243802868
C  C217  1  0.60298000  0.35760000  0.36838000  1.0 0.0805636385
C  C218  1  0.80330000  0.35360000  0.26670000  1.0 0.2853354778
C  C219  1  0.91210000  0.35120000  0.22890000  1.0 -0.0548555959
C  C220  1  0.83490000  0.42410000  0.18860000  1.0 -0.1108724558
C  C221  1  0.86430000  0.32500000  0.26230000  1.0 -0.2293032038
C  C222  1  0.89370000  0.39930000  0.18440000  1.0 -0.2744321552
C  C223  1  0.59459000  0.94459000  0.03258000  1.0 -0.2293032038
C  C224  1  0.73300000  0.07130000  0.19870000  1.0 -0.0916658096
C  C225  1  0.58351000  0.00440000  0.08871000  1.0 0.1829791768
C  C226  1  0.65460000  0.06690000  0.17430000  1.0 -0.1582429368
C  C227  1  0.67384000  0.94864000  0.05940000  1.0 -0.144558176
C  C228  1  0.83164000  0.01844000  0.17560000  1.0 -0.0243802868
C  C229  1  0.74538000  0.01078000  0.14240000  1.0 0.0805636385
C  C230  1  0.94970000  0.91310000  0.14640000  1.0 0.2853354778
C  C231  1  0.06090000  0.87770000  0.14880000  1.0 -0.0548555959
C  C232  1  0.91080000  0.76450000  0.07590000  1.0 -0.1108724558
C  C233  1  0.03930000  0.93730000  0.17500000  1.0 -0.2293032038
C  C234  1  0.99440000  0.78510000  0.10070000  1.0 -0.2744321552
C  C235  1  0.08799000  0.55541000  0.15000000  1.0 -0.2293032038
C  C236  1  0.12740000  0.42870000  0.16170000  1.0 -0.0916658096
C  C237  1  0.08431000  0.49560000  0.07911000  1.0 0.1829791768
C  C238  1  0.10740000  0.43310000  0.08770000  1.0 -0.1582429368
C  C239  1  0.11076000  0.55136000  0.22520000  1.0 -0.144558176
C  C240  1  0.15716000  0.48156000  0.31320000  1.0 -0.0243802868
C  C241  1  0.13162000  0.48922000  0.23460000  1.0 0.0805636385
C  C242  1  0.23330000  0.58690000  0.53660000  1.0 0.2853354778
C  C243  1  0.27110000  0.62230000  0.68320000  1.0 -0.0555524413
C  C244  1  0.31140000  0.73550000  0.64630000  1.0 -0.1108724558
C  C245  1  0.23770000  0.56270000  0.60200000  1.0 -0.2293032038
C  C246  1  0.31560000  0.71490000  0.70930000  1.0 -0.2744321552
C  C247  1  0.90541000  0.93799000  0.35000000  1.0 -0.2293032038
C  C248  1  0.76700000  0.96570000  0.33830000  1.0 -0.0916658096
C  C249  1  0.91649000  0.00520000  0.42089000  1.0 0.1829791768
C  C250  1  0.84540000  0.01970000  0.41230000  1.0 -0.1582429368
C  C251  1  0.82616000  0.88556000  0.27480000  1.0 -0.144558176
C  C252  1  0.66836000  0.84396000  0.18680000  1.0 -0.0243802868
C  C253  1  0.75462000  0.89702000  0.26540000  1.0 0.0805636385
C  C254  1  0.55030000  0.69670000  0.96340000  1.0 0.2853354778
C  C255  1  0.43910000  0.58790000  0.81680000  1.0 -0.0555524413
C  C256  1  0.58920000  0.66510000  0.85370000  1.0 -0.1108724558
C  C257  1  0.46070000  0.63570000  0.89800000  1.0 -0.2293032038
C  C258  1  0.50560000  0.60630000  0.79070000  1.0 -0.2744321552
C  C259  1  0.41201000  0.56201000  0.46742000  1.0 -0.2293032038
C  C260  1  0.37260000  0.53430000  0.30130000  1.0 -0.0916658096
C  C261  1  0.41569000  0.49480000  0.41129000  1.0 0.1829791768
C  C262  1  0.39260000  0.48030000  0.32570000  1.0 -0.1582429368
C  C263  1  0.38924000  0.61444000  0.44060000  1.0 -0.144558176
C  C264  1  0.34284000  0.65604000  0.32440000  1.0 -0.0243802868
C  C265  1  0.36838000  0.60298000  0.35760000  1.0 0.0805636385
C  C266  1  0.26670000  0.80330000  0.35360000  1.0 0.2853354778
C  C267  1  0.22890000  0.91210000  0.35120000  1.0 -0.0555524413
C  C268  1  0.18860000  0.83490000  0.42410000  1.0 -0.1108724558
C  C269  1  0.26230000  0.86430000  0.32500000  1.0 -0.2293032038
C  C270  1  0.18440000  0.89370000  0.39930000  1.0 -0.2744321552
N  N1  1  0.71910000  0.56960000  0.86970000  1.0 -0.0384264923
N  N2  1  0.19990000  0.84940000  0.63030000  1.0 -0.0384264923
N  N3  1  0.30010000  0.93040000  0.64950000  1.0 -0.0384264923
N  N4  1  0.78090000  0.65060000  0.85050000  1.0 -0.0384264923
N  N5  1  0.86970000  0.71910000  0.56960000  1.0 -0.0384264923
N  N6  1  0.63030000  0.19990000  0.84940000  1.0 -0.0384264923
N  N7  1  0.64950000  0.30010000  0.93040000  1.0 -0.0384264923
N  N8  1  0.85050000  0.78090000  0.65060000  1.0 -0.0384264923
N  N9  1  0.56960000  0.86970000  0.71910000  1.0 -0.0384264923
N  N10  1  0.84940000  0.63030000  0.19990000  1.0 -0.0384264923
N  N11  1  0.93040000  0.64950000  0.30010000  1.0 -0.0384264923
N  N12  1  0.65060000  0.85050000  0.78090000  1.0 -0.0384264923
N  N13  1  0.13854000  0.84449000  0.95855000  1.0 -0.1582429368
N  N14  1  0.17277000  0.92901000  0.97584000  1.0 -0.2744321552
N  N15  1  0.09647000  0.88810000  0.82997000  1.0 -0.311226796
N  N16  1  0.38594000  0.17999000  0.54145000  1.0 -0.1582429368
N  N17  1  0.45317000  0.19693000  0.52416000  1.0 -0.2744321552
N  N18  1  0.55813000  0.26650000  0.67003000  1.0 -0.311226796
N  N19  1  0.11406000  0.65551000  0.79405000  1.0 -0.1582429368
N  N20  1  0.04683000  0.57099000  0.74376000  1.0 -0.2744321552
N  N21  1  0.94187000  0.61190000  0.70837000  1.0 -0.311226796
N  N22  1  0.36146000  0.32001000  0.70595000  1.0 -0.1582429368
N  N23  1  0.32723000  0.30307000  0.75624000  1.0 -0.2744321552
N  N24  1  0.40353000  0.23350000  0.79163000  1.0 -0.311226796
N  N25  1  0.95855000  0.13854000  0.84449000  1.0 -0.1582429368
N  N26  1  0.97584000  0.17277000  0.92901000  1.0 -0.2744321552
N  N27  1  0.82997000  0.09647000  0.88810000  1.0 -0.311226796
N  N28  1  0.54145000  0.38594000  0.17999000  1.0 -0.1582429368
N  N29  1  0.52416000  0.45317000  0.19693000  1.0 -0.2744321552
N  N30  1  0.67003000  0.55813000  0.26650000  1.0 -0.311226796
N  N31  1  0.79405000  0.11406000  0.65551000  1.0 -0.1582429368
N  N32  1  0.74376000  0.04683000  0.57099000  1.0 -0.2744321552
N  N33  1  0.70837000  0.94187000  0.61190000  1.0 -0.311226796
N  N34  1  0.70595000  0.36146000  0.32001000  1.0 -0.1582429368
N  N35  1  0.75624000  0.32723000  0.30307000  1.0 -0.2744321552
N  N36  1  0.79163000  0.40353000  0.23350000  1.0 -0.311226796
N  N37  1  0.84449000  0.95855000  0.13854000  1.0 -0.1582429368
N  N38  1  0.92901000  0.97584000  0.17277000  1.0 -0.2756577541
N  N39  1  0.88810000  0.82997000  0.09647000  1.0 -0.311226796
N  N40  1  0.17999000  0.54145000  0.38594000  1.0 -0.1582429368
N  N41  1  0.19693000  0.52416000  0.45317000  1.0 -0.2744321552
N  N42  1  0.26650000  0.67003000  0.55813000  1.0 -0.311226796
N  N43  1  0.65551000  0.79405000  0.11406000  1.0 -0.1582429368
N  N44  1  0.57099000  0.74376000  0.04683000  1.0 -0.2744321552
N  N45  1  0.61190000  0.70837000  0.94187000  1.0 -0.311226796
N  N46  1  0.32001000  0.70595000  0.36146000  1.0 -0.1582429368
N  N47  1  0.30307000  0.75624000  0.32723000  1.0 -0.2744321552
N  N48  1  0.23350000  0.79163000  0.40353000  1.0 -0.311226796
N  N49  1  0.06120000  0.50000000  0.00000000  1.0 -0.2616055865
N  N50  1  0.00000000  0.06120000  0.50000000  1.0 -0.2616055865
N  N51  1  0.50000000  0.00000000  0.06120000  1.0 -0.2616055865
N  N52  1  0.43880000  0.43880000  0.43880000  1.0 -0.2616055865
Cl  Cl1  1  0.19386000  0.44386000  0.75000000  1.0 1.238757977
Cl  Cl2  1  0.30614000  0.05614000  0.25000000  1.0 1.238757977
Cl  Cl3  1  0.44386000  0.75000000  0.19386000  1.0 1.238757977
Cl  Cl4  1  0.05614000  0.25000000  0.30614000  1.0 1.238757977
Cl  Cl5  1  0.75000000  0.19386000  0.44386000  1.0 1.238757977
Cl  Cl6  1  0.25000000  0.30614000  0.05614000  1.0 1.238757977
O  O1  1  0.67440000  0.58880000  0.70680000  1.0 -0.1493067639
O  O2  1  0.80470000  0.70730000  0.86580000  1.0 -0.0754092127
O  O3  1  0.38200000  0.96760000  0.79320000  1.0 -0.1493067639
O  O4  1  0.34150000  0.93890000  0.63420000  1.0 -0.0754092127
O  O5  1  0.11800000  0.91120000  0.58560000  1.0 -0.1493067639
O  O6  1  0.15850000  0.79270000  0.59740000  1.0 -0.0754092127
O  O7  1  0.82560000  0.53240000  0.91440000  1.0 -0.1493067639
O  O8  1  0.69530000  0.56110000  0.90260000  1.0 -0.0754092127
O  O9  1  0.70680000  0.67440000  0.58880000  1.0 -0.1493067639
O  O10  1  0.86580000  0.80470000  0.70730000  1.0 -0.0754092127
O  O11  1  0.79320000  0.38200000  0.96760000  1.0 -0.1493067639
O  O12  1  0.63420000  0.34150000  0.93890000  1.0 -0.0754092127
O  O13  1  0.58560000  0.11800000  0.91120000  1.0 -0.1493067639
O  O14  1  0.59740000  0.15850000  0.79270000  1.0 -0.0754092127
O  O15  1  0.91440000  0.82560000  0.53240000  1.0 -0.1493067639
O  O16  1  0.90260000  0.69530000  0.56110000  1.0 -0.0754092127
O  O17  1  0.58880000  0.70680000  0.67440000  1.0 -0.1493067639
O  O18  1  0.70730000  0.86580000  0.80470000  1.0 -0.0754092127
O  O19  1  0.96760000  0.79320000  0.38200000  1.0 -0.1493067639
O  O20  1  0.93890000  0.63420000  0.34150000  1.0 -0.0754092127
O  O21  1  0.91120000  0.58560000  0.11800000  1.0 -0.1493067639
O  O22  1  0.79270000  0.59740000  0.15850000  1.0 -0.0754092127
O  O23  1  0.53240000  0.91440000  0.82560000  1.0 -0.1493067639
O  O24  1  0.56110000  0.90260000  0.69530000  1.0 -0.0754092127
O  O25  1  0.19960000  0.42850000  0.67470000  1.0 -0.4511794556
O  O26  1  0.20460000  0.38140000  0.77000000  1.0 -0.4595593223
O  O27  1  0.25380000  0.52490000  0.82530000  1.0 -0.4511794556
O  O28  1  0.11140000  0.43460000  0.73000000  1.0 -0.4595593223
O  O29  1  0.24620000  0.07150000  0.27110000  1.0 -0.4511794556
O  O30  1  0.38860000  0.11860000  0.32320000  1.0 -0.4595593223
O  O31  1  0.30040000  0.97510000  0.22890000  1.0 -0.4511794556
O  O32  1  0.29540000  0.06540000  0.17680000  1.0 -0.4595593223
O  O33  1  0.42850000  0.67470000  0.19960000  1.0 -0.4511794556
O  O34  1  0.38140000  0.77000000  0.20460000  1.0 -0.4595593223
O  O35  1  0.52490000  0.82530000  0.25380000  1.0 -0.4511794556
O  O36  1  0.43460000  0.73000000  0.11140000  1.0 -0.4595593223
O  O37  1  0.07150000  0.27110000  0.24620000  1.0 -0.4511794556
O  O38  1  0.11860000  0.32320000  0.38860000  1.0 -0.4595593223
O  O39  1  0.97510000  0.22890000  0.30040000  1.0 -0.4511794556
O  O40  1  0.06540000  0.17680000  0.29540000  1.0 -0.4595593223
O  O41  1  0.67470000  0.19960000  0.42850000  1.0 -0.4511794556
O  O42  1  0.77000000  0.20460000  0.38140000  1.0 -0.4595593223
O  O43  1  0.82530000  0.25380000  0.52490000  1.0 -0.4511794556
O  O44  1  0.73000000  0.11140000  0.43460000  1.0 -0.4595593223
O  O45  1  0.27110000  0.24620000  0.07150000  1.0 -0.4511794556
O  O46  1  0.32320000  0.38860000  0.11860000  1.0 -0.4595593223
O  O47  1  0.22890000  0.30040000  0.97510000  1.0 -0.4511794556
O  O48  1  0.17680000  0.29540000  0.06540000  1.0 -0.4595593223
