# DDEC6 charges by PACMAN v1.1 (https://github.com/mtap-research/PACMAN-charge/)
data_KEPPIF_FSR_pacman
_symmetry_space_group_name_H-M   'P 1'
_cell_length_a   16.80700000
_cell_length_b   16.80700000
_cell_length_c   16.80700000
_cell_angle_alpha   90.00000000
_cell_angle_beta   90.00000000
_cell_angle_gamma   90.00000000
_symmetry_Int_Tables_number   1
_chemical_formula_structural   Zn6C13O28
_chemical_formula_sum   'Zn24 C52 O112'
_cell_volume   4747.56150994
_cell_formula_units_Z   4
loop_
 _symmetry_equiv_pos_site_id
 _symmetry_equiv_pos_as_xyz
  1  'x, y, z'
loop_
 _atom_site_type_symbol
 _atom_site_label
 _atom_site_symmetry_multiplicity
 _atom_site_fract_x
 _atom_site_fract_y
 _atom_site_fract_z
 _atom_site_occupancy
 _atom_site_charge
Zn  Zn1  1  0.82182000  0.32182000  0.17818000  1.0 0.9872358177
Zn  Zn2  1  0.32182000  0.17818000  0.82182000  1.0 0.9872358177
Zn  Zn3  1  0.17818000  0.82182000  0.32182000  1.0 0.9872358177
Zn  Zn4  1  0.67818000  0.67818000  0.67818000  1.0 0.9872358177
Zn  Zn5  1  0.87464000  0.47271000  0.48276000  1.0 0.9837569727
Zn  Zn6  1  0.37464000  0.02729000  0.51724000  1.0 0.9837569727
Zn  Zn7  1  0.12536000  0.97271000  0.01724000  1.0 0.9837569727
Zn  Zn8  1  0.62536000  0.52729000  0.98276000  1.0 0.9837569727
Zn  Zn9  1  0.48276000  0.87464000  0.47271000  1.0 0.9837569727
Zn  Zn10  1  0.98276000  0.62536000  0.52729000  1.0 0.9837569727
Zn  Zn11  1  0.51724000  0.37464000  0.02729000  1.0 0.9837569727
Zn  Zn12  1  0.01724000  0.12536000  0.97271000  1.0 0.9837569727
Zn  Zn13  1  0.47271000  0.48276000  0.87464000  1.0 0.9837569727
Zn  Zn14  1  0.97271000  0.01724000  0.12536000  1.0 0.9837569727
Zn  Zn15  1  0.52729000  0.98276000  0.62536000  1.0 0.9837569727
Zn  Zn16  1  0.02729000  0.51724000  0.37464000  1.0 0.9837569727
Zn  Zn17  1  0.87119000  0.62881000  0.37119000  1.0 1.1870201562
Zn  Zn18  1  0.37119000  0.87119000  0.62881000  1.0 1.1870201562
Zn  Zn19  1  0.12881000  0.12881000  0.12881000  1.0 1.1870201562
Zn  Zn20  1  0.62881000  0.37119000  0.87119000  1.0 1.1870201562
Zn  Zn21  1  0.14750000  0.35250000  0.64750000  1.0 1.1956022117
Zn  Zn22  1  0.64750000  0.14750000  0.35250000  1.0 1.1956022117
Zn  Zn23  1  0.85250000  0.85250000  0.85250000  1.0 1.1956022117
Zn  Zn24  1  0.35250000  0.64750000  0.14750000  1.0 1.1956022117
C  C1  1  0.82080000  0.39100000  0.34130000  1.0 0.581772301
C  C2  1  0.32080000  0.10900000  0.65870000  1.0 0.581772301
C  C3  1  0.17920000  0.89100000  0.15870000  1.0 0.581772301
C  C4  1  0.67920000  0.60900000  0.84130000  1.0 0.581772301
C  C5  1  0.34130000  0.82080000  0.39100000  1.0 0.581772301
C  C6  1  0.84130000  0.67920000  0.60900000  1.0 0.581772301
C  C7  1  0.65870000  0.32080000  0.10900000  1.0 0.581772301
C  C8  1  0.15870000  0.17920000  0.89100000  1.0 0.581772301
C  C9  1  0.39100000  0.34130000  0.82080000  1.0 0.581772301
C  C10  1  0.89100000  0.15870000  0.17920000  1.0 0.581772301
C  C11  1  0.60900000  0.84130000  0.67920000  1.0 0.581772301
C  C12  1  0.10900000  0.65870000  0.32080000  1.0 0.581772301
C  C13  1  0.87600000  0.45730000  0.30210000  1.0 0.1280736435
C  C14  1  0.37600000  0.04270000  0.69790000  1.0 0.1280736435
C  C15  1  0.12400000  0.95730000  0.19790000  1.0 0.1280736435
C  C16  1  0.62400000  0.54270000  0.80210000  1.0 0.1280736435
C  C17  1  0.30210000  0.87600000  0.45730000  1.0 0.1280736435
C  C18  1  0.80210000  0.62400000  0.54270000  1.0 0.1280736435
C  C19  1  0.69790000  0.37600000  0.04270000  1.0 0.1280736435
C  C20  1  0.19790000  0.12400000  0.95730000  1.0 0.1280736435
C  C21  1  0.45730000  0.30210000  0.87600000  1.0 0.1280736435
C  C22  1  0.95730000  0.19790000  0.12400000  1.0 0.1280736435
C  C23  1  0.54270000  0.80210000  0.62400000  1.0 0.1280736435
C  C24  1  0.04270000  0.69790000  0.37600000  1.0 0.1280736435
C  C25  1  0.94670000  0.41400000  0.26230000  1.0 0.5892905925
C  C26  1  0.44670000  0.08600000  0.73770000  1.0 0.5892905925
C  C27  1  0.05330000  0.91400000  0.23770000  1.0 0.5892905925
C  C28  1  0.55330000  0.58600000  0.76230000  1.0 0.5892905925
C  C29  1  0.26230000  0.94670000  0.41400000  1.0 0.5892905925
C  C30  1  0.76230000  0.55330000  0.58600000  1.0 0.5892905925
C  C31  1  0.73770000  0.44670000  0.08600000  1.0 0.5892905925
C  C32  1  0.23770000  0.05330000  0.91400000  1.0 0.5892905925
C  C33  1  0.41400000  0.26230000  0.94670000  1.0 0.5892905925
C  C34  1  0.91400000  0.23770000  0.05330000  1.0 0.5892905925
C  C35  1  0.58600000  0.76230000  0.55330000  1.0 0.5892905925
C  C36  1  0.08600000  0.73770000  0.44670000  1.0 0.5892905925
C  C37  1  0.04240000  0.45760000  0.54240000  1.0 -0.0911947157
C  C38  1  0.54240000  0.04240000  0.45760000  1.0 -0.0911947157
C  C39  1  0.95760000  0.95760000  0.95760000  1.0 -0.0911947157
C  C40  1  0.45760000  0.54240000  0.04240000  1.0 -0.0911947157
C  C41  1  0.99040000  0.38640000  0.57340000  1.0 0.5991398726
C  C42  1  0.49040000  0.11360000  0.42660000  1.0 0.5991398726
C  C43  1  0.00960000  0.88640000  0.92660000  1.0 0.5991398726
C  C44  1  0.50960000  0.61360000  0.07340000  1.0 0.5991398726
C  C45  1  0.57340000  0.99040000  0.38640000  1.0 0.5991398726
C  C46  1  0.07340000  0.50960000  0.61360000  1.0 0.5991398726
C  C47  1  0.42660000  0.49040000  0.11360000  1.0 0.5991398726
C  C48  1  0.92660000  0.00960000  0.88640000  1.0 0.5991398726
C  C49  1  0.38640000  0.57340000  0.99040000  1.0 0.5991398726
C  C50  1  0.88640000  0.92660000  0.00960000  1.0 0.5991398726
C  C51  1  0.61360000  0.07340000  0.50960000  1.0 0.5991398726
C  C52  1  0.11360000  0.42660000  0.49040000  1.0 0.5991398726
O  O1  1  0.78850000  0.34340000  0.29440000  1.0 -0.4489440785
O  O2  1  0.28850000  0.15660000  0.70560000  1.0 -0.4489440785
O  O3  1  0.21150000  0.84340000  0.20560000  1.0 -0.4489440785
O  O4  1  0.71150000  0.65660000  0.79440000  1.0 -0.4489440785
O  O5  1  0.29440000  0.78850000  0.34340000  1.0 -0.4489440785
O  O6  1  0.79440000  0.71150000  0.65660000  1.0 -0.4489440785
O  O7  1  0.70560000  0.28850000  0.15660000  1.0 -0.4489440785
O  O8  1  0.20560000  0.21150000  0.84340000  1.0 -0.4489440785
O  O9  1  0.34340000  0.29440000  0.78850000  1.0 -0.4489440785
O  O10  1  0.84340000  0.20560000  0.21150000  1.0 -0.4489440785
O  O11  1  0.65660000  0.79440000  0.71150000  1.0 -0.4489440785
O  O12  1  0.15660000  0.70560000  0.28850000  1.0 -0.4489440785
O  O13  1  0.90460000  0.50670000  0.36420000  1.0 -0.6085799713
O  O14  1  0.40460000  0.99330000  0.63580000  1.0 -0.6085799713
O  O15  1  0.09540000  0.00670000  0.13580000  1.0 -0.6085799713
O  O16  1  0.59540000  0.49330000  0.86420000  1.0 -0.6085799713
O  O17  1  0.36420000  0.90460000  0.50670000  1.0 -0.6085799713
O  O18  1  0.86420000  0.59540000  0.49330000  1.0 -0.6085799713
O  O19  1  0.63580000  0.40460000  0.99330000  1.0 -0.6085799713
O  O20  1  0.13580000  0.09540000  0.00670000  1.0 -0.6085799713
O  O21  1  0.50670000  0.36420000  0.90460000  1.0 -0.6085799713
O  O22  1  0.00670000  0.13580000  0.09540000  1.0 -0.6085799713
O  O23  1  0.49330000  0.86420000  0.59540000  1.0 -0.6085799713
O  O24  1  0.99330000  0.63580000  0.40460000  1.0 -0.6085799713
O  O25  1  0.81440000  0.39010000  0.41480000  1.0 -0.434933212
O  O26  1  0.31440000  0.10990000  0.58520000  1.0 -0.434933212
O  O27  1  0.18560000  0.89010000  0.08520000  1.0 -0.434933212
O  O28  1  0.68560000  0.60990000  0.91480000  1.0 -0.434933212
O  O29  1  0.41480000  0.81440000  0.39010000  1.0 -0.434933212
O  O30  1  0.91480000  0.68560000  0.60990000  1.0 -0.434933212
O  O31  1  0.58520000  0.31440000  0.10990000  1.0 -0.434933212
O  O32  1  0.08520000  0.18560000  0.89010000  1.0 -0.434933212
O  O33  1  0.39010000  0.41480000  0.81440000  1.0 -0.434933212
O  O34  1  0.89010000  0.08520000  0.18560000  1.0 -0.434933212
O  O35  1  0.60990000  0.91480000  0.68560000  1.0 -0.434933212
O  O36  1  0.10990000  0.58520000  0.31440000  1.0 -0.434933212
O  O37  1  0.01630000  0.43350000  0.28840000  1.0 -0.4612385597
O  O38  1  0.51630000  0.06650000  0.71160000  1.0 -0.4612385597
O  O39  1  0.98370000  0.93350000  0.21160000  1.0 -0.4612385597
O  O40  1  0.48370000  0.56650000  0.78840000  1.0 -0.4612385597
O  O41  1  0.28840000  0.01630000  0.43350000  1.0 -0.4612385597
O  O42  1  0.78840000  0.48370000  0.56650000  1.0 -0.4612385597
O  O43  1  0.71160000  0.51630000  0.06650000  1.0 -0.4612385597
O  O44  1  0.21160000  0.98370000  0.93350000  1.0 -0.4612385597
O  O45  1  0.43350000  0.28840000  0.01630000  1.0 -0.4612385597
O  O46  1  0.93350000  0.21160000  0.98370000  1.0 -0.4612385597
O  O47  1  0.56650000  0.78840000  0.48370000  1.0 -0.4612385597
O  O48  1  0.06650000  0.71160000  0.51630000  1.0 -0.4612385597
O  O49  1  0.99320000  0.50680000  0.49320000  1.0 -0.6085799713
O  O50  1  0.49320000  0.99320000  0.50680000  1.0 -0.6085799713
O  O51  1  0.00680000  0.00680000  0.00680000  1.0 -0.6085799713
O  O52  1  0.50680000  0.49320000  0.99320000  1.0 -0.6085799713
O  O53  1  0.93510000  0.36420000  0.21020000  1.0 -0.4707896676
O  O54  1  0.43510000  0.13580000  0.78980000  1.0 -0.4707896676
O  O55  1  0.06490000  0.86420000  0.28980000  1.0 -0.4707896676
O  O56  1  0.56490000  0.63580000  0.71020000  1.0 -0.4707896676
O  O57  1  0.21020000  0.93510000  0.36420000  1.0 -0.4707896676
O  O58  1  0.71020000  0.56490000  0.63580000  1.0 -0.4707896676
O  O59  1  0.78980000  0.43510000  0.13580000  1.0 -0.4707896676
O  O60  1  0.28980000  0.06490000  0.86420000  1.0 -0.4707896676
O  O61  1  0.36420000  0.21020000  0.93510000  1.0 -0.4707896676
O  O62  1  0.86420000  0.28980000  0.06490000  1.0 -0.4707896676
O  O63  1  0.63580000  0.71020000  0.56490000  1.0 -0.4707896676
O  O64  1  0.13580000  0.78980000  0.43510000  1.0 -0.4707896676
O  O65  1  0.75180000  0.60440000  0.34150000  1.0 -0.4065828737
O  O66  1  0.25180000  0.89560000  0.65850000  1.0 -0.4065828737
O  O67  1  0.24820000  0.10440000  0.15850000  1.0 -0.4065828737
O  O68  1  0.74820000  0.39560000  0.84150000  1.0 -0.4065828737
O  O69  1  0.34150000  0.75180000  0.60440000  1.0 -0.4065828737
O  O70  1  0.84150000  0.74820000  0.39560000  1.0 -0.4065828737
O  O71  1  0.65850000  0.25180000  0.89560000  1.0 -0.4065828737
O  O72  1  0.15850000  0.24820000  0.10440000  1.0 -0.4065828737
O  O73  1  0.60440000  0.34150000  0.75180000  1.0 -0.4065828737
O  O74  1  0.10440000  0.15850000  0.24820000  1.0 -0.4065828737
O  O75  1  0.39560000  0.84150000  0.74820000  1.0 -0.4065828737
O  O76  1  0.89560000  0.65850000  0.25180000  1.0 -0.4065828737
O  O77  1  0.92140000  0.37890000  0.54890000  1.0 -0.4489440785
O  O78  1  0.42140000  0.12110000  0.45110000  1.0 -0.4489440785
O  O79  1  0.07860000  0.87890000  0.95110000  1.0 -0.4489440785
O  O80  1  0.57860000  0.62110000  0.04890000  1.0 -0.4489440785
O  O81  1  0.54890000  0.92140000  0.37890000  1.0 -0.4489440785
O  O82  1  0.04890000  0.57860000  0.62110000  1.0 -0.4489440785
O  O83  1  0.45110000  0.42140000  0.12110000  1.0 -0.4489440785
O  O84  1  0.95110000  0.07860000  0.87890000  1.0 -0.4489440785
O  O85  1  0.37890000  0.54890000  0.92140000  1.0 -0.4489440785
O  O86  1  0.87890000  0.95110000  0.07860000  1.0 -0.4489440785
O  O87  1  0.62110000  0.04890000  0.57860000  1.0 -0.4489440785
O  O88  1  0.12110000  0.45110000  0.42140000  1.0 -0.4489440785
O  O89  1  0.02600000  0.33460000  0.61680000  1.0 -0.5472833779
O  O90  1  0.52600000  0.16540000  0.38320000  1.0 -0.5472833779
O  O91  1  0.97400000  0.83460000  0.88320000  1.0 -0.5472833779
O  O92  1  0.47400000  0.66540000  0.11680000  1.0 -0.5472833779
O  O93  1  0.61680000  0.02600000  0.33460000  1.0 -0.5472833779
O  O94  1  0.11680000  0.47400000  0.66540000  1.0 -0.5472833779
O  O95  1  0.38320000  0.52600000  0.16540000  1.0 -0.5472833779
O  O96  1  0.88320000  0.97400000  0.83460000  1.0 -0.5472833779
O  O97  1  0.33460000  0.61680000  0.02600000  1.0 -0.5472833779
O  O98  1  0.83460000  0.88320000  0.97400000  1.0 -0.5472833779
O  O99  1  0.66540000  0.11680000  0.47400000  1.0 -0.5472833779
O  O100  1  0.16540000  0.38320000  0.52600000  1.0 -0.5472833779
O  O101  1  0.12720000  0.33100000  0.76870000  1.0 0.0541818288
O  O102  1  0.62720000  0.16900000  0.23130000  1.0 0.056708489
O  O103  1  0.87280000  0.83100000  0.73130000  1.0 0.056708489
O  O104  1  0.37280000  0.66900000  0.26870000  1.0 0.0541818288
O  O105  1  0.76870000  0.12720000  0.33100000  1.0 0.056708489
O  O106  1  0.26870000  0.37280000  0.66900000  1.0 0.0541818288
O  O107  1  0.23130000  0.62720000  0.16900000  1.0 0.0541818288
O  O108  1  0.73130000  0.87280000  0.83100000  1.0 0.0541818288
O  O109  1  0.33100000  0.76870000  0.12720000  1.0 0.056708489
O  O110  1  0.83100000  0.73130000  0.87280000  1.0 0.0541818288
O  O111  1  0.66900000  0.26870000  0.37280000  1.0 0.056708489
O  O112  1  0.16900000  0.23130000  0.62720000  1.0 0.0541818288
