# DDEC6 charges by PACMAN v1.1 (https://github.com/mtap-research/PACMAN-charge/)
data_KEQDER_ASR_pacman
_symmetry_space_group_name_H-M   'P 1'
_cell_length_a   26.75380000
_cell_length_b   26.75380000
_cell_length_c   26.75380000
_cell_angle_alpha   138.94000000
_cell_angle_beta   138.94000000
_cell_angle_gamma   59.46640000
_symmetry_Int_Tables_number   1
_chemical_formula_structural   Zn2H14C33O8
_chemical_formula_sum   'Zn8 H56 C132 O32'
_cell_volume   8180.39704132
_cell_formula_units_Z   4
loop_
 _symmetry_equiv_pos_site_id
 _symmetry_equiv_pos_as_xyz
  1  'x, y, z'
loop_
 _atom_site_type_symbol
 _atom_site_label
 _atom_site_symmetry_multiplicity
 _atom_site_fract_x
 _atom_site_fract_y
 _atom_site_fract_z
 _atom_site_occupancy
 _atom_site_charge
Zn  Zn1  1  0.51308000  0.51308000  0.57494000  1.0 0.9579700154
Zn  Zn2  1  0.51308000  0.93814000  0.00000000  1.0 0.9579700154
Zn  Zn3  1  0.93814000  0.51308000  0.00000000  1.0 0.9579700154
Zn  Zn4  1  0.06186000  0.06186000  0.57494000  1.0 0.9579700154
Zn  Zn5  1  0.93814000  0.93814000  0.42506000  1.0 0.9579700154
Zn  Zn6  1  0.06186000  0.48692000  0.00000000  1.0 0.9579700154
Zn  Zn7  1  0.48692000  0.06186000  0.00000000  1.0 0.9579700154
Zn  Zn8  1  0.48692000  0.48692000  0.42506000  1.0 0.9579700154
H  H1  1  0.72460000  0.53470000  0.59690000  1.0 0.1320462307
H  H2  1  0.53470000  0.93780000  0.81010000  1.0 0.1320462307
H  H3  1  0.12770000  0.72460000  0.18990000  1.0 0.1320462307
H  H4  1  0.87230000  0.06220000  0.59690000  1.0 0.1320462307
H  H5  1  0.93780000  0.12770000  0.40310000  1.0 0.1320462307
H  H6  1  0.06220000  0.46530000  0.18990000  1.0 0.1320462307
H  H7  1  0.27540000  0.87230000  0.81010000  1.0 0.1320462307
H  H8  1  0.46530000  0.27540000  0.40310000  1.0 0.1320462307
H  H9  1  0.27540000  0.46530000  0.40310000  1.0 0.1320462307
H  H10  1  0.46530000  0.06220000  0.18990000  1.0 0.1320462307
H  H11  1  0.87230000  0.27540000  0.81010000  1.0 0.1320462307
H  H12  1  0.12770000  0.93780000  0.40310000  1.0 0.1320462307
H  H13  1  0.06220000  0.87230000  0.59690000  1.0 0.1320462307
H  H14  1  0.93780000  0.53470000  0.81010000  1.0 0.1320462307
H  H15  1  0.72460000  0.12770000  0.18990000  1.0 0.1320462307
H  H16  1  0.53470000  0.72460000  0.59690000  1.0 0.1320462307
H  H17  1  0.75900000  0.51470000  0.75570000  1.0 0.1351853829
H  H18  1  0.51470000  0.75900000  0.75570000  1.0 0.1351853829
H  H19  1  0.00330000  0.75900000  0.24430000  1.0 0.1351853829
H  H20  1  0.99670000  0.24100000  0.75570000  1.0 0.1351853829
H  H21  1  0.75900000  0.00330000  0.24430000  1.0 0.1351853829
H  H22  1  0.24100000  0.48530000  0.24430000  1.0 0.1351853829
H  H23  1  0.24100000  0.99670000  0.75570000  1.0 0.1351853829
H  H24  1  0.48530000  0.24100000  0.24430000  1.0 0.1351853829
H  H25  1  0.81910000  0.55480000  0.52930000  1.0 0.1320462307
H  H26  1  0.55480000  0.02550000  0.73570000  1.0 0.1320462307
H  H27  1  0.28980000  0.81910000  0.26430000  1.0 0.1320462307
H  H28  1  0.71020000  0.97450000  0.52930000  1.0 0.1320462307
H  H29  1  0.02550000  0.28980000  0.47070000  1.0 0.1320462307
H  H30  1  0.97450000  0.44520000  0.26430000  1.0 0.1320462307
H  H31  1  0.18090000  0.71020000  0.73570000  1.0 0.1320462307
H  H32  1  0.44520000  0.18090000  0.47070000  1.0 0.1320462307
H  H33  1  0.18090000  0.44520000  0.47070000  1.0 0.1320462307
H  H34  1  0.44520000  0.97450000  0.26430000  1.0 0.1320462307
H  H35  1  0.71020000  0.18090000  0.73570000  1.0 0.1320462307
H  H36  1  0.28980000  0.02550000  0.47070000  1.0 0.1320462307
H  H37  1  0.97450000  0.71020000  0.52930000  1.0 0.1320462307
H  H38  1  0.02550000  0.55480000  0.73570000  1.0 0.1320462307
H  H39  1  0.81910000  0.28980000  0.26430000  1.0 0.1320462307
H  H40  1  0.55480000  0.81910000  0.52930000  1.0 0.1320462307
H  H41  1  0.86670000  0.55650000  0.48520000  1.0 0.1206897476
H  H42  1  0.55650000  0.07130000  0.68980000  1.0 0.1206897476
H  H43  1  0.38150000  0.86670000  0.31020000  1.0 0.1206897476
H  H44  1  0.61850000  0.92870000  0.48520000  1.0 0.1206897476
H  H45  1  0.07130000  0.38150000  0.51480000  1.0 0.1206897476
H  H46  1  0.92870000  0.44350000  0.31020000  1.0 0.1206897476
H  H47  1  0.13330000  0.61850000  0.68980000  1.0 0.1206897476
H  H48  1  0.44350000  0.13330000  0.51480000  1.0 0.1206897476
H  H49  1  0.13330000  0.44350000  0.51480000  1.0 0.1206897476
H  H50  1  0.44350000  0.92870000  0.31020000  1.0 0.1206897476
H  H51  1  0.61850000  0.13330000  0.68980000  1.0 0.1206897476
H  H52  1  0.38150000  0.07130000  0.51480000  1.0 0.1206897476
H  H53  1  0.92870000  0.61850000  0.48520000  1.0 0.1206897476
H  H54  1  0.07130000  0.55650000  0.68980000  1.0 0.1206897476
H  H55  1  0.86670000  0.38150000  0.31020000  1.0 0.1206897476
H  H56  1  0.55650000  0.86670000  0.48520000  1.0 0.1206897476
C  C1  1  0.83478000  0.53608000  0.70130000  1.0 0.1111015898
C  C2  1  0.53608000  0.83478000  0.70130000  1.0 0.1111015898
C  C3  1  0.13348000  0.83478000  0.29870000  1.0 0.1111015898
C  C4  1  0.86652000  0.16522000  0.70130000  1.0 0.1111015898
C  C5  1  0.83478000  0.13348000  0.29870000  1.0 0.1111015898
C  C6  1  0.16522000  0.46392000  0.29870000  1.0 0.1111015898
C  C7  1  0.16522000  0.86652000  0.70130000  1.0 0.1111015898
C  C8  1  0.46392000  0.16522000  0.29870000  1.0 0.1111015898
C  C9  1  0.75762000  0.53092000  0.64670000  1.0 -0.1127039412
C  C10  1  0.53092000  0.88422000  0.77330000  1.0 -0.1127039412
C  C11  1  0.11092000  0.75762000  0.22670000  1.0 -0.1127039412
C  C12  1  0.88908000  0.11578000  0.64670000  1.0 -0.1127039412
C  C13  1  0.88422000  0.11092000  0.35330000  1.0 -0.1127039412
C  C14  1  0.11578000  0.46908000  0.22670000  1.0 -0.1127039412
C  C15  1  0.24238000  0.88908000  0.77330000  1.0 -0.1127039412
C  C16  1  0.46908000  0.24238000  0.35330000  1.0 -0.1127039412
C  C17  1  0.24238000  0.46908000  0.35330000  1.0 -0.1127039412
C  C18  1  0.46908000  0.11578000  0.22670000  1.0 -0.1127039412
C  C19  1  0.88908000  0.24238000  0.77330000  1.0 -0.1127039412
C  C20  1  0.11092000  0.88422000  0.35330000  1.0 -0.1127039412
C  C21  1  0.11578000  0.88908000  0.64670000  1.0 -0.1127039412
C  C22  1  0.88422000  0.53092000  0.77330000  1.0 -0.1127039412
C  C23  1  0.75762000  0.11092000  0.22670000  1.0 -0.1127039412
C  C24  1  0.53092000  0.75762000  0.64670000  1.0 -0.1127039412
C  C25  1  0.72615000  0.52005000  0.66250000  1.0 -0.0542205128
C  C26  1  0.52005000  0.85755000  0.79390000  1.0 -0.055227941
C  C27  1  0.06365000  0.72615000  0.20610000  1.0 -0.055227941
C  C28  1  0.93635000  0.14245000  0.66250000  1.0 -0.0542205128
C  C29  1  0.85755000  0.06365000  0.33750000  1.0 -0.0542205128
C  C30  1  0.14245000  0.47995000  0.20610000  1.0 -0.055227941
C  C31  1  0.27385000  0.93635000  0.79390000  1.0 -0.055227941
C  C32  1  0.47995000  0.27385000  0.33750000  1.0 -0.055227941
C  C33  1  0.27385000  0.47995000  0.33750000  1.0 -0.055227941
C  C34  1  0.47995000  0.14245000  0.20610000  1.0 -0.055227941
C  C35  1  0.93635000  0.27385000  0.79390000  1.0 -0.0542205128
C  C36  1  0.06365000  0.85755000  0.33750000  1.0 -0.055227941
C  C37  1  0.14245000  0.93635000  0.66250000  1.0 -0.055227941
C  C38  1  0.85755000  0.52005000  0.79390000  1.0 -0.0542205128
C  C39  1  0.72615000  0.06365000  0.20610000  1.0 -0.055227941
C  C40  1  0.52005000  0.72615000  0.66250000  1.0 -0.055227941
C  C41  1  0.77841000  0.51791000  0.73950000  1.0 -0.0651473257
C  C42  1  0.51791000  0.77841000  0.73950000  1.0 -0.0651473257
C  C43  1  0.03891000  0.77841000  0.26050000  1.0 -0.0651473257
C  C44  1  0.96109000  0.22159000  0.73950000  1.0 -0.0651473257
C  C45  1  0.77841000  0.03891000  0.26050000  1.0 -0.0651473257
C  C46  1  0.22159000  0.48209000  0.26050000  1.0 -0.0651473257
C  C47  1  0.22159000  0.96109000  0.73950000  1.0 -0.0651473257
C  C48  1  0.48209000  0.22159000  0.26050000  1.0 -0.0651473257
C  C49  1  0.88975000  0.55965000  0.66990000  1.0 -0.0843485703
C  C50  1  0.55965000  0.88975000  0.66990000  1.0 -0.0857493359
C  C51  1  0.21985000  0.88975000  0.33010000  1.0 -0.0843485703
C  C52  1  0.78015000  0.11025000  0.66990000  1.0 -0.0843485703
C  C53  1  0.88975000  0.21985000  0.33010000  1.0 -0.0843485703
C  C54  1  0.11025000  0.44035000  0.33010000  1.0 -0.0843485703
C  C55  1  0.11025000  0.78015000  0.66990000  1.0 -0.0843485703
C  C56  1  0.44035000  0.11025000  0.33010000  1.0 -0.0843485703
C  C57  1  0.86412000  0.54672000  0.68260000  1.0 -0.0951413217
C  C58  1  0.54672000  0.86412000  0.68260000  1.0 -0.0951413217
C  C59  1  0.18152000  0.86412000  0.31740000  1.0 -0.0951413217
C  C60  1  0.81848000  0.13588000  0.68260000  1.0 -0.0951413217
C  C61  1  0.86412000  0.18152000  0.31740000  1.0 -0.0951413217
C  C62  1  0.13588000  0.45328000  0.31740000  1.0 -0.0951413217
C  C63  1  0.13588000  0.81848000  0.68260000  1.0 -0.0951413217
C  C64  1  0.45328000  0.13588000  0.31740000  1.0 -0.0951413217
C  C65  1  0.92008000  0.56878000  0.64870000  1.0 0.1206897476
C  C66  1  0.56878000  0.92008000  0.64870000  1.0 0.1206897476
C  C67  1  0.27138000  0.92008000  0.35130000  1.0 0.1206897476
C  C68  1  0.72862000  0.07992000  0.64870000  1.0 0.1206897476
C  C69  1  0.92008000  0.27138000  0.35130000  1.0 0.1206897476
C  C70  1  0.07992000  0.43122000  0.35130000  1.0 0.1206897476
C  C71  1  0.07992000  0.72862000  0.64870000  1.0 0.1206897476
C  C72  1  0.43122000  0.07992000  0.35130000  1.0 0.1206897476
C  C73  1  0.97303000  0.55833000  0.58530000  1.0 0.0789428536
C  C74  1  0.55833000  0.97303000  0.58530000  1.0 0.0789428536
C  C75  1  0.38773000  0.97303000  0.41470000  1.0 0.0789428536
C  C76  1  0.61227000  0.02697000  0.58530000  1.0 0.0789428536
C  C77  1  0.97303000  0.38773000  0.41470000  1.0 0.0789428536
C  C78  1  0.02697000  0.44167000  0.41470000  1.0 0.0789428536
C  C79  1  0.02697000  0.61227000  0.58530000  1.0 0.0789428536
C  C80  1  0.44167000  0.02697000  0.41470000  1.0 0.0789428536
C  C81  1  0.87300000  0.56000000  0.56840000  1.0 -0.1489609725
C  C82  1  0.56000000  0.99160000  0.68700000  1.0 -0.1489609725
C  C83  1  0.30460000  0.87300000  0.31300000  1.0 -0.1489609725
C  C84  1  0.69540000  0.00840000  0.56840000  1.0 -0.1489609725
C  C85  1  0.99160000  0.30460000  0.43160000  1.0 -0.1489609725
C  C86  1  0.00840000  0.44000000  0.31300000  1.0 -0.1489609725
C  C87  1  0.12700000  0.69540000  0.68700000  1.0 -0.1489609725
C  C88  1  0.44000000  0.12700000  0.43160000  1.0 -0.1489609725
C  C89  1  0.12700000  0.44000000  0.43160000  1.0 -0.1489609725
C  C90  1  0.44000000  0.00840000  0.31300000  1.0 -0.1489609725
C  C91  1  0.69540000  0.12700000  0.68700000  1.0 -0.1489609725
C  C92  1  0.30460000  0.99160000  0.43160000  1.0 -0.1489609725
C  C93  1  0.00840000  0.69540000  0.56840000  1.0 -0.1489609725
C  C94  1  0.99160000  0.56000000  0.68700000  1.0 -0.1489609725
C  C95  1  0.87300000  0.30460000  0.31300000  1.0 -0.1489609725
C  C96  1  0.56000000  0.87300000  0.56840000  1.0 -0.1489609725
C  C97  1  0.90143000  0.55813000  0.53990000  1.0 -0.1489609725
C  C98  1  0.55813000  0.01823000  0.65670000  1.0 -0.1489609725
C  C99  1  0.36153000  0.90143000  0.34330000  1.0 -0.1489609725
C  C100  1  0.63847000  0.98177000  0.53990000  1.0 -0.1489609725
C  C101  1  0.01823000  0.36153000  0.46010000  1.0 -0.1489609725
C  C102  1  0.98177000  0.44187000  0.34330000  1.0 -0.1489609725
C  C103  1  0.09857000  0.63847000  0.65670000  1.0 -0.1489609725
C  C104  1  0.44187000  0.09857000  0.46010000  1.0 -0.1489609725
C  C105  1  0.09857000  0.44187000  0.46010000  1.0 -0.1489609725
C  C106  1  0.44187000  0.98177000  0.34330000  1.0 -0.1489609725
C  C107  1  0.63847000  0.09857000  0.65670000  1.0 -0.1489609725
C  C108  1  0.36153000  0.01823000  0.46010000  1.0 -0.1489609725
C  C109  1  0.98177000  0.63847000  0.53990000  1.0 -0.1489609725
C  C110  1  0.01823000  0.55813000  0.65670000  1.0 -0.1489609725
C  C111  1  0.90143000  0.36153000  0.34330000  1.0 -0.1489609725
C  C112  1  0.55813000  0.90143000  0.53990000  1.0 -0.1489609725
C  C113  1  0.00000000  0.53470000  0.53470000  1.0 -0.0367571528
C  C114  1  0.53470000  0.00000000  0.53470000  1.0 -0.0367571528
C  C115  1  0.46530000  0.00000000  0.46530000  1.0 -0.0367571528
C  C116  1  0.00000000  0.46530000  0.46530000  1.0 -0.0367571528
C  C117  1  0.64283000  0.51073000  0.59990000  1.0 0.5947706957
C  C118  1  0.51073000  0.91083000  0.86790000  1.0 0.5947706957
C  C119  1  0.04293000  0.64283000  0.13210000  1.0 0.5947706957
C  C120  1  0.95707000  0.08917000  0.59990000  1.0 0.5947706957
C  C121  1  0.91083000  0.04293000  0.40010000  1.0 0.5947706957
C  C122  1  0.08917000  0.48927000  0.13210000  1.0 0.5947706957
C  C123  1  0.35717000  0.95707000  0.86790000  1.0 0.5947706957
C  C124  1  0.48927000  0.35717000  0.40010000  1.0 0.5947706957
C  C125  1  0.35717000  0.48927000  0.40010000  1.0 0.5947706957
C  C126  1  0.48927000  0.08917000  0.13210000  1.0 0.5947706957
C  C127  1  0.95707000  0.35717000  0.86790000  1.0 0.5947706957
C  C128  1  0.04293000  0.91083000  0.40010000  1.0 0.5947706957
C  C129  1  0.08917000  0.95707000  0.59990000  1.0 0.5947706957
C  C130  1  0.91083000  0.51073000  0.86790000  1.0 0.5947706957
C  C131  1  0.64283000  0.04293000  0.13210000  1.0 0.5947706957
C  C132  1  0.51073000  0.64283000  0.59990000  1.0 0.5947706957
O  O1  1  0.62007000  0.51376000  0.63171000  1.0 -0.5631997588
O  O2  1  0.51376000  0.88205000  0.89369000  1.0 -0.5631997588
O  O3  1  0.98836000  0.62007000  0.10631000  1.0 -0.5631997588
O  O4  1  0.01164000  0.11795000  0.63171000  1.0 -0.5631997588
O  O5  1  0.88205000  0.98836000  0.36829000  1.0 -0.5631997588
O  O6  1  0.11795000  0.48624000  0.10631000  1.0 -0.5631997588
O  O7  1  0.37993000  0.01164000  0.89369000  1.0 -0.5631997588
O  O8  1  0.48624000  0.37993000  0.36829000  1.0 -0.5631997588
O  O9  1  0.37993000  0.48624000  0.36829000  1.0 -0.5631997588
O  O10  1  0.48624000  0.11795000  0.10631000  1.0 -0.5631997588
O  O11  1  0.01164000  0.37993000  0.89369000  1.0 -0.5631997588
O  O12  1  0.98836000  0.88205000  0.36829000  1.0 -0.5631997588
O  O13  1  0.11795000  0.01164000  0.63171000  1.0 -0.5631997588
O  O14  1  0.88205000  0.51376000  0.89369000  1.0 -0.5631997588
O  O15  1  0.62007000  0.98836000  0.10631000  1.0 -0.5631997588
O  O16  1  0.51376000  0.62007000  0.63171000  1.0 -0.5631997588
O  O17  1  0.60004000  0.49774000  0.52030000  1.0 -0.5211634899
O  O18  1  0.49774000  0.97744000  0.89770000  1.0 -0.5211634899
O  O19  1  0.07974000  0.60004000  0.10230000  1.0 -0.5211634899
O  O20  1  0.92026000  0.02256000  0.52030000  1.0 -0.5211634899
O  O21  1  0.97744000  0.07974000  0.47970000  1.0 -0.5211634899
O  O22  1  0.02256000  0.50226000  0.10230000  1.0 -0.5211634899
O  O23  1  0.39996000  0.92026000  0.89770000  1.0 -0.5211634899
O  O24  1  0.50226000  0.39996000  0.47970000  1.0 -0.5211634899
O  O25  1  0.39996000  0.50226000  0.47970000  1.0 -0.5211634899
O  O26  1  0.50226000  0.02256000  0.10230000  1.0 -0.5211634899
O  O27  1  0.92026000  0.39996000  0.89770000  1.0 -0.5211634899
O  O28  1  0.07974000  0.97744000  0.47970000  1.0 -0.5211634899
O  O29  1  0.02256000  0.92026000  0.52030000  1.0 -0.5211634899
O  O30  1  0.97744000  0.49774000  0.89770000  1.0 -0.5211634899
O  O31  1  0.60004000  0.07974000  0.10230000  1.0 -0.5211634899
O  O32  1  0.49774000  0.60004000  0.52030000  1.0 -0.5211634899
