# DDEC6 charges by PACMAN v1.1 (https://github.com/mtap-research/PACMAN-charge/)
data_KERKEB_ASR_pacman
_symmetry_space_group_name_H-M   'P 1'
_cell_length_a   17.76870000
_cell_length_b   27.51680000
_cell_length_c   19.62070000
_cell_angle_alpha   90.00000000
_cell_angle_beta   91.68600000
_cell_angle_gamma   90.00000000
_symmetry_Int_Tables_number   1
_chemical_formula_structural   Cd3H40C64(N4O3)3
_chemical_formula_sum   'Cd12 H160 C256 N48 O36'
_cell_volume   9589.14804877
_cell_formula_units_Z   4
loop_
 _symmetry_equiv_pos_site_id
 _symmetry_equiv_pos_as_xyz
  1  'x, y, z'
loop_
 _atom_site_type_symbol
 _atom_site_label
 _atom_site_symmetry_multiplicity
 _atom_site_fract_x
 _atom_site_fract_y
 _atom_site_fract_z
 _atom_site_occupancy
 _atom_site_charge
Cd  Cd1  1  0.09707000  0.29920000  0.58120000  1.0 0.8545084404
Cd  Cd2  1  0.16063000  0.20458000  0.43226000  1.0 0.8421128797
Cd  Cd3  1  0.75145000  0.53114000  0.08045000  1.0 0.7025715517
Cd  Cd4  1  0.40293000  0.79920000  0.41880000  1.0 0.8545084404
Cd  Cd5  1  0.33937000  0.70458000  0.56774000  1.0 0.8421128797
Cd  Cd6  1  0.74855000  0.03114000  0.91955000  1.0 0.7025715517
Cd  Cd7  1  0.90293000  0.70080000  0.41880000  1.0 0.8554689096
Cd  Cd8  1  0.83937000  0.79542000  0.56774000  1.0 0.8421128797
Cd  Cd9  1  0.24855000  0.46886000  0.91955000  1.0 0.7025715517
Cd  Cd10  1  0.59707000  0.20080000  0.58120000  1.0 0.8545084404
Cd  Cd11  1  0.66063000  0.29542000  0.43226000  1.0 0.8421128797
Cd  Cd12  1  0.25145000  0.96886000  0.08045000  1.0 0.7025715517
H  H1  1  0.48500000  0.59870000  0.13950000  1.0 0.1290370525
H  H2  1  0.48570000  0.59760000  0.01290000  1.0 0.1204844186
H  H3  1  0.65400000  0.50830000  0.82630000  1.0 0.1204844186
H  H4  1  0.77570000  0.46590000  0.83070000  1.0 0.1204844186
H  H5  1  0.96490000  0.40460000  0.03400000  1.0 0.1290370525
H  H6  1  0.97250000  0.41270000  0.15720000  1.0 0.1290370525
H  H7  1  0.80100000  0.49990000  0.34270000  1.0 0.1204844186
H  H8  1  0.67730000  0.53980000  0.33810000  1.0 0.1204844186
H  H9  1  0.61470000  0.63260000  0.29320000  1.0 0.1290370525
H  H10  1  0.52930000  0.64810000  0.37830000  1.0 0.1290370525
H  H11  1  0.40540000  0.53160000  0.32410000  1.0 0.1204844186
H  H12  1  0.48710000  0.51540000  0.23500000  1.0 0.111392137
H  H13  1  0.36190000  0.53460000  0.43810000  1.0 0.1204844186
H  H14  1  0.29610000  0.58320000  0.52900000  1.0 0.1204844186
H  H15  1  0.43350000  0.67300000  0.43660000  1.0 0.1204844186
H  H16  1  0.46660000  0.52220000  0.92700000  1.0 0.1204844186
H  H17  1  0.37880000  0.55330000  0.84840000  1.0 0.1290370525
H  H18  1  0.54130000  0.63370000  0.76660000  1.0 0.1290370525
H  H19  1  0.62610000  0.60510000  0.85040000  1.0 0.1204844186
H  H20  1  0.30020000  0.57460000  0.76300000  1.0 0.1290370525
H  H21  1  0.24370000  0.62910000  0.67460000  1.0 0.1204844186
H  H22  1  0.45580000  0.66180000  0.69640000  1.0 0.1290370525
H  H23  1  0.83230000  0.37670000  0.88300000  1.0 0.1204844186
H  H24  1  0.91460000  0.34450000  0.80710000  1.0 0.1290370525
H  H25  1  0.06560000  0.44750000  0.85710000  1.0 0.1204844186
H  H26  1  0.98200000  0.48260000  0.92790000  1.0 0.1204844186
H  H27  1  0.15640000  0.39170000  0.81370000  1.0 0.1290370525
H  H28  1  0.20200000  0.35240000  0.71290000  1.0 0.1290370525
H  H29  1  0.98340000  0.34200000  0.70130000  1.0 0.1204844186
H  H30  1  0.87360000  0.38850000  0.27370000  1.0 0.1204844186
H  H31  1  0.94970000  0.36460000  0.36720000  1.0 0.1290370525
H  H32  1  0.03930000  0.49990000  0.37810000  1.0 0.1204844186
H  H33  1  0.96320000  0.52380000  0.28470000  1.0 0.111392137
H  H34  1  0.09200000  0.48070000  0.48340000  1.0 0.1290370525
H  H35  1  0.15570000  0.42550000  0.57110000  1.0 0.1290370525
H  H36  1  0.02580000  0.34060000  0.44220000  1.0 0.1204844186
H  H37  1  0.31960000  0.21020000  0.55560000  1.0 0.151311333
H  H38  1  0.37570000  0.28670000  0.63130000  1.0 0.1290370525
H  H39  1  0.93480000  0.29440000  0.45500000  1.0 0.1290370525
H  H40  1  0.88590000  0.22480000  0.36190000  1.0 0.1290370525
H  H41  1  0.01500000  0.09870000  0.86050000  1.0 0.1290370525
H  H42  1  0.01430000  0.09760000  0.98710000  1.0 0.1204844186
H  H43  1  0.84600000  0.00830000  0.17370000  1.0 0.1204844186
H  H44  1  0.72430000  0.96590000  0.16930000  1.0 0.1204844186
H  H45  1  0.53510000  0.90460000  0.96600000  1.0 0.1290370525
H  H46  1  0.52750000  0.91270000  0.84280000  1.0 0.1290370525
H  H47  1  0.69900000  0.99990000  0.65730000  1.0 0.1204844186
H  H48  1  0.82270000  0.03980000  0.66190000  1.0 0.1204844186
H  H49  1  0.88530000  0.13260000  0.70680000  1.0 0.1204844186
H  H50  1  0.97070000  0.14810000  0.62170000  1.0 0.1290370525
H  H51  1  0.09460000  0.03160000  0.67590000  1.0 0.1204844186
H  H52  1  0.01290000  0.01540000  0.76500000  1.0 0.111392137
H  H53  1  0.13810000  0.03460000  0.56190000  1.0 0.1204844186
H  H54  1  0.20390000  0.08320000  0.47100000  1.0 0.1204844186
H  H55  1  0.06650000  0.17300000  0.56340000  1.0 0.1204844186
H  H56  1  0.03340000  0.02220000  0.07300000  1.0 0.1204844186
H  H57  1  0.12120000  0.05330000  0.15160000  1.0 0.1290370525
H  H58  1  0.95870000  0.13370000  0.23340000  1.0 0.1290370525
H  H59  1  0.87390000  0.10510000  0.14960000  1.0 0.1204844186
H  H60  1  0.19980000  0.07460000  0.23700000  1.0 0.1290370525
H  H61  1  0.25630000  0.12910000  0.32540000  1.0 0.1204844186
H  H62  1  0.04420000  0.16180000  0.30360000  1.0 0.1290370525
H  H63  1  0.66770000  0.87670000  0.11700000  1.0 0.1204844186
H  H64  1  0.58540000  0.84450000  0.19290000  1.0 0.1290370525
H  H65  1  0.43440000  0.94750000  0.14290000  1.0 0.1204844186
H  H66  1  0.51800000  0.98260000  0.07210000  1.0 0.1204844186
H  H67  1  0.34360000  0.89170000  0.18630000  1.0 0.1290370525
H  H68  1  0.29800000  0.85240000  0.28710000  1.0 0.1405342392
H  H69  1  0.51660000  0.84200000  0.29870000  1.0 0.1204844186
H  H70  1  0.62640000  0.88850000  0.72630000  1.0 0.1204844186
H  H71  1  0.55030000  0.86460000  0.63280000  1.0 0.1290370525
H  H72  1  0.46070000  0.99990000  0.62190000  1.0 0.1204844186
H  H73  1  0.53680000  0.02380000  0.71530000  1.0 0.111392137
H  H74  1  0.40800000  0.98070000  0.51660000  1.0 0.1290370525
H  H75  1  0.34430000  0.92550000  0.42890000  1.0 0.1290370525
H  H76  1  0.47420000  0.84060000  0.55780000  1.0 0.1204844186
H  H77  1  0.18040000  0.71020000  0.44440000  1.0 0.1405342392
H  H78  1  0.12430000  0.78670000  0.36870000  1.0 0.1290370525
H  H79  1  0.56520000  0.79440000  0.54500000  1.0 0.1290370525
H  H80  1  0.61410000  0.72480000  0.63810000  1.0 0.1290370525
H  H81  1  0.51500000  0.40130000  0.86050000  1.0 0.1290370525
H  H82  1  0.51430000  0.40240000  0.98710000  1.0 0.1204844186
H  H83  1  0.34600000  0.49170000  0.17370000  1.0 0.1290370525
H  H84  1  0.22430000  0.53410000  0.16930000  1.0 0.1204844186
H  H85  1  0.03510000  0.59540000  0.96600000  1.0 0.1290370525
H  H86  1  0.02750000  0.58730000  0.84280000  1.0 0.1290370525
H  H87  1  0.19900000  0.50010000  0.65730000  1.0 0.1204844186
H  H88  1  0.32270000  0.46020000  0.66190000  1.0 0.1204844186
H  H89  1  0.38530000  0.36740000  0.70680000  1.0 0.1290370525
H  H90  1  0.47070000  0.35190000  0.62170000  1.0 0.1290370525
H  H91  1  0.59460000  0.46840000  0.67590000  1.0 0.1204844186
H  H92  1  0.51290000  0.48460000  0.76500000  1.0 0.111392137
H  H93  1  0.63810000  0.46540000  0.56190000  1.0 0.1204844186
H  H94  1  0.70390000  0.41680000  0.47100000  1.0 0.1204844186
H  H95  1  0.56650000  0.32700000  0.56340000  1.0 0.1204844186
H  H96  1  0.53340000  0.47780000  0.07300000  1.0 0.1204844186
H  H97  1  0.62120000  0.44670000  0.15160000  1.0 0.1290370525
H  H98  1  0.45870000  0.36630000  0.23340000  1.0 0.1290370525
H  H99  1  0.37390000  0.39490000  0.14960000  1.0 0.1204844186
H  H100  1  0.69980000  0.42540000  0.23700000  1.0 0.1290370525
H  H101  1  0.75630000  0.37090000  0.32540000  1.0 0.1204844186
H  H102  1  0.54420000  0.33820000  0.30360000  1.0 0.1290370525
H  H103  1  0.16770000  0.62330000  0.11700000  1.0 0.1204844186
H  H104  1  0.08540000  0.65550000  0.19290000  1.0 0.1290370525
H  H105  1  0.93440000  0.55250000  0.14290000  1.0 0.1204844186
H  H106  1  0.01800000  0.51740000  0.07210000  1.0 0.1204844186
H  H107  1  0.84360000  0.60830000  0.18630000  1.0 0.1290370525
H  H108  1  0.79800000  0.64760000  0.28710000  1.0 0.1405342392
H  H109  1  0.01660000  0.65800000  0.29870000  1.0 0.1204844186
H  H110  1  0.12640000  0.61150000  0.72630000  1.0 0.1204844186
H  H111  1  0.05030000  0.63540000  0.63280000  1.0 0.1290370525
H  H112  1  0.96070000  0.50010000  0.62190000  1.0 0.1204844186
H  H113  1  0.03680000  0.47620000  0.71530000  1.0 0.111392137
H  H114  1  0.90800000  0.51930000  0.51660000  1.0 0.1290370525
H  H115  1  0.84430000  0.57450000  0.42890000  1.0 0.1290370525
H  H116  1  0.97420000  0.65940000  0.55780000  1.0 0.1204844186
H  H117  1  0.68040000  0.78980000  0.44440000  1.0 0.151311333
H  H118  1  0.62430000  0.71330000  0.36870000  1.0 0.1290370525
H  H119  1  0.06520000  0.70560000  0.54500000  1.0 0.1290370525
H  H120  1  0.11410000  0.77520000  0.63810000  1.0 0.1290370525
H  H121  1  0.98500000  0.90130000  0.13950000  1.0 0.1290370525
H  H122  1  0.98570000  0.90240000  0.01290000  1.0 0.1204844186
H  H123  1  0.15400000  0.99170000  0.82630000  1.0 0.1290370525
H  H124  1  0.27570000  0.03410000  0.83070000  1.0 0.1204844186
H  H125  1  0.46490000  0.09540000  0.03400000  1.0 0.1290370525
H  H126  1  0.47250000  0.08730000  0.15720000  1.0 0.1290370525
H  H127  1  0.30100000  0.00010000  0.34270000  1.0 0.1204844186
H  H128  1  0.17730000  0.96020000  0.33810000  1.0 0.1204844186
H  H129  1  0.11470000  0.86740000  0.29320000  1.0 0.1290370525
H  H130  1  0.02930000  0.85190000  0.37830000  1.0 0.1290370525
H  H131  1  0.90540000  0.96840000  0.32410000  1.0 0.1204844186
H  H132  1  0.98710000  0.98460000  0.23500000  1.0 0.111392137
H  H133  1  0.86190000  0.96540000  0.43810000  1.0 0.1204844186
H  H134  1  0.79610000  0.91680000  0.52900000  1.0 0.1204844186
H  H135  1  0.93350000  0.82700000  0.43660000  1.0 0.1204844186
H  H136  1  0.96660000  0.97780000  0.92700000  1.0 0.1204844186
H  H137  1  0.87880000  0.94670000  0.84840000  1.0 0.1290370525
H  H138  1  0.04130000  0.86630000  0.76660000  1.0 0.1290370525
H  H139  1  0.12610000  0.89490000  0.85040000  1.0 0.1204844186
H  H140  1  0.80020000  0.92540000  0.76300000  1.0 0.1290370525
H  H141  1  0.74370000  0.87090000  0.67460000  1.0 0.1204844186
H  H142  1  0.95580000  0.83820000  0.69640000  1.0 0.1290370525
H  H143  1  0.33230000  0.12330000  0.88300000  1.0 0.1204844186
H  H144  1  0.41460000  0.15550000  0.80710000  1.0 0.1290370525
H  H145  1  0.56560000  0.05250000  0.85710000  1.0 0.1204844186
H  H146  1  0.48200000  0.01740000  0.92790000  1.0 0.1204844186
H  H147  1  0.65640000  0.10830000  0.81370000  1.0 0.1290370525
H  H148  1  0.70200000  0.14760000  0.71290000  1.0 0.1290370525
H  H149  1  0.48340000  0.15800000  0.70130000  1.0 0.1204844186
H  H150  1  0.37360000  0.11150000  0.27370000  1.0 0.1204844186
H  H151  1  0.44970000  0.13540000  0.36720000  1.0 0.1290370525
H  H152  1  0.53930000  0.00010000  0.37810000  1.0 0.1204844186
H  H153  1  0.46320000  0.97620000  0.28470000  1.0 0.111392137
H  H154  1  0.59200000  0.01930000  0.48340000  1.0 0.1290370525
H  H155  1  0.65570000  0.07450000  0.57110000  1.0 0.1290370525
H  H156  1  0.52580000  0.15940000  0.44220000  1.0 0.1204844186
H  H157  1  0.81960000  0.28980000  0.55560000  1.0 0.151311333
H  H158  1  0.87570000  0.21330000  0.63130000  1.0 0.1290370525
H  H159  1  0.43480000  0.20560000  0.45500000  1.0 0.1290370525
H  H160  1  0.38590000  0.27520000  0.36190000  1.0 0.1290370525
C  C1  1  0.59300000  0.56350000  0.13490000  1.0 0.1723500433
C  C2  1  0.52310000  0.58570000  0.11190000  1.0 -0.1984411188
C  C3  1  0.52320000  0.58410000  0.04280000  1.0 -0.1931901835
C  C4  1  0.58870000  0.55910000  0.02260000  1.0 0.1604482095
C  C5  1  0.60810000  0.54710000  0.95550000  1.0 -0.0561794867
C  C6  1  0.67060000  0.51930000  0.93400000  1.0 0.1723500433
C  C7  1  0.68520000  0.50310000  0.86580000  1.0 -0.1931901835
C  C8  1  0.75110000  0.47950000  0.86860000  1.0 -0.1931901835
C  C9  1  0.77870000  0.47810000  0.93890000  1.0 0.175381239
C  C10  1  0.84560000  0.45620000  0.96520000  1.0 -0.0863837084
C  C11  1  0.87130000  0.45290000  0.03260000  1.0 0.1723500433
C  C12  1  0.93230000  0.42390000  0.06030000  1.0 -0.1984411188
C  C13  1  0.93670000  0.42780000  0.12710000  1.0 -0.1931901835
C  C14  1  0.87620000  0.45950000  0.14510000  1.0 0.1604482095
C  C15  1  0.85870000  0.47350000  0.21280000  1.0 -0.0693692384
C  C16  1  0.79510000  0.50030000  0.23350000  1.0 0.151311333
C  C17  1  0.77300000  0.50860000  0.30250000  1.0 -0.221477524
C  C18  1  0.70590000  0.53050000  0.30010000  1.0 -0.2055707206
C  C19  1  0.68470000  0.53780000  0.22870000  1.0 0.151311333
C  C20  1  0.61700000  0.55670000  0.20260000  1.0 -0.0811354411
C  C21  1  0.56140000  0.57080000  0.25650000  1.0 0.0877985564
C  C22  1  0.57290000  0.61160000  0.29900000  1.0 -0.1314508585
C  C23  1  0.52170000  0.62050000  0.34970000  1.0 -0.1616375812
C  C24  1  0.45970000  0.59090000  0.36040000  1.0 0.151311333
C  C25  1  0.44780000  0.55200000  0.31780000  1.0 -0.1778094197
C  C26  1  0.49720000  0.54190000  0.26510000  1.0 -0.1399039073
C  C27  1  0.36610000  0.56830000  0.44740000  1.0 -0.1314508585
C  C28  1  0.33190000  0.59520000  0.49810000  1.0 -0.0145343836
C  C29  1  0.40520000  0.64480000  0.44710000  1.0 0.1405342392
C  C30  1  0.55380000  0.56350000  0.90060000  1.0 0.0728287133
C  C31  1  0.48180000  0.54670000  0.89610000  1.0 -0.1210000036
C  C32  1  0.42960000  0.56410000  0.84800000  1.0 -0.1697610486
C  C33  1  0.45110000  0.59610000  0.80110000  1.0 0.151311333
C  C34  1  0.52510000  0.61180000  0.80060000  1.0 -0.1778094197
C  C35  1  0.57520000  0.59470000  0.85080000  1.0 -0.1314508585
C  C36  1  0.32530000  0.60010000  0.74030000  1.0 -0.1001913702
C  C37  1  0.29500000  0.62920000  0.68980000  1.0 0.0019235404
C  C38  1  0.40840000  0.64700000  0.70340000  1.0 0.111392137
C  C39  1  0.89540000  0.43420000  0.91410000  1.0 0.0877985564
C  C40  1  0.87920000  0.39240000  0.87700000  1.0 -0.1210000036
C  C41  1  0.92850000  0.37290000  0.83180000  1.0 -0.1778094197
C  C42  1  0.99670000  0.39350000  0.82190000  1.0 0.151311333
C  C43  1  0.01680000  0.43390000  0.86070000  1.0 -0.1697610486
C  C44  1  0.96750000  0.45400000  0.90370000  1.0 -0.1126820761
C  C45  1  0.12630000  0.37680000  0.77870000  1.0 -0.1126820761
C  C46  1  0.15040000  0.35500000  0.72380000  1.0 -0.0260747038
C  C47  1  0.03310000  0.34940000  0.71720000  1.0 0.111392137
C  C48  1  0.91120000  0.45840000  0.27040000  1.0 0.0807838882
C  C49  1  0.90720000  0.41110000  0.29490000  1.0 -0.1314508585
C  C50  1  0.95250000  0.39690000  0.35040000  1.0 -0.1778094197
C  C51  1  0.00170000  0.43000000  0.38140000  1.0 0.1604482095
C  C52  1  0.00570000  0.47730000  0.35690000  1.0 -0.1984411188
C  C53  1  0.96050000  0.49150000  0.30140000  1.0 -0.1399039073
C  C54  1  0.08670000  0.44640000  0.48590000  1.0 -0.1210000036
C  C55  1  0.12240000  0.41550000  0.53510000  1.0 0.0019235404
C  C56  1  0.04960000  0.36800000  0.46290000  1.0 0.0877985564
C  C57  1  0.24410000  0.26610000  0.58160000  1.0 0.594307165
C  C58  1  0.31770000  0.24060000  0.57860000  1.0 -0.1616375812
C  C59  1  0.37880000  0.25760000  0.60560000  1.0 -0.1697610486
C  C60  1  0.45420000  0.23490000  0.59920000  1.0 0.5821833866
C  C61  1  0.01430000  0.24180000  0.42540000  1.0 0.5180943715
C  C62  1  0.93950000  0.26610000  0.42770000  1.0 -0.221477524
C  C63  1  0.88030000  0.25030000  0.39400000  1.0 -0.1616375812
C  C64  1  0.80370000  0.27100000  0.40440000  1.0 0.5821833866
C  C65  1  0.90700000  0.06350000  0.86510000  1.0 0.1723500433
C  C66  1  0.97690000  0.08570000  0.88810000  1.0 -0.1984411188
C  C67  1  0.97680000  0.08410000  0.95720000  1.0 -0.1931901835
C  C68  1  0.91130000  0.05910000  0.97740000  1.0 0.1604482095
C  C69  1  0.89190000  0.04710000  0.04450000  1.0 -0.0545091448
C  C70  1  0.82940000  0.01930000  0.06600000  1.0 0.1723500433
C  C71  1  0.81480000  0.00310000  0.13420000  1.0 -0.1931901835
C  C72  1  0.74890000  0.97950000  0.13140000  1.0 -0.1931901835
C  C73  1  0.72130000  0.97810000  0.06110000  1.0 0.175381239
C  C74  1  0.65440000  0.95620000  0.03480000  1.0 -0.0863837084
C  C75  1  0.62870000  0.95290000  0.96740000  1.0 0.1604482095
C  C76  1  0.56770000  0.92390000  0.93970000  1.0 -0.1984411188
C  C77  1  0.56330000  0.92780000  0.87290000  1.0 -0.1931901835
C  C78  1  0.62380000  0.95950000  0.85490000  1.0 0.1604482095
C  C79  1  0.64130000  0.97350000  0.78720000  1.0 -0.0693692384
C  C80  1  0.70490000  0.00030000  0.76650000  1.0 0.151311333
C  C81  1  0.72700000  0.00860000  0.69750000  1.0 -0.221477524
C  C82  1  0.79410000  0.03050000  0.69990000  1.0 -0.2055707206
C  C83  1  0.81530000  0.03780000  0.77130000  1.0 0.151311333
C  C84  1  0.88300000  0.05670000  0.79740000  1.0 -0.0811354411
C  C85  1  0.93860000  0.07080000  0.74350000  1.0 0.0877985564
C  C86  1  0.92710000  0.11160000  0.70100000  1.0 -0.1314508585
C  C87  1  0.97830000  0.12050000  0.65030000  1.0 -0.1616375812
C  C88  1  0.04030000  0.09090000  0.63960000  1.0 0.151311333
C  C89  1  0.05220000  0.05200000  0.68220000  1.0 -0.1778094197
C  C90  1  0.00280000  0.04190000  0.73490000  1.0 -0.1399039073
C  C91  1  0.13390000  0.06830000  0.55260000  1.0 -0.1314508585
C  C92  1  0.16810000  0.09520000  0.50190000  1.0 -0.0150079416
C  C93  1  0.09480000  0.14480000  0.55290000  1.0 0.1405342392
C  C94  1  0.94620000  0.06350000  0.09940000  1.0 0.0728287133
C  C95  1  0.01820000  0.04670000  0.10390000  1.0 -0.1210000036
C  C96  1  0.07040000  0.06410000  0.15200000  1.0 -0.1697610486
C  C97  1  0.04890000  0.09610000  0.19890000  1.0 0.151311333
C  C98  1  0.97490000  0.11180000  0.19940000  1.0 -0.1778094197
C  C99  1  0.92480000  0.09470000  0.14920000  1.0 -0.1314508585
C  C100  1  0.17470000  0.10010000  0.25970000  1.0 -0.1001913702
C  C101  1  0.20500000  0.12920000  0.31020000  1.0 0.0019235404
C  C102  1  0.09160000  0.14700000  0.29660000  1.0 0.111392137
C  C103  1  0.60460000  0.93420000  0.08590000  1.0 0.0877985564
C  C104  1  0.62080000  0.89240000  0.12300000  1.0 -0.1210000036
C  C105  1  0.57150000  0.87290000  0.16820000  1.0 -0.1778094197
C  C106  1  0.50330000  0.89350000  0.17810000  1.0 0.151311333
C  C107  1  0.48320000  0.93390000  0.13930000  1.0 -0.1697610486
C  C108  1  0.53250000  0.95400000  0.09630000  1.0 -0.1126820761
C  C109  1  0.37370000  0.87680000  0.22130000  1.0 -0.1126820761
C  C110  1  0.34960000  0.85500000  0.27620000  1.0 -0.0260747038
C  C111  1  0.46690000  0.84940000  0.28280000  1.0 0.111392137
C  C112  1  0.58880000  0.95840000  0.72960000  1.0 0.0807838882
C  C113  1  0.59280000  0.91110000  0.70510000  1.0 -0.1314508585
C  C114  1  0.54750000  0.89690000  0.64960000  1.0 -0.1778094197
C  C115  1  0.49830000  0.93000000  0.61860000  1.0 0.1604482095
C  C116  1  0.49430000  0.97730000  0.64310000  1.0 -0.1984411188
C  C117  1  0.53950000  0.99150000  0.69860000  1.0 -0.1399039073
C  C118  1  0.41330000  0.94640000  0.51410000  1.0 -0.1210000036
C  C119  1  0.37760000  0.91550000  0.46490000  1.0 0.0019235404
C  C120  1  0.45040000  0.86800000  0.53710000  1.0 0.0877985564
C  C121  1  0.25590000  0.76610000  0.41840000  1.0 0.594307165
C  C122  1  0.18230000  0.74060000  0.42140000  1.0 -0.1616375812
C  C123  1  0.12120000  0.75760000  0.39440000  1.0 -0.1697610486
C  C124  1  0.04580000  0.73490000  0.40080000  1.0 0.5821833866
C  C125  1  0.48570000  0.74180000  0.57460000  1.0 0.5180943715
C  C126  1  0.56050000  0.76610000  0.57230000  1.0 -0.221477524
C  C127  1  0.61970000  0.75030000  0.60600000  1.0 -0.1616375812
C  C128  1  0.69630000  0.77100000  0.59560000  1.0 0.5821833866
C  C129  1  0.40700000  0.43650000  0.86510000  1.0 0.1723500433
C  C130  1  0.47690000  0.41430000  0.88810000  1.0 -0.1984411188
C  C131  1  0.47680000  0.41590000  0.95720000  1.0 -0.1931901835
C  C132  1  0.41130000  0.44090000  0.97740000  1.0 0.1604482095
C  C133  1  0.39190000  0.45290000  0.04450000  1.0 -0.0545091448
C  C134  1  0.32940000  0.48070000  0.06600000  1.0 0.1723500433
C  C135  1  0.31480000  0.49690000  0.13420000  1.0 -0.1931901835
C  C136  1  0.24890000  0.52050000  0.13140000  1.0 -0.1931901835
C  C137  1  0.22130000  0.52190000  0.06110000  1.0 0.175381239
C  C138  1  0.15440000  0.54380000  0.03480000  1.0 -0.0863837084
C  C139  1  0.12870000  0.54710000  0.96740000  1.0 0.1604482095
C  C140  1  0.06770000  0.57610000  0.93970000  1.0 -0.1984411188
C  C141  1  0.06330000  0.57220000  0.87290000  1.0 -0.1931901835
C  C142  1  0.12380000  0.54050000  0.85490000  1.0 0.1604482095
C  C143  1  0.14130000  0.52650000  0.78720000  1.0 -0.0693692384
C  C144  1  0.20490000  0.49970000  0.76650000  1.0 0.151311333
C  C145  1  0.22700000  0.49140000  0.69750000  1.0 -0.221477524
C  C146  1  0.29410000  0.46950000  0.69990000  1.0 -0.2055707206
C  C147  1  0.31530000  0.46220000  0.77130000  1.0 0.151311333
C  C148  1  0.38300000  0.44330000  0.79740000  1.0 -0.0811354411
C  C149  1  0.43860000  0.42920000  0.74350000  1.0 0.0877985564
C  C150  1  0.42710000  0.38840000  0.70100000  1.0 -0.1314508585
C  C151  1  0.47830000  0.37950000  0.65030000  1.0 -0.1616375812
C  C152  1  0.54030000  0.40910000  0.63960000  1.0 0.151311333
C  C153  1  0.55220000  0.44800000  0.68220000  1.0 -0.1778094197
C  C154  1  0.50280000  0.45810000  0.73490000  1.0 -0.1399039073
C  C155  1  0.63390000  0.43170000  0.55260000  1.0 -0.1314508585
C  C156  1  0.66810000  0.40480000  0.50190000  1.0 -0.0145343836
C  C157  1  0.59480000  0.35520000  0.55290000  1.0 0.1405342392
C  C158  1  0.44620000  0.43650000  0.09940000  1.0 0.0728287133
C  C159  1  0.51820000  0.45330000  0.10390000  1.0 -0.1210000036
C  C160  1  0.57040000  0.43590000  0.15200000  1.0 -0.1697610486
C  C161  1  0.54890000  0.40390000  0.19890000  1.0 0.151311333
C  C162  1  0.47490000  0.38820000  0.19940000  1.0 -0.1778094197
C  C163  1  0.42480000  0.40530000  0.14920000  1.0 -0.1314508585
C  C164  1  0.67470000  0.39990000  0.25970000  1.0 -0.1001913702
C  C165  1  0.70500000  0.37080000  0.31020000  1.0 0.0019235404
C  C166  1  0.59160000  0.35300000  0.29660000  1.0 0.111392137
C  C167  1  0.10460000  0.56580000  0.08590000  1.0 0.0877985564
C  C168  1  0.12080000  0.60760000  0.12300000  1.0 -0.1210000036
C  C169  1  0.07150000  0.62710000  0.16820000  1.0 -0.1778094197
C  C170  1  0.00330000  0.60650000  0.17810000  1.0 0.151311333
C  C171  1  0.98320000  0.56610000  0.13930000  1.0 -0.1697610486
C  C172  1  0.03250000  0.54600000  0.09630000  1.0 -0.1126820761
C  C173  1  0.87370000  0.62320000  0.22130000  1.0 -0.1126820761
C  C174  1  0.84960000  0.64500000  0.27620000  1.0 -0.0260747038
C  C175  1  0.96690000  0.65060000  0.28280000  1.0 0.111392137
C  C176  1  0.08880000  0.54160000  0.72960000  1.0 0.0807838882
C  C177  1  0.09280000  0.58890000  0.70510000  1.0 -0.1314508585
C  C178  1  0.04750000  0.60310000  0.64960000  1.0 -0.1778094197
C  C179  1  0.99830000  0.57000000  0.61860000  1.0 0.1604482095
C  C180  1  0.99430000  0.52270000  0.64310000  1.0 -0.1984411188
C  C181  1  0.03950000  0.50850000  0.69860000  1.0 -0.1399039073
C  C182  1  0.91330000  0.55360000  0.51410000  1.0 -0.1210000036
C  C183  1  0.87760000  0.58450000  0.46490000  1.0 0.0019235404
C  C184  1  0.95040000  0.63200000  0.53710000  1.0 0.0877985564
C  C185  1  0.75590000  0.73390000  0.41840000  1.0 0.594307165
C  C186  1  0.68230000  0.75940000  0.42140000  1.0 -0.1616375812
C  C187  1  0.62120000  0.74240000  0.39440000  1.0 -0.1697610486
C  C188  1  0.54580000  0.76510000  0.40080000  1.0 0.5821833866
C  C189  1  0.98570000  0.75820000  0.57460000  1.0 0.5180943715
C  C190  1  0.06050000  0.73390000  0.57230000  1.0 -0.221477524
C  C191  1  0.11970000  0.74970000  0.60600000  1.0 -0.1616375812
C  C192  1  0.19630000  0.72900000  0.59560000  1.0 0.5821833866
C  C193  1  0.09300000  0.93650000  0.13490000  1.0 0.1723500433
C  C194  1  0.02310000  0.91430000  0.11190000  1.0 -0.1984411188
C  C195  1  0.02320000  0.91590000  0.04280000  1.0 -0.1931901835
C  C196  1  0.08870000  0.94090000  0.02260000  1.0 0.1604482095
C  C197  1  0.10810000  0.95290000  0.95550000  1.0 -0.0561794867
C  C198  1  0.17060000  0.98070000  0.93400000  1.0 0.1723500433
C  C199  1  0.18520000  0.99690000  0.86580000  1.0 -0.1984411188
C  C200  1  0.25110000  0.02050000  0.86860000  1.0 -0.1931901835
C  C201  1  0.27870000  0.02190000  0.93890000  1.0 0.175381239
C  C202  1  0.34560000  0.04380000  0.96520000  1.0 -0.0863837084
C  C203  1  0.37130000  0.04710000  0.03260000  1.0 0.1723500433
C  C204  1  0.43230000  0.07610000  0.06030000  1.0 -0.1984411188
C  C205  1  0.43670000  0.07220000  0.12710000  1.0 -0.1931901835
C  C206  1  0.37620000  0.04050000  0.14510000  1.0 0.1604482095
C  C207  1  0.35870000  0.02650000  0.21280000  1.0 -0.0693692384
C  C208  1  0.29510000  0.99970000  0.23350000  1.0 0.151311333
C  C209  1  0.27300000  0.99140000  0.30250000  1.0 -0.221477524
C  C210  1  0.20590000  0.96950000  0.30010000  1.0 -0.2055707206
C  C211  1  0.18470000  0.96220000  0.22870000  1.0 0.151311333
C  C212  1  0.11700000  0.94330000  0.20260000  1.0 -0.0811354411
C  C213  1  0.06140000  0.92920000  0.25650000  1.0 0.0877985564
C  C214  1  0.07290000  0.88840000  0.29900000  1.0 -0.1314508585
C  C215  1  0.02170000  0.87950000  0.34970000  1.0 -0.1616375812
C  C216  1  0.95970000  0.90910000  0.36040000  1.0 0.151311333
C  C217  1  0.94780000  0.94800000  0.31780000  1.0 -0.1778094197
C  C218  1  0.99720000  0.95810000  0.26510000  1.0 -0.1399039073
C  C219  1  0.86610000  0.93170000  0.44740000  1.0 -0.1314508585
C  C220  1  0.83190000  0.90480000  0.49810000  1.0 -0.0145343836
C  C221  1  0.90520000  0.85520000  0.44710000  1.0 0.1405342392
C  C222  1  0.05380000  0.93650000  0.90060000  1.0 0.0728287133
C  C223  1  0.98180000  0.95330000  0.89610000  1.0 -0.1210000036
C  C224  1  0.92960000  0.93590000  0.84800000  1.0 -0.1697610486
C  C225  1  0.95110000  0.90390000  0.80110000  1.0 0.151311333
C  C226  1  0.02510000  0.88820000  0.80060000  1.0 -0.1778094197
C  C227  1  0.07520000  0.90530000  0.85080000  1.0 -0.1314508585
C  C228  1  0.82530000  0.89990000  0.74030000  1.0 -0.1001913702
C  C229  1  0.79500000  0.87080000  0.68980000  1.0 0.0019235404
C  C230  1  0.90840000  0.85300000  0.70340000  1.0 0.111392137
C  C231  1  0.39540000  0.06580000  0.91410000  1.0 0.0877985564
C  C232  1  0.37920000  0.10760000  0.87700000  1.0 -0.1210000036
C  C233  1  0.42850000  0.12710000  0.83180000  1.0 -0.1778094197
C  C234  1  0.49670000  0.10650000  0.82190000  1.0 0.151311333
C  C235  1  0.51680000  0.06610000  0.86070000  1.0 -0.1697610486
C  C236  1  0.46750000  0.04600000  0.90370000  1.0 -0.1126820761
C  C237  1  0.62630000  0.12320000  0.77870000  1.0 -0.1126820761
C  C238  1  0.65040000  0.14500000  0.72380000  1.0 -0.0260747038
C  C239  1  0.53310000  0.15060000  0.71720000  1.0 0.111392137
C  C240  1  0.41120000  0.04160000  0.27040000  1.0 0.0807838882
C  C241  1  0.40720000  0.08890000  0.29490000  1.0 -0.1314508585
C  C242  1  0.45250000  0.10310000  0.35040000  1.0 -0.1778094197
C  C243  1  0.50170000  0.07000000  0.38140000  1.0 0.1604482095
C  C244  1  0.50570000  0.02270000  0.35690000  1.0 -0.1984411188
C  C245  1  0.46050000  0.00850000  0.30140000  1.0 -0.1399039073
C  C246  1  0.58670000  0.05360000  0.48590000  1.0 -0.1210000036
C  C247  1  0.62240000  0.08450000  0.53510000  1.0 0.0019235404
C  C248  1  0.54960000  0.13200000  0.46290000  1.0 0.0877985564
C  C249  1  0.74410000  0.23390000  0.58160000  1.0 0.594307165
C  C250  1  0.81770000  0.25940000  0.57860000  1.0 -0.1616375812
C  C251  1  0.87880000  0.24240000  0.60560000  1.0 -0.1697610486
C  C252  1  0.95420000  0.26510000  0.59920000  1.0 0.5821833866
C  C253  1  0.51430000  0.25820000  0.42540000  1.0 0.5180943715
C  C254  1  0.43950000  0.23390000  0.42770000  1.0 -0.221477524
C  C255  1  0.38030000  0.24970000  0.39400000  1.0 -0.1616375812
C  C256  1  0.30370000  0.22900000  0.40440000  1.0 0.5821833866
N  N1  1  0.09950000  0.36700000  0.52080000  1.0 -0.3121074033
N  N2  1  0.04180000  0.41700000  0.44130000  1.0 0.0089918704
N  N3  1  0.09320000  0.33690000  0.68500000  1.0 -0.2721455363
N  N4  1  0.34800000  0.65700000  0.66580000  1.0 -0.2721455363
N  N5  1  0.35860000  0.64200000  0.49590000  1.0 -0.2834651066
N  N6  1  0.83880000  0.47410000  0.08720000  1.0 -0.3795370726
N  N7  1  0.72810000  0.50400000  0.97690000  1.0 -0.3795370726
N  N8  1  0.63190000  0.54860000  0.08030000  1.0 -0.3855818702
N  N9  1  0.74200000  0.51960000  0.18980000  1.0 -0.408808176
N  N10  1  0.04880000  0.37380000  0.77550000  1.0 0.0089918704
N  N11  1  0.39760000  0.61430000  0.75210000  1.0 0.0089918704
N  N12  1  0.40850000  0.60340000  0.41350000  1.0 0.0089918704
N  N13  1  0.40050000  0.86700000  0.47920000  1.0 -0.3121074033
N  N14  1  0.45820000  0.91700000  0.55870000  1.0 0.0089918704
N  N15  1  0.40680000  0.83690000  0.31500000  1.0 -0.2721455363
N  N16  1  0.15200000  0.15700000  0.33420000  1.0 -0.2721455363
N  N17  1  0.14140000  0.14200000  0.50410000  1.0 -0.2834651066
N  N18  1  0.66120000  0.97410000  0.91280000  1.0 -0.3795370726
N  N19  1  0.77190000  0.00400000  0.02310000  1.0 -0.3795370726
N  N20  1  0.86810000  0.04860000  0.91970000  1.0 -0.3855818702
N  N21  1  0.75800000  0.01960000  0.81020000  1.0 -0.408808176
N  N22  1  0.45120000  0.87380000  0.22450000  1.0 0.0089918704
N  N23  1  0.10240000  0.11430000  0.24790000  1.0 0.0089918704
N  N24  1  0.09150000  0.10340000  0.58650000  1.0 0.0089918704
N  N25  1  0.90050000  0.63300000  0.47920000  1.0 -0.3121074033
N  N26  1  0.95820000  0.58300000  0.55870000  1.0 0.0089918704
N  N27  1  0.90680000  0.66310000  0.31500000  1.0 -0.2721455363
N  N28  1  0.65200000  0.34300000  0.33420000  1.0 -0.2721455363
N  N29  1  0.64140000  0.35800000  0.50410000  1.0 -0.2834651066
N  N30  1  0.16120000  0.52590000  0.91280000  1.0 -0.3795370726
N  N31  1  0.27190000  0.49600000  0.02310000  1.0 -0.3795370726
N  N32  1  0.36810000  0.45140000  0.91970000  1.0 -0.3855818702
N  N33  1  0.25800000  0.48040000  0.81020000  1.0 -0.408808176
N  N34  1  0.95120000  0.62620000  0.22450000  1.0 0.0089918704
N  N35  1  0.60240000  0.38570000  0.24790000  1.0 0.0089918704
N  N36  1  0.59150000  0.39660000  0.58650000  1.0 0.0089918704
N  N37  1  0.59950000  0.13300000  0.52080000  1.0 -0.3121074033
N  N38  1  0.54180000  0.08300000  0.44130000  1.0 0.0089918704
N  N39  1  0.59320000  0.16310000  0.68500000  1.0 -0.2721455363
N  N40  1  0.84800000  0.84300000  0.66580000  1.0 -0.2721455363
N  N41  1  0.85860000  0.85800000  0.49590000  1.0 -0.2834651066
N  N42  1  0.33880000  0.02590000  0.08720000  1.0 -0.3795370726
N  N43  1  0.22810000  0.99600000  0.97690000  1.0 -0.3795370726
N  N44  1  0.13190000  0.95140000  0.08030000  1.0 -0.3855818702
N  N45  1  0.24200000  0.98040000  0.18980000  1.0 -0.408808176
N  N46  1  0.54880000  0.12620000  0.77550000  1.0 0.0089918704
N  N47  1  0.89760000  0.88570000  0.75210000  1.0 0.0089918704
N  N48  1  0.90850000  0.89660000  0.41350000  1.0 0.0089918704
O  O1  1  0.23790000  0.30350000  0.61210000  1.0 -0.5086639715
O  O2  1  0.18770000  0.24580000  0.55180000  1.0 -0.5640461935
O  O3  1  0.45920000  0.19140000  0.58200000  1.0 -0.5501800967
O  O4  1  0.51210000  0.26140000  0.61130000  1.0 -0.5655462934
O  O5  1  0.06650000  0.25890000  0.45620000  1.0 -0.4333943916
O  O6  1  0.79580000  0.31200000  0.42720000  1.0 -0.5330470024
O  O7  1  0.74840000  0.24250000  0.39160000  1.0 -0.5330470024
O  O8  1  0.03120000  0.23200000  0.36950000  1.0 -0.1126820761
O  O9  1  0.01530000  0.19000000  0.41310000  1.0 -0.3690871937
O  O10  1  0.26210000  0.80350000  0.38790000  1.0 -0.5086639715
O  O11  1  0.31230000  0.74580000  0.44820000  1.0 -0.5640461935
O  O12  1  0.04080000  0.69140000  0.41800000  1.0 -0.5501800967
O  O13  1  0.98790000  0.76140000  0.38870000  1.0 -0.5655462934
O  O14  1  0.43350000  0.75890000  0.54380000  1.0 -0.4333943916
O  O15  1  0.70420000  0.81200000  0.57280000  1.0 -0.5330470024
O  O16  1  0.75160000  0.74250000  0.60840000  1.0 -0.5330470024
O  O17  1  0.46880000  0.73200000  0.63050000  1.0 -0.1126820761
O  O18  1  0.48470000  0.69000000  0.58690000  1.0 -0.3643436028
O  O19  1  0.76210000  0.69650000  0.38790000  1.0 -0.5086639715
O  O20  1  0.81230000  0.75420000  0.44820000  1.0 -0.5655462934
O  O21  1  0.54080000  0.80860000  0.41800000  1.0 -0.5501800967
O  O22  1  0.48790000  0.73860000  0.38870000  1.0 -0.5655462934
O  O23  1  0.93350000  0.74110000  0.54380000  1.0 -0.4333943916
O  O24  1  0.20420000  0.68800000  0.57280000  1.0 -0.5330470024
O  O25  1  0.25160000  0.75750000  0.60840000  1.0 -0.5330470024
O  O26  1  0.96880000  0.76800000  0.63050000  1.0 -0.1126820761
O  O27  1  0.98470000  0.81000000  0.58690000  1.0 -0.3690871937
O  O28  1  0.73790000  0.19650000  0.61210000  1.0 -0.5086639715
O  O29  1  0.68770000  0.25420000  0.55180000  1.0 -0.5655462934
O  O30  1  0.95920000  0.30860000  0.58200000  1.0 -0.5501800967
O  O31  1  0.01210000  0.23860000  0.61130000  1.0 -0.5655462934
O  O32  1  0.56650000  0.24110000  0.45620000  1.0 -0.4333943916
O  O33  1  0.29580000  0.18800000  0.42720000  1.0 -0.5330470024
O  O34  1  0.24840000  0.25750000  0.39160000  1.0 -0.5330470024
O  O35  1  0.53120000  0.26800000  0.36950000  1.0 -0.1126820761
O  O36  1  0.51530000  0.31000000  0.41310000  1.0 -0.3643436028
