# DDEC6 charges by PACMAN v1.1 (https://github.com/mtap-research/PACMAN-charge/)
data_KEVBIY_FSR_pacman
_symmetry_space_group_name_H-M   'P 1'
_cell_length_a   18.32700000
_cell_length_b   18.32700000
_cell_length_c   18.32700000
_cell_angle_alpha   106.49400000
_cell_angle_beta   106.49400000
_cell_angle_gamma   106.49400000
_symmetry_Int_Tables_number   1
_chemical_formula_structural   Ni3H80C108N6O13
_chemical_formula_sum   'Ni6 H160 C216 N12 O26'
_cell_volume   5195.62458533
_cell_formula_units_Z   2
loop_
 _symmetry_equiv_pos_site_id
 _symmetry_equiv_pos_as_xyz
  1  'x, y, z'
loop_
 _atom_site_type_symbol
 _atom_site_label
 _atom_site_symmetry_multiplicity
 _atom_site_fract_x
 _atom_site_fract_y
 _atom_site_fract_z
 _atom_site_occupancy
 _atom_site_charge
Ni  Ni1  1  0.81841000  0.75000000  0.68159000  1.0 0.7900571905
Ni  Ni2  1  0.75000000  0.68159000  0.81841000  1.0 0.7900571905
Ni  Ni3  1  0.68159000  0.81841000  0.75000000  1.0 0.7900571905
Ni  Ni4  1  0.18159000  0.25000000  0.31841000  1.0 0.7900571905
Ni  Ni5  1  0.25000000  0.31841000  0.18159000  1.0 0.7900571905
Ni  Ni6  1  0.31841000  0.18159000  0.25000000  1.0 0.7900571905
H  H1  1  0.05940000  0.64900000  0.46950000  1.0 0.1068821899
H  H2  1  0.64900000  0.46950000  0.05940000  1.0 0.1068821899
H  H3  1  0.46950000  0.05940000  0.64900000  1.0 0.1068821899
H  H4  1  0.44060000  0.03050000  0.85100000  1.0 0.1068821899
H  H5  1  0.85100000  0.44060000  0.03050000  1.0 0.1068821899
H  H6  1  0.03050000  0.85100000  0.44060000  1.0 0.1068821899
H  H7  1  0.94060000  0.35100000  0.53050000  1.0 0.1068821899
H  H8  1  0.35100000  0.53050000  0.94060000  1.0 0.1068821899
H  H9  1  0.53050000  0.94060000  0.35100000  1.0 0.1068821899
H  H10  1  0.55940000  0.96950000  0.14900000  1.0 0.1068821899
H  H11  1  0.14900000  0.55940000  0.96950000  1.0 0.1068821899
H  H12  1  0.96950000  0.14900000  0.55940000  1.0 0.1068821899
H  H13  1  0.91910000  0.81050000  0.46780000  1.0 0.0985917454
H  H14  1  0.81050000  0.46780000  0.91910000  1.0 0.0985917454
H  H15  1  0.46780000  0.91910000  0.81050000  1.0 0.0985917454
H  H16  1  0.58090000  0.03220000  0.68950000  1.0 0.0985917454
H  H17  1  0.68950000  0.58090000  0.03220000  1.0 0.0985917454
H  H18  1  0.03220000  0.68950000  0.58090000  1.0 0.0985917454
H  H19  1  0.08090000  0.18950000  0.53220000  1.0 0.0985917454
H  H20  1  0.18950000  0.53220000  0.08090000  1.0 0.0985917454
H  H21  1  0.53220000  0.08090000  0.18950000  1.0 0.0985917454
H  H22  1  0.41910000  0.96780000  0.31050000  1.0 0.0985917454
H  H23  1  0.31050000  0.41910000  0.96780000  1.0 0.0985917454
H  H24  1  0.96780000  0.31050000  0.41910000  1.0 0.0985917454
H  H25  1  0.84470000  0.81230000  0.55090000  1.0 0.0793240487
H  H26  1  0.81230000  0.55090000  0.84470000  1.0 0.0793240487
H  H27  1  0.55090000  0.84470000  0.81230000  1.0 0.0793240487
H  H28  1  0.65530000  0.94910000  0.68770000  1.0 0.0793240487
H  H29  1  0.68770000  0.65530000  0.94910000  1.0 0.0793240487
H  H30  1  0.94910000  0.68770000  0.65530000  1.0 0.0793240487
H  H31  1  0.15530000  0.18770000  0.44910000  1.0 0.0793240487
H  H32  1  0.18770000  0.44910000  0.15530000  1.0 0.0793240487
H  H33  1  0.44910000  0.15530000  0.18770000  1.0 0.0793240487
H  H34  1  0.34470000  0.05090000  0.31230000  1.0 0.0793240487
H  H35  1  0.31230000  0.34470000  0.05090000  1.0 0.0793240487
H  H36  1  0.05090000  0.31230000  0.34470000  1.0 0.0793240487
H  H37  1  0.24320000  0.55350000  0.27260000  1.0 0.0793240487
H  H38  1  0.55350000  0.27260000  0.24320000  1.0 0.0793240487
H  H39  1  0.27260000  0.24320000  0.55350000  1.0 0.0793240487
H  H40  1  0.25680000  0.22740000  0.94650000  1.0 0.0793240487
H  H41  1  0.94650000  0.25680000  0.22740000  1.0 0.0793240487
H  H42  1  0.22740000  0.94650000  0.25680000  1.0 0.0793240487
H  H43  1  0.75680000  0.44650000  0.72740000  1.0 0.0793240487
H  H44  1  0.44650000  0.72740000  0.75680000  1.0 0.0793240487
H  H45  1  0.72740000  0.75680000  0.44650000  1.0 0.0793240487
H  H46  1  0.74320000  0.77260000  0.05350000  1.0 0.0793240487
H  H47  1  0.05350000  0.74320000  0.77260000  1.0 0.0793240487
H  H48  1  0.77260000  0.05350000  0.74320000  1.0 0.0793240487
H  H49  1  0.20690000  0.66500000  0.31200000  1.0 0.0877370224
H  H50  1  0.66500000  0.31200000  0.20690000  1.0 0.0877370224
H  H51  1  0.31200000  0.20690000  0.66500000  1.0 0.0877370224
H  H52  1  0.29310000  0.18800000  0.83500000  1.0 0.0877370224
H  H53  1  0.83500000  0.29310000  0.18800000  1.0 0.0877370224
H  H54  1  0.18800000  0.83500000  0.29310000  1.0 0.0877370224
H  H55  1  0.79310000  0.33500000  0.68800000  1.0 0.0877370224
H  H56  1  0.33500000  0.68800000  0.79310000  1.0 0.0877370224
H  H57  1  0.68800000  0.79310000  0.33500000  1.0 0.0877370224
H  H58  1  0.70690000  0.81200000  0.16500000  1.0 0.0877370224
H  H59  1  0.16500000  0.70690000  0.81200000  1.0 0.0877370224
H  H60  1  0.81200000  0.16500000  0.70690000  1.0 0.0877370224
H  H61  1  0.13650000  0.58660000  0.47430000  1.0 0.0877370224
H  H62  1  0.58660000  0.47430000  0.13650000  1.0 0.0877370224
H  H63  1  0.47430000  0.13650000  0.58660000  1.0 0.0877370224
H  H64  1  0.36350000  0.02570000  0.91340000  1.0 0.0877370224
H  H65  1  0.91340000  0.36350000  0.02570000  1.0 0.0793240487
H  H66  1  0.02570000  0.91340000  0.36350000  1.0 0.0877370224
H  H67  1  0.86350000  0.41340000  0.52570000  1.0 0.0877370224
H  H68  1  0.41340000  0.52570000  0.86350000  1.0 0.0877370224
H  H69  1  0.52570000  0.86350000  0.41340000  1.0 0.0877370224
H  H70  1  0.63650000  0.97430000  0.08660000  1.0 0.0877370224
H  H71  1  0.08660000  0.63650000  0.97430000  1.0 0.0877370224
H  H72  1  0.97430000  0.08660000  0.63650000  1.0 0.0793240487
H  H73  1  0.17750000  0.47750000  0.43680000  1.0 0.0793240487
H  H74  1  0.47750000  0.43680000  0.17750000  1.0 0.0793240487
H  H75  1  0.43680000  0.17750000  0.47750000  1.0 0.0793240487
H  H76  1  0.32250000  0.06320000  0.02250000  1.0 0.0793240487
H  H77  1  0.02250000  0.32250000  0.06320000  1.0 0.0793240487
H  H78  1  0.06320000  0.02250000  0.32250000  1.0 0.0793240487
H  H79  1  0.82250000  0.52250000  0.56320000  1.0 0.0793240487
H  H80  1  0.52250000  0.56320000  0.82250000  1.0 0.0793240487
H  H81  1  0.56320000  0.82250000  0.52250000  1.0 0.0793240487
H  H82  1  0.67750000  0.93680000  0.97750000  1.0 0.0793240487
H  H83  1  0.97750000  0.67750000  0.93680000  1.0 0.0793240487
H  H84  1  0.93680000  0.97750000  0.67750000  1.0 0.0793240487
H  H85  1  0.29080000  0.58360000  0.32870000  1.0 0.0793240487
H  H86  1  0.58360000  0.32870000  0.29080000  1.0 0.0793240487
H  H87  1  0.32870000  0.29080000  0.58360000  1.0 0.0793240487
H  H88  1  0.20920000  0.17130000  0.91640000  1.0 0.0793240487
H  H89  1  0.91640000  0.20920000  0.17130000  1.0 0.0793240487
H  H90  1  0.17130000  0.91640000  0.20920000  1.0 0.0793240487
H  H91  1  0.70920000  0.41640000  0.67130000  1.0 0.0793240487
H  H92  1  0.41640000  0.67130000  0.70920000  1.0 0.0793240487
H  H93  1  0.67130000  0.70920000  0.41640000  1.0 0.0793240487
H  H94  1  0.79080000  0.82870000  0.08360000  1.0 0.0793240487
H  H95  1  0.08360000  0.79080000  0.82870000  1.0 0.0793240487
H  H96  1  0.82870000  0.08360000  0.79080000  1.0 0.0793240487
H  H97  1  0.23590000  0.68330000  0.34480000  1.0 0.0877370224
H  H98  1  0.68330000  0.34480000  0.23590000  1.0 0.0877370224
H  H99  1  0.34480000  0.23590000  0.68330000  1.0 0.0877370224
H  H100  1  0.26410000  0.15520000  0.81670000  1.0 0.0877370224
H  H101  1  0.81670000  0.26410000  0.15520000  1.0 0.0877370224
H  H102  1  0.15520000  0.81670000  0.26410000  1.0 0.0877370224
H  H103  1  0.76410000  0.31670000  0.65520000  1.0 0.0877370224
H  H104  1  0.31670000  0.65520000  0.76410000  1.0 0.0877370224
H  H105  1  0.65520000  0.76410000  0.31670000  1.0 0.0877370224
H  H106  1  0.73590000  0.84480000  0.18330000  1.0 0.0877370224
H  H107  1  0.18330000  0.73590000  0.84480000  1.0 0.0877370224
H  H108  1  0.84480000  0.18330000  0.73590000  1.0 0.0877370224
H  H109  1  0.04530000  0.53390000  0.37400000  1.0 0.0877370224
H  H110  1  0.53390000  0.37400000  0.04530000  1.0 0.0877370224
H  H111  1  0.37400000  0.04530000  0.53390000  1.0 0.0877370224
H  H112  1  0.45470000  0.12600000  0.96610000  1.0 0.0877370224
H  H113  1  0.96610000  0.45470000  0.12600000  1.0 0.0877370224
H  H114  1  0.12600000  0.96610000  0.45470000  1.0 0.0877370224
H  H115  1  0.95470000  0.46610000  0.62600000  1.0 0.0877370224
H  H116  1  0.46610000  0.62600000  0.95470000  1.0 0.0877370224
H  H117  1  0.62600000  0.95470000  0.46610000  1.0 0.0877370224
H  H118  1  0.54530000  0.87400000  0.03390000  1.0 0.0877370224
H  H119  1  0.03390000  0.54530000  0.87400000  1.0 0.0877370224
H  H120  1  0.87400000  0.03390000  0.54530000  1.0 0.0877370224
H  H121  1  0.09730000  0.42940000  0.35120000  1.0 0.0793240487
H  H122  1  0.42940000  0.35120000  0.09730000  1.0 0.0793240487
H  H123  1  0.35120000  0.09730000  0.42940000  1.0 0.0793240487
H  H124  1  0.40270000  0.14880000  0.07060000  1.0 0.0793240487
H  H125  1  0.07060000  0.40270000  0.14880000  1.0 0.0793240487
H  H126  1  0.14880000  0.07060000  0.40270000  1.0 0.0793240487
H  H127  1  0.90270000  0.57060000  0.64880000  1.0 0.0793240487
H  H128  1  0.57060000  0.64880000  0.90270000  1.0 0.0793240487
H  H129  1  0.64880000  0.90270000  0.57060000  1.0 0.0793240487
H  H130  1  0.59730000  0.85120000  0.92940000  1.0 0.0793240487
H  H131  1  0.92940000  0.59730000  0.85120000  1.0 0.0793240487
H  H132  1  0.85120000  0.92940000  0.59730000  1.0 0.0793240487
H  H133  1  0.93840000  0.62910000  0.48260000  1.0 0.0985917454
H  H134  1  0.62910000  0.48260000  0.93840000  1.0 0.0985917454
H  H135  1  0.48260000  0.93840000  0.62910000  1.0 0.0985917454
H  H136  1  0.56160000  0.01740000  0.87090000  1.0 0.0985917454
H  H137  1  0.87090000  0.56160000  0.01740000  1.0 0.0985917454
H  H138  1  0.01740000  0.87090000  0.56160000  1.0 0.0985917454
H  H139  1  0.06160000  0.37090000  0.51740000  1.0 0.0985917454
H  H140  1  0.37090000  0.51740000  0.06160000  1.0 0.0985917454
H  H141  1  0.51740000  0.06160000  0.37090000  1.0 0.0985917454
H  H142  1  0.43840000  0.98260000  0.12910000  1.0 0.0985917454
H  H143  1  0.12910000  0.43840000  0.98260000  1.0 0.0985917454
H  H144  1  0.98260000  0.12910000  0.43840000  1.0 0.0985917454
H  H145  1  0.84940000  0.62790000  0.55240000  1.0 0.0877370224
H  H146  1  0.62790000  0.55240000  0.84940000  1.0 0.0877370224
H  H147  1  0.55240000  0.84940000  0.62790000  1.0 0.0877370224
H  H148  1  0.65060000  0.94760000  0.87210000  1.0 0.0877370224
H  H149  1  0.87210000  0.65060000  0.94760000  1.0 0.0877370224
H  H150  1  0.94760000  0.87210000  0.65060000  1.0 0.0877370224
H  H151  1  0.15060000  0.37210000  0.44760000  1.0 0.0877370224
H  H152  1  0.37210000  0.44760000  0.15060000  1.0 0.0877370224
H  H153  1  0.44760000  0.15060000  0.37210000  1.0 0.0877370224
H  H154  1  0.34940000  0.05240000  0.12790000  1.0 0.0877370224
H  H155  1  0.12790000  0.34940000  0.05240000  1.0 0.0877370224
H  H156  1  0.05240000  0.12790000  0.34940000  1.0 0.0877370224
H  H157  1  0.79797000  0.79797000  0.79797000  1.0 0.3288278364
H  H158  1  0.70203000  0.70203000  0.70203000  1.0 0.3288278364
H  H159  1  0.20203000  0.20203000  0.20203000  1.0 0.3288278364
H  H160  1  0.29797000  0.29797000  0.29797000  1.0 0.3288278364
C  C1  1  0.23208000  0.42765000  0.32407000  1.0 0.5319799863
C  C2  1  0.42765000  0.32407000  0.23208000  1.0 0.5319799863
C  C3  1  0.32407000  0.23208000  0.42765000  1.0 0.5319799863
C  C4  1  0.26792000  0.17593000  0.07235000  1.0 0.5319799863
C  C5  1  0.07235000  0.26792000  0.17593000  1.0 0.5319799863
C  C6  1  0.17593000  0.07235000  0.26792000  1.0 0.5319799863
C  C7  1  0.76792000  0.57235000  0.67593000  1.0 0.5319799863
C  C8  1  0.57235000  0.67593000  0.76792000  1.0 0.5319799863
C  C9  1  0.67593000  0.76792000  0.57235000  1.0 0.5319799863
C  C10  1  0.73208000  0.82407000  0.92765000  1.0 0.5319799863
C  C11  1  0.92765000  0.73208000  0.82407000  1.0 0.5319799863
C  C12  1  0.82407000  0.92765000  0.73208000  1.0 0.5319799863
C  C13  1  0.20749000  0.50052000  0.34479000  1.0 -0.0216409068
C  C14  1  0.50052000  0.34479000  0.20749000  1.0 -0.0216409068
C  C15  1  0.34479000  0.20749000  0.50052000  1.0 -0.0216409068
C  C16  1  0.29251000  0.15521000  0.99948000  1.0 -0.0216409068
C  C17  1  0.99948000  0.29251000  0.15521000  1.0 -0.0216409068
C  C18  1  0.15521000  0.99948000  0.29251000  1.0 -0.0216409068
C  C19  1  0.79251000  0.49948000  0.65521000  1.0 -0.0216409068
C  C20  1  0.49948000  0.65521000  0.79251000  1.0 -0.0216409068
C  C21  1  0.65521000  0.79251000  0.49948000  1.0 -0.0216409068
C  C22  1  0.70749000  0.84479000  0.00052000  1.0 -0.0216409068
C  C23  1  0.00052000  0.70749000  0.84479000  1.0 -0.0216409068
C  C24  1  0.84479000  0.00052000  0.70749000  1.0 -0.0216409068
C  C25  1  0.14840000  0.62661000  0.37979000  1.0 0.0331697434
C  C26  1  0.62661000  0.37979000  0.14840000  1.0 0.0331697434
C  C27  1  0.37979000  0.14840000  0.62661000  1.0 0.0331697434
C  C28  1  0.35160000  0.12021000  0.87339000  1.0 0.0331697434
C  C29  1  0.87339000  0.35160000  0.12021000  1.0 0.0331697434
C  C30  1  0.12021000  0.87339000  0.35160000  1.0 0.0331697434
C  C31  1  0.85160000  0.37339000  0.62021000  1.0 0.0331697434
C  C32  1  0.37339000  0.62021000  0.85160000  1.0 0.0331697434
C  C33  1  0.62021000  0.85160000  0.37339000  1.0 0.0331697434
C  C34  1  0.64840000  0.87979000  0.12661000  1.0 0.0331697434
C  C35  1  0.12661000  0.64840000  0.87979000  1.0 0.0331697434
C  C36  1  0.87979000  0.12661000  0.64840000  1.0 0.0331697434
C  C37  1  0.11512000  0.69188000  0.39940000  1.0 0.2037089425
C  C38  1  0.69188000  0.39940000  0.11512000  1.0 0.2037089425
C  C39  1  0.39940000  0.11512000  0.69188000  1.0 0.2037089425
C  C40  1  0.38488000  0.10060000  0.80812000  1.0 0.2037089425
C  C41  1  0.80812000  0.38488000  0.10060000  1.0 0.2037089425
C  C42  1  0.10060000  0.80812000  0.38488000  1.0 0.2037089425
C  C43  1  0.88488000  0.30812000  0.60060000  1.0 0.2037089425
C  C44  1  0.30812000  0.60060000  0.88488000  1.0 0.2037089425
C  C45  1  0.60060000  0.88488000  0.30812000  1.0 0.2037089425
C  C46  1  0.61512000  0.89940000  0.19188000  1.0 0.2037089425
C  C47  1  0.19188000  0.61512000  0.89940000  1.0 0.2037089425
C  C48  1  0.89940000  0.19188000  0.61512000  1.0 0.2037089425
C  C49  1  0.06869000  0.69052000  0.44779000  1.0 -0.27083862
C  C50  1  0.69052000  0.44779000  0.06869000  1.0 -0.27083862
C  C51  1  0.44779000  0.06869000  0.69052000  1.0 -0.27083862
C  C52  1  0.43131000  0.05221000  0.80948000  1.0 -0.27083862
C  C53  1  0.80948000  0.43131000  0.05221000  1.0 -0.27083862
C  C54  1  0.05221000  0.80948000  0.43131000  1.0 -0.27083862
C  C55  1  0.93131000  0.30948000  0.55221000  1.0 -0.27083862
C  C56  1  0.30948000  0.55221000  0.93131000  1.0 -0.27083862
C  C57  1  0.55221000  0.93131000  0.30948000  1.0 -0.27083862
C  C58  1  0.56869000  0.94779000  0.19052000  1.0 -0.27083862
C  C59  1  0.19052000  0.56869000  0.94779000  1.0 -0.27083862
C  C60  1  0.94779000  0.19052000  0.56869000  1.0 -0.27083862
C  C61  1  0.03595000  0.75000000  0.46405000  1.0 0.0985917454
C  C62  1  0.75000000  0.46405000  0.03595000  1.0 0.0985917454
C  C63  1  0.46405000  0.03595000  0.75000000  1.0 0.0985917454
C  C64  1  0.96405000  0.25000000  0.53595000  1.0 0.0985917454
C  C65  1  0.25000000  0.53595000  0.96405000  1.0 0.0985917454
C  C66  1  0.53595000  0.96405000  0.25000000  1.0 0.0985917454
C  C67  1  0.98535000  0.75000000  0.51465000  1.0 0.0359750907
C  C68  1  0.75000000  0.51465000  0.98535000  1.0 0.0359750907
C  C69  1  0.51465000  0.98535000  0.75000000  1.0 0.0359750907
C  C70  1  0.01465000  0.25000000  0.48535000  1.0 0.0359750907
C  C71  1  0.25000000  0.48535000  0.01465000  1.0 0.0359750907
C  C72  1  0.48535000  0.01465000  0.25000000  1.0 0.0359750907
C  C73  1  0.92760000  0.78590000  0.50700000  1.0 -0.0945361605
C  C74  1  0.78590000  0.50700000  0.92760000  1.0 -0.0945361605
C  C75  1  0.50700000  0.92760000  0.78590000  1.0 -0.0945361605
C  C76  1  0.57240000  0.99300000  0.71410000  1.0 -0.0945361605
C  C77  1  0.71410000  0.57240000  0.99300000  1.0 -0.0945361605
C  C78  1  0.99300000  0.71410000  0.57240000  1.0 -0.0945361605
C  C79  1  0.07240000  0.21410000  0.49300000  1.0 -0.0945361605
C  C80  1  0.21410000  0.49300000  0.07240000  1.0 -0.0945361605
C  C81  1  0.49300000  0.07240000  0.21410000  1.0 -0.0945361605
C  C82  1  0.42760000  0.00700000  0.28590000  1.0 -0.0945361605
C  C83  1  0.28590000  0.42760000  0.00700000  1.0 -0.0945361605
C  C84  1  0.00700000  0.28590000  0.42760000  1.0 -0.0945361605
C  C85  1  0.88250000  0.78580000  0.55610000  1.0 0.0105507577
C  C86  1  0.78580000  0.55610000  0.88250000  1.0 0.0105507577
C  C87  1  0.55610000  0.88250000  0.78580000  1.0 0.0105507577
C  C88  1  0.61750000  0.94390000  0.71420000  1.0 0.0105507577
C  C89  1  0.71420000  0.61750000  0.94390000  1.0 0.0105507577
C  C90  1  0.94390000  0.71420000  0.61750000  1.0 0.0105507577
C  C91  1  0.11750000  0.21420000  0.44390000  1.0 0.0105507577
C  C92  1  0.21420000  0.44390000  0.11750000  1.0 0.0105507577
C  C93  1  0.44390000  0.11750000  0.21420000  1.0 0.0105507577
C  C94  1  0.38250000  0.05610000  0.28580000  1.0 0.0105507577
C  C95  1  0.28580000  0.38250000  0.05610000  1.0 0.0105507577
C  C96  1  0.05610000  0.28580000  0.38250000  1.0 0.0105507577
C  C97  1  0.21790000  0.55780000  0.31130000  1.0 -0.0604240803
C  C98  1  0.55780000  0.31130000  0.21790000  1.0 -0.0604240803
C  C99  1  0.31130000  0.21790000  0.55780000  1.0 -0.0604240803
C  C100  1  0.28210000  0.18870000  0.94220000  1.0 -0.0604240803
C  C101  1  0.94220000  0.28210000  0.18870000  1.0 -0.0604240803
C  C102  1  0.18870000  0.94220000  0.28210000  1.0 -0.0604240803
C  C103  1  0.78210000  0.44220000  0.68870000  1.0 -0.0604240803
C  C104  1  0.44220000  0.68870000  0.78210000  1.0 -0.0604240803
C  C105  1  0.68870000  0.78210000  0.44220000  1.0 -0.0604240803
C  C106  1  0.71790000  0.81130000  0.05780000  1.0 -0.0604240803
C  C107  1  0.05780000  0.71790000  0.81130000  1.0 -0.0604240803
C  C108  1  0.81130000  0.05780000  0.71790000  1.0 -0.0604240803
C  C109  1  0.19290000  0.62260000  0.33180000  1.0 -0.1108016277
C  C110  1  0.62260000  0.33180000  0.19290000  1.0 -0.1108016277
C  C111  1  0.33180000  0.19290000  0.62260000  1.0 -0.1108016277
C  C112  1  0.30710000  0.16820000  0.87740000  1.0 -0.1108016277
C  C113  1  0.87740000  0.30710000  0.16820000  1.0 -0.1108016277
C  C114  1  0.16820000  0.87740000  0.30710000  1.0 -0.1108016277
C  C115  1  0.80710000  0.37740000  0.66820000  1.0 -0.1108016277
C  C116  1  0.37740000  0.66820000  0.80710000  1.0 -0.1108016277
C  C117  1  0.66820000  0.80710000  0.37740000  1.0 -0.1108016277
C  C118  1  0.69290000  0.83180000  0.12260000  1.0 -0.1108016277
C  C119  1  0.12260000  0.69290000  0.83180000  1.0 -0.1108016277
C  C120  1  0.83180000  0.12260000  0.69290000  1.0 -0.1108016277
C  C121  1  0.15220000  0.57610000  0.42860000  1.0 -0.0412438504
C  C122  1  0.57610000  0.42860000  0.15220000  1.0 -0.0412438504
C  C123  1  0.42860000  0.15220000  0.57610000  1.0 -0.0412438504
C  C124  1  0.34780000  0.07140000  0.92390000  1.0 -0.0412438504
C  C125  1  0.92390000  0.34780000  0.07140000  1.0 -0.0412438504
C  C126  1  0.07140000  0.92390000  0.34780000  1.0 -0.0412438504
C  C127  1  0.84780000  0.42390000  0.57140000  1.0 -0.0412438504
C  C128  1  0.42390000  0.57140000  0.84780000  1.0 -0.0412438504
C  C129  1  0.57140000  0.84780000  0.42390000  1.0 -0.0412438504
C  C130  1  0.65220000  0.92860000  0.07610000  1.0 -0.0412438504
C  C131  1  0.07610000  0.65220000  0.92860000  1.0 -0.0412438504
C  C132  1  0.92860000  0.07610000  0.65220000  1.0 -0.0412438504
C  C133  1  0.17890000  0.51300000  0.40770000  1.0 -0.0790235175
C  C134  1  0.51300000  0.40770000  0.17890000  1.0 -0.0790235175
C  C135  1  0.40770000  0.17890000  0.51300000  1.0 -0.0790235175
C  C136  1  0.32110000  0.09230000  0.98700000  1.0 -0.0790235175
C  C137  1  0.98700000  0.32110000  0.09230000  1.0 -0.0790235175
C  C138  1  0.09230000  0.98700000  0.32110000  1.0 -0.0790235175
C  C139  1  0.82110000  0.48700000  0.59230000  1.0 -0.0790235175
C  C140  1  0.48700000  0.59230000  0.82110000  1.0 -0.0790235175
C  C141  1  0.59230000  0.82110000  0.48700000  1.0 -0.0790235175
C  C142  1  0.67890000  0.90770000  0.01300000  1.0 -0.0790235175
C  C143  1  0.01300000  0.67890000  0.90770000  1.0 -0.0790235175
C  C144  1  0.90770000  0.01300000  0.67890000  1.0 -0.0790235175
C  C145  1  0.24270000  0.57360000  0.34090000  1.0 -0.0412438504
C  C146  1  0.57360000  0.34090000  0.24270000  1.0 -0.0412438504
C  C147  1  0.34090000  0.24270000  0.57360000  1.0 -0.0412438504
C  C148  1  0.25730000  0.15910000  0.92640000  1.0 -0.0412438504
C  C149  1  0.92640000  0.25730000  0.15910000  1.0 -0.0412438504
C  C150  1  0.15910000  0.92640000  0.25730000  1.0 -0.0412438504
C  C151  1  0.75730000  0.42640000  0.65910000  1.0 -0.0412438504
C  C152  1  0.42640000  0.65910000  0.75730000  1.0 -0.0412438504
C  C153  1  0.65910000  0.75730000  0.42640000  1.0 -0.0412438504
C  C154  1  0.74270000  0.84090000  0.07360000  1.0 -0.0412438504
C  C155  1  0.07360000  0.74270000  0.84090000  1.0 -0.0412438504
C  C156  1  0.84090000  0.07360000  0.74270000  1.0 -0.0412438504
C  C157  1  0.21230000  0.63510000  0.35390000  1.0 -0.1037449416
C  C158  1  0.63510000  0.35390000  0.21230000  1.0 -0.1037449416
C  C159  1  0.35390000  0.21230000  0.63510000  1.0 -0.1037449416
C  C160  1  0.28770000  0.14610000  0.86490000  1.0 -0.1037449416
C  C161  1  0.86490000  0.28770000  0.14610000  1.0 -0.1037449416
C  C162  1  0.14610000  0.86490000  0.28770000  1.0 -0.1037449416
C  C163  1  0.78770000  0.36490000  0.64610000  1.0 -0.1037449416
C  C164  1  0.36490000  0.64610000  0.78770000  1.0 -0.1037449416
C  C165  1  0.64610000  0.78770000  0.36490000  1.0 -0.1037449416
C  C166  1  0.71230000  0.85390000  0.13510000  1.0 -0.1037449416
C  C167  1  0.13510000  0.71230000  0.85390000  1.0 -0.1037449416
C  C168  1  0.85390000  0.13510000  0.71230000  1.0 -0.1037449416
C  C169  1  0.09760000  0.54470000  0.37000000  1.0 -0.0945361605
C  C170  1  0.54470000  0.37000000  0.09760000  1.0 -0.0945361605
C  C171  1  0.37000000  0.09760000  0.54470000  1.0 -0.0945361605
C  C172  1  0.40240000  0.13000000  0.95530000  1.0 -0.0945361605
C  C173  1  0.95530000  0.40240000  0.13000000  1.0 -0.0945361605
C  C174  1  0.13000000  0.95530000  0.40240000  1.0 -0.1037449416
C  C175  1  0.90240000  0.45530000  0.63000000  1.0 -0.0945361605
C  C176  1  0.45530000  0.63000000  0.90240000  1.0 -0.0945361605
C  C177  1  0.63000000  0.90240000  0.45530000  1.0 -0.0945361605
C  C178  1  0.59760000  0.87000000  0.04470000  1.0 -0.0945361605
C  C179  1  0.04470000  0.59760000  0.87000000  1.0 -0.0945361605
C  C180  1  0.87000000  0.04470000  0.59760000  1.0 -0.0945361605
C  C181  1  0.12770000  0.48280000  0.35500000  1.0 -0.0604240803
C  C182  1  0.48280000  0.35500000  0.12770000  1.0 -0.0604240803
C  C183  1  0.35500000  0.12770000  0.48280000  1.0 -0.0604240803
C  C184  1  0.37230000  0.14500000  0.01720000  1.0 -0.0604240803
C  C185  1  0.01720000  0.37230000  0.14500000  1.0 -0.0604240803
C  C186  1  0.14500000  0.01720000  0.37230000  1.0 -0.0604240803
C  C187  1  0.87230000  0.51720000  0.64500000  1.0 -0.0604240803
C  C188  1  0.51720000  0.64500000  0.87230000  1.0 -0.0604240803
C  C189  1  0.64500000  0.87230000  0.51720000  1.0 -0.0604240803
C  C190  1  0.62770000  0.85500000  0.98280000  1.0 -0.0604240803
C  C191  1  0.98280000  0.62770000  0.85500000  1.0 -0.0604240803
C  C192  1  0.85500000  0.98280000  0.62770000  1.0 -0.0604240803
C  C193  1  0.93810000  0.68000000  0.51390000  1.0 -0.0790235175
C  C194  1  0.68000000  0.51390000  0.93810000  1.0 -0.0790235175
C  C195  1  0.51390000  0.93810000  0.68000000  1.0 -0.0790235175
C  C196  1  0.56190000  0.98610000  0.82000000  1.0 -0.0790235175
C  C197  1  0.82000000  0.56190000  0.98610000  1.0 -0.0790235175
C  C198  1  0.98610000  0.82000000  0.56190000  1.0 -0.0790235175
C  C199  1  0.06190000  0.32000000  0.48610000  1.0 -0.0790235175
C  C200  1  0.32000000  0.48610000  0.06190000  1.0 -0.0790235175
C  C201  1  0.48610000  0.06190000  0.32000000  1.0 -0.0790235175
C  C202  1  0.43810000  0.01390000  0.18000000  1.0 -0.0790235175
C  C203  1  0.18000000  0.43810000  0.01390000  1.0 -0.0790235175
C  C204  1  0.01390000  0.18000000  0.43810000  1.0 -0.0790235175
C  C205  1  0.88680000  0.67950000  0.55880000  1.0 0.0105507577
C  C206  1  0.67950000  0.55880000  0.88680000  1.0 0.0105507577
C  C207  1  0.55880000  0.88680000  0.67950000  1.0 0.0105507577
C  C208  1  0.61320000  0.94120000  0.82050000  1.0 0.0105507577
C  C209  1  0.82050000  0.61320000  0.94120000  1.0 0.0105507577
C  C210  1  0.94120000  0.82050000  0.61320000  1.0 0.0105507577
C  C211  1  0.11320000  0.32050000  0.44120000  1.0 0.0105507577
C  C212  1  0.32050000  0.44120000  0.11320000  1.0 0.0105507577
C  C213  1  0.44120000  0.11320000  0.32050000  1.0 0.0105507577
C  C214  1  0.38680000  0.05880000  0.17950000  1.0 0.0105507577
C  C215  1  0.17950000  0.38680000  0.05880000  1.0 0.0105507577
C  C216  1  0.05880000  0.17950000  0.38680000  1.0 0.0105507577
N  N1  1  0.88973000  0.75000000  0.61027000  1.0 -0.1544061817
N  N2  1  0.75000000  0.61027000  0.88973000  1.0 -0.157694108
N  N3  1  0.61027000  0.88973000  0.75000000  1.0 -0.157694108
N  N4  1  0.11027000  0.25000000  0.38973000  1.0 -0.157694108
N  N5  1  0.25000000  0.38973000  0.11027000  1.0 -0.157694108
N  N6  1  0.38973000  0.11027000  0.25000000  1.0 -0.157694108
N  N7  1  0.13146000  0.75000000  0.36854000  1.0 -0.3525874384
N  N8  1  0.75000000  0.36854000  0.13146000  1.0 -0.3525874384
N  N9  1  0.36854000  0.13146000  0.75000000  1.0 -0.3525874384
N  N10  1  0.86854000  0.25000000  0.63146000  1.0 -0.3525874384
N  N11  1  0.25000000  0.63146000  0.86854000  1.0 -0.3525874384
N  N12  1  0.63146000  0.86854000  0.25000000  1.0 -0.3525874384
O  O1  1  0.75000000  0.75000000  0.75000000  1.0 -0.7300721027
O  O2  1  0.25000000  0.25000000  0.25000000  1.0 -0.7300721027
O  O3  1  0.27511000  0.42599000  0.28117000  1.0 -0.5279231585
O  O4  1  0.42599000  0.28117000  0.27511000  1.0 -0.5279231585
O  O5  1  0.28117000  0.27511000  0.42599000  1.0 -0.5279231585
O  O6  1  0.22489000  0.21883000  0.07401000  1.0 -0.5279231585
O  O7  1  0.07401000  0.22489000  0.21883000  1.0 -0.5279231585
O  O8  1  0.21883000  0.07401000  0.22489000  1.0 -0.5279231585
O  O9  1  0.72489000  0.57401000  0.71883000  1.0 -0.5279231585
O  O10  1  0.57401000  0.71883000  0.72489000  1.0 -0.5279231585
O  O11  1  0.71883000  0.72489000  0.57401000  1.0 -0.5279231585
O  O12  1  0.77511000  0.78117000  0.92599000  1.0 -0.5279231585
O  O13  1  0.92599000  0.77511000  0.78117000  1.0 -0.5279231585
O  O14  1  0.78117000  0.92599000  0.77511000  1.0 -0.5279231585
O  O15  1  0.20596000  0.37348000  0.34991000  1.0 -0.5371330199
O  O16  1  0.37348000  0.34991000  0.20596000  1.0 -0.5371330199
O  O17  1  0.34991000  0.20596000  0.37348000  1.0 -0.5371330199
O  O18  1  0.29404000  0.15009000  0.12652000  1.0 -0.5371330199
O  O19  1  0.12652000  0.29404000  0.15009000  1.0 -0.5371330199
O  O20  1  0.15009000  0.12652000  0.29404000  1.0 -0.5371330199
O  O21  1  0.79404000  0.62652000  0.65009000  1.0 -0.5371330199
O  O22  1  0.62652000  0.65009000  0.79404000  1.0 -0.5371330199
O  O23  1  0.65009000  0.79404000  0.62652000  1.0 -0.5371330199
O  O24  1  0.70596000  0.84991000  0.87348000  1.0 -0.5371330199
O  O25  1  0.87348000  0.70596000  0.84991000  1.0 -0.5371330199
O  O26  1  0.84991000  0.87348000  0.70596000  1.0 -0.5371330199
