# DDEC6 charges by PACMAN v1.1 (https://github.com/mtap-research/PACMAN-charge/)
data_KEVBOE_FSR_pacman
_symmetry_space_group_name_H-M   'P 1'
_cell_length_a   18.36930000
_cell_length_b   18.36930000
_cell_length_c   18.36930000
_cell_angle_alpha   106.03300000
_cell_angle_beta   106.03300000
_cell_angle_gamma   106.03300000
_symmetry_Int_Tables_number   1
_chemical_formula_structural   Ni3H80C108N6O13
_chemical_formula_sum   'Ni6 H160 C216 N12 O26'
_cell_volume   5292.33463186
_cell_formula_units_Z   2
loop_
 _symmetry_equiv_pos_site_id
 _symmetry_equiv_pos_as_xyz
  1  'x, y, z'
loop_
 _atom_site_type_symbol
 _atom_site_label
 _atom_site_symmetry_multiplicity
 _atom_site_fract_x
 _atom_site_fract_y
 _atom_site_fract_z
 _atom_site_occupancy
 _atom_site_charge
Ni  Ni1  1  0.81866000  0.75000000  0.68134000  1.0 0.7406052588
Ni  Ni2  1  0.75000000  0.68134000  0.81866000  1.0 0.7406052588
Ni  Ni3  1  0.68134000  0.81866000  0.75000000  1.0 0.7406052588
Ni  Ni4  1  0.18134000  0.25000000  0.31866000  1.0 0.7406052588
Ni  Ni5  1  0.25000000  0.31866000  0.18134000  1.0 0.7406052588
Ni  Ni6  1  0.31866000  0.18134000  0.25000000  1.0 0.7406052588
H  H1  1  0.28860000  0.58090000  0.32640000  1.0 0.0674582271
H  H2  1  0.58090000  0.32640000  0.28860000  1.0 0.0674582271
H  H3  1  0.32640000  0.28860000  0.58090000  1.0 0.0674582271
H  H4  1  0.21140000  0.17360000  0.91910000  1.0 0.0674582271
H  H5  1  0.91910000  0.21140000  0.17360000  1.0 0.0674582271
H  H6  1  0.17360000  0.91910000  0.21140000  1.0 0.0674582271
H  H7  1  0.71140000  0.41910000  0.67360000  1.0 0.0674582271
H  H8  1  0.41910000  0.67360000  0.71140000  1.0 0.0674582271
H  H9  1  0.67360000  0.71140000  0.41910000  1.0 0.0674582271
H  H10  1  0.78860000  0.82640000  0.08090000  1.0 0.0674582271
H  H11  1  0.08090000  0.78860000  0.82640000  1.0 0.0674582271
H  H12  1  0.82640000  0.08090000  0.78860000  1.0 0.0674582271
H  H13  1  0.23710000  0.68180000  0.34630000  1.0 0.0893524369
H  H14  1  0.68180000  0.34630000  0.23710000  1.0 0.0893524369
H  H15  1  0.34630000  0.23710000  0.68180000  1.0 0.0893524369
H  H16  1  0.26290000  0.15370000  0.81820000  1.0 0.0893524369
H  H17  1  0.81820000  0.26290000  0.15370000  1.0 0.0893524369
H  H18  1  0.15370000  0.81820000  0.26290000  1.0 0.0893524369
H  H19  1  0.76290000  0.31820000  0.65370000  1.0 0.0893524369
H  H20  1  0.31820000  0.65370000  0.76290000  1.0 0.0893524369
H  H21  1  0.65370000  0.76290000  0.31820000  1.0 0.0893524369
H  H22  1  0.73710000  0.84630000  0.18180000  1.0 0.0893524369
H  H23  1  0.18180000  0.73710000  0.84630000  1.0 0.0893524369
H  H24  1  0.84630000  0.18180000  0.73710000  1.0 0.0893524369
H  H25  1  0.05350000  0.53950000  0.38120000  1.0 0.0893524369
H  H26  1  0.53950000  0.38120000  0.05350000  1.0 0.0893524369
H  H27  1  0.38120000  0.05350000  0.53950000  1.0 0.0893524369
H  H28  1  0.44650000  0.11880000  0.96050000  1.0 0.0893524369
H  H29  1  0.96050000  0.44650000  0.11880000  1.0 0.0893524369
H  H30  1  0.11880000  0.96050000  0.44650000  1.0 0.0893524369
H  H31  1  0.94650000  0.46050000  0.61880000  1.0 0.0893524369
H  H32  1  0.46050000  0.61880000  0.94650000  1.0 0.0893524369
H  H33  1  0.61880000  0.94650000  0.46050000  1.0 0.0893524369
H  H34  1  0.55350000  0.88120000  0.03950000  1.0 0.0893524369
H  H35  1  0.03950000  0.55350000  0.88120000  1.0 0.0893524369
H  H36  1  0.88120000  0.03950000  0.55350000  1.0 0.0893524369
H  H37  1  0.10050000  0.43670000  0.36050000  1.0 0.0674582271
H  H38  1  0.43670000  0.36050000  0.10050000  1.0 0.0674582271
H  H39  1  0.36050000  0.10050000  0.43670000  1.0 0.0674582271
H  H40  1  0.39950000  0.13950000  0.06330000  1.0 0.0674582271
H  H41  1  0.06330000  0.39950000  0.13950000  1.0 0.0674582271
H  H42  1  0.13950000  0.06330000  0.39950000  1.0 0.0674582271
H  H43  1  0.89950000  0.56330000  0.63950000  1.0 0.0674582271
H  H44  1  0.56330000  0.63950000  0.89950000  1.0 0.0674582271
H  H45  1  0.63950000  0.89950000  0.56330000  1.0 0.0674582271
H  H46  1  0.60050000  0.86050000  0.93670000  1.0 0.0674582271
H  H47  1  0.93670000  0.60050000  0.86050000  1.0 0.0674582271
H  H48  1  0.86050000  0.93670000  0.60050000  1.0 0.0674582271
H  H49  1  0.05910000  0.64960000  0.46770000  1.0 0.1004023057
H  H50  1  0.64960000  0.46770000  0.05910000  1.0 0.1004023057
H  H51  1  0.46770000  0.05910000  0.64960000  1.0 0.1004023057
H  H52  1  0.44090000  0.03230000  0.85040000  1.0 0.1004023057
H  H53  1  0.85040000  0.44090000  0.03230000  1.0 0.1004023057
H  H54  1  0.03230000  0.85040000  0.44090000  1.0 0.1004023057
H  H55  1  0.94090000  0.35040000  0.53230000  1.0 0.1004023057
H  H56  1  0.35040000  0.53230000  0.94090000  1.0 0.1004023057
H  H57  1  0.53230000  0.94090000  0.35040000  1.0 0.1004023057
H  H58  1  0.55910000  0.96770000  0.14960000  1.0 0.1004023057
H  H59  1  0.14960000  0.55910000  0.96770000  1.0 0.1004023057
H  H60  1  0.96770000  0.14960000  0.55910000  1.0 0.1004023057
H  H61  1  0.92050000  0.81110000  0.46940000  1.0 0.0893524369
H  H62  1  0.81110000  0.46940000  0.92050000  1.0 0.0893524369
H  H63  1  0.46940000  0.92050000  0.81110000  1.0 0.0893524369
H  H64  1  0.57950000  0.03060000  0.68890000  1.0 0.0893524369
H  H65  1  0.68890000  0.57950000  0.03060000  1.0 0.0893524369
H  H66  1  0.03060000  0.68890000  0.57950000  1.0 0.0893524369
H  H67  1  0.07950000  0.18890000  0.53060000  1.0 0.0893524369
H  H68  1  0.18890000  0.53060000  0.07950000  1.0 0.0893524369
H  H69  1  0.53060000  0.07950000  0.18890000  1.0 0.0893524369
H  H70  1  0.42050000  0.96940000  0.31110000  1.0 0.0893524369
H  H71  1  0.31110000  0.42050000  0.96940000  1.0 0.0893524369
H  H72  1  0.96940000  0.31110000  0.42050000  1.0 0.0893524369
H  H73  1  0.84680000  0.81200000  0.55060000  1.0 0.0893524369
H  H74  1  0.81200000  0.55060000  0.84680000  1.0 0.0893524369
H  H75  1  0.55060000  0.84680000  0.81200000  1.0 0.0893524369
H  H76  1  0.65320000  0.94940000  0.68800000  1.0 0.0893524369
H  H77  1  0.68800000  0.65320000  0.94940000  1.0 0.0893524369
H  H78  1  0.94940000  0.68800000  0.65320000  1.0 0.0893524369
H  H79  1  0.15320000  0.18800000  0.44940000  1.0 0.0893524369
H  H80  1  0.18800000  0.44940000  0.15320000  1.0 0.0893524369
H  H81  1  0.44940000  0.15320000  0.18800000  1.0 0.0893524369
H  H82  1  0.34680000  0.05060000  0.31200000  1.0 0.0893524369
H  H83  1  0.31200000  0.34680000  0.05060000  1.0 0.0893524369
H  H84  1  0.05060000  0.31200000  0.34680000  1.0 0.0893524369
H  H85  1  0.23840000  0.54990000  0.26900000  1.0 0.0674582271
H  H86  1  0.54990000  0.26900000  0.23840000  1.0 0.0674582271
H  H87  1  0.26900000  0.23840000  0.54990000  1.0 0.0674582271
H  H88  1  0.26160000  0.23100000  0.95010000  1.0 0.0674582271
H  H89  1  0.95010000  0.26160000  0.23100000  1.0 0.0674582271
H  H90  1  0.23100000  0.95010000  0.26160000  1.0 0.0674582271
H  H91  1  0.76160000  0.45010000  0.73100000  1.0 0.0674582271
H  H92  1  0.45010000  0.73100000  0.76160000  1.0 0.0674582271
H  H93  1  0.73100000  0.76160000  0.45010000  1.0 0.0674582271
H  H94  1  0.73840000  0.76900000  0.04990000  1.0 0.0674582271
H  H95  1  0.04990000  0.73840000  0.76900000  1.0 0.0674582271
H  H96  1  0.76900000  0.04990000  0.73840000  1.0 0.0674582271
H  H97  1  0.19730000  0.65900000  0.30390000  1.0 0.0818595163
H  H98  1  0.65900000  0.30390000  0.19730000  1.0 0.0818595163
H  H99  1  0.30390000  0.19730000  0.65900000  1.0 0.0818595163
H  H100  1  0.30270000  0.19610000  0.84100000  1.0 0.0818595163
H  H101  1  0.84100000  0.30270000  0.19610000  1.0 0.0818595163
H  H102  1  0.19610000  0.84100000  0.30270000  1.0 0.0818595163
H  H103  1  0.80270000  0.34100000  0.69610000  1.0 0.0818595163
H  H104  1  0.34100000  0.69610000  0.80270000  1.0 0.0818595163
H  H105  1  0.69610000  0.80270000  0.34100000  1.0 0.0818595163
H  H106  1  0.69730000  0.80390000  0.15900000  1.0 0.0818595163
H  H107  1  0.15900000  0.69730000  0.80390000  1.0 0.0818595163
H  H108  1  0.80390000  0.15900000  0.69730000  1.0 0.0818595163
H  H109  1  0.13010000  0.58110000  0.46910000  1.0 0.0818595163
H  H110  1  0.58110000  0.46910000  0.13010000  1.0 0.0818595163
H  H111  1  0.46910000  0.13010000  0.58110000  1.0 0.0818595163
H  H112  1  0.36990000  0.03090000  0.91890000  1.0 0.0818595163
H  H113  1  0.91890000  0.36990000  0.03090000  1.0 0.0818595163
H  H114  1  0.03090000  0.91890000  0.36990000  1.0 0.0818595163
H  H115  1  0.86990000  0.41890000  0.53090000  1.0 0.0818595163
H  H116  1  0.41890000  0.53090000  0.86990000  1.0 0.0818595163
H  H117  1  0.53090000  0.86990000  0.41890000  1.0 0.0818595163
H  H118  1  0.63010000  0.96910000  0.08110000  1.0 0.0818595163
H  H119  1  0.08110000  0.63010000  0.96910000  1.0 0.0818595163
H  H120  1  0.96910000  0.08110000  0.63010000  1.0 0.0818595163
H  H121  1  0.17720000  0.47670000  0.43490000  1.0 0.0818595163
H  H122  1  0.47670000  0.43490000  0.17720000  1.0 0.0818595163
H  H123  1  0.43490000  0.17720000  0.47670000  1.0 0.0818595163
H  H124  1  0.32280000  0.06510000  0.02330000  1.0 0.0818595163
H  H125  1  0.02330000  0.32280000  0.06510000  1.0 0.0818595163
H  H126  1  0.06510000  0.02330000  0.32280000  1.0 0.0818595163
H  H127  1  0.82280000  0.52330000  0.56510000  1.0 0.0818595163
H  H128  1  0.52330000  0.56510000  0.82280000  1.0 0.0818595163
H  H129  1  0.56510000  0.82280000  0.52330000  1.0 0.0818595163
H  H130  1  0.67720000  0.93490000  0.97670000  1.0 0.0818595163
H  H131  1  0.97670000  0.67720000  0.93490000  1.0 0.0818595163
H  H132  1  0.93490000  0.97670000  0.67720000  1.0 0.0818595163
H  H133  1  0.92090000  0.63180000  0.46680000  1.0 0.0893524369
H  H134  1  0.63180000  0.46680000  0.92090000  1.0 0.0893524369
H  H135  1  0.46680000  0.92090000  0.63180000  1.0 0.0893524369
H  H136  1  0.57910000  0.03320000  0.86820000  1.0 0.0893524369
H  H137  1  0.86820000  0.57910000  0.03320000  1.0 0.0893524369
H  H138  1  0.03320000  0.86820000  0.57910000  1.0 0.0893524369
H  H139  1  0.07910000  0.36820000  0.53320000  1.0 0.0893524369
H  H140  1  0.36820000  0.53320000  0.07910000  1.0 0.0893524369
H  H141  1  0.53320000  0.07910000  0.36820000  1.0 0.0893524369
H  H142  1  0.42090000  0.96680000  0.13180000  1.0 0.0893524369
H  H143  1  0.13180000  0.42090000  0.96680000  1.0 0.0893524369
H  H144  1  0.96680000  0.13180000  0.42090000  1.0 0.0893524369
H  H145  1  0.84520000  0.63580000  0.55110000  1.0 0.1004023057
H  H146  1  0.63580000  0.55110000  0.84520000  1.0 0.1004023057
H  H147  1  0.55110000  0.84520000  0.63580000  1.0 0.1004023057
H  H148  1  0.65480000  0.94890000  0.86420000  1.0 0.1004023057
H  H149  1  0.86420000  0.65480000  0.94890000  1.0 0.1004023057
H  H150  1  0.94890000  0.86420000  0.65480000  1.0 0.1004023057
H  H151  1  0.15480000  0.36420000  0.44890000  1.0 0.1004023057
H  H152  1  0.36420000  0.44890000  0.15480000  1.0 0.1004023057
H  H153  1  0.44890000  0.15480000  0.36420000  1.0 0.1004023057
H  H154  1  0.34520000  0.05110000  0.13580000  1.0 0.1004023057
H  H155  1  0.13580000  0.34520000  0.05110000  1.0 0.1004023057
H  H156  1  0.05110000  0.13580000  0.34520000  1.0 0.1004023057
H  H157  1  0.70397000  0.70397000  0.70397000  1.0 0.3216400979
H  H158  1  0.79603000  0.79603000  0.79603000  1.0 0.3216400979
H  H159  1  0.29603000  0.29603000  0.29603000  1.0 0.3216400979
H  H160  1  0.20397000  0.20397000  0.20397000  1.0 0.3216400979
C  C1  1  0.23114000  0.42677000  0.32373000  1.0 0.5249672471
C  C2  1  0.42677000  0.32373000  0.23114000  1.0 0.5249672471
C  C3  1  0.32373000  0.23114000  0.42677000  1.0 0.5249672471
C  C4  1  0.26886000  0.17627000  0.07323000  1.0 0.5249672471
C  C5  1  0.07323000  0.26886000  0.17627000  1.0 0.5249672471
C  C6  1  0.17627000  0.07323000  0.26886000  1.0 0.5249672471
C  C7  1  0.76886000  0.57323000  0.67627000  1.0 0.5254054605
C  C8  1  0.57323000  0.67627000  0.76886000  1.0 0.5249672471
C  C9  1  0.67627000  0.76886000  0.57323000  1.0 0.5249672471
C  C10  1  0.73114000  0.82373000  0.92677000  1.0 0.5249672471
C  C11  1  0.92677000  0.73114000  0.82373000  1.0 0.5249672471
C  C12  1  0.82373000  0.92677000  0.73114000  1.0 0.5254054605
C  C13  1  0.20645000  0.49973000  0.34482000  1.0 -0.0229250789
C  C14  1  0.49973000  0.34482000  0.20645000  1.0 -0.0295203337
C  C15  1  0.34482000  0.20645000  0.49973000  1.0 -0.0229250789
C  C16  1  0.29355000  0.15518000  0.00027000  1.0 -0.0229250789
C  C17  1  0.00027000  0.29355000  0.15518000  1.0 -0.0229250789
C  C18  1  0.15518000  0.00027000  0.29355000  1.0 -0.0229250789
C  C19  1  0.79355000  0.50027000  0.65518000  1.0 -0.0229250789
C  C20  1  0.50027000  0.65518000  0.79355000  1.0 -0.0229250789
C  C21  1  0.65518000  0.79355000  0.50027000  1.0 -0.0229250789
C  C22  1  0.70645000  0.84482000  0.99973000  1.0 -0.0229250789
C  C23  1  0.99973000  0.70645000  0.84482000  1.0 -0.0229250789
C  C24  1  0.84482000  0.99973000  0.70645000  1.0 -0.0295203337
C  C25  1  0.24250000  0.57250000  0.33980000  1.0 -0.0295203337
C  C26  1  0.57250000  0.33980000  0.24250000  1.0 -0.0295203337
C  C27  1  0.33980000  0.24250000  0.57250000  1.0 -0.0295203337
C  C28  1  0.25750000  0.16020000  0.92750000  1.0 -0.0295203337
C  C29  1  0.92750000  0.25750000  0.16020000  1.0 -0.0295203337
C  C30  1  0.16020000  0.92750000  0.25750000  1.0 -0.0295203337
C  C31  1  0.75750000  0.42750000  0.66020000  1.0 -0.0295203337
C  C32  1  0.42750000  0.66020000  0.75750000  1.0 -0.0295203337
C  C33  1  0.66020000  0.75750000  0.42750000  1.0 -0.0295203337
C  C34  1  0.74250000  0.83980000  0.07250000  1.0 -0.0295203337
C  C35  1  0.07250000  0.74250000  0.83980000  1.0 -0.0295203337
C  C36  1  0.83980000  0.07250000  0.74250000  1.0 -0.0295203337
C  C37  1  0.21300000  0.63430000  0.35400000  1.0 -0.0690767388
C  C38  1  0.63430000  0.35400000  0.21300000  1.0 -0.0690767388
C  C39  1  0.35400000  0.21300000  0.63430000  1.0 -0.0690767388
C  C40  1  0.28700000  0.14600000  0.86570000  1.0 -0.0690767388
C  C41  1  0.86570000  0.28700000  0.14600000  1.0 -0.0690767388
C  C42  1  0.14600000  0.86570000  0.28700000  1.0 -0.0690767388
C  C43  1  0.78700000  0.36570000  0.64600000  1.0 -0.0644749687
C  C44  1  0.36570000  0.64600000  0.78700000  1.0 -0.0690767388
C  C45  1  0.64600000  0.78700000  0.36570000  1.0 -0.0690767388
C  C46  1  0.71300000  0.85400000  0.13430000  1.0 -0.0690767388
C  C47  1  0.13430000  0.71300000  0.85400000  1.0 -0.0690767388
C  C48  1  0.85400000  0.13430000  0.71300000  1.0 -0.0690767388
C  C49  1  0.10310000  0.54870000  0.37460000  1.0 -0.1019734158
C  C50  1  0.54870000  0.37460000  0.10310000  1.0 -0.1019734158
C  C51  1  0.37460000  0.10310000  0.54870000  1.0 -0.1019734158
C  C52  1  0.39690000  0.12540000  0.95130000  1.0 -0.1019734158
C  C53  1  0.95130000  0.39690000  0.12540000  1.0 -0.1019734158
C  C54  1  0.12540000  0.95130000  0.39690000  1.0 -0.1019734158
C  C55  1  0.89690000  0.45130000  0.62540000  1.0 -0.1019734158
C  C56  1  0.45130000  0.62540000  0.89690000  1.0 -0.1019734158
C  C57  1  0.62540000  0.89690000  0.45130000  1.0 -0.1019734158
C  C58  1  0.60310000  0.87460000  0.04870000  1.0 -0.1019734158
C  C59  1  0.04870000  0.60310000  0.87460000  1.0 -0.1019734158
C  C60  1  0.87460000  0.04870000  0.60310000  1.0 -0.1019734158
C  C61  1  0.12980000  0.48690000  0.36050000  1.0 -0.0826014006
C  C62  1  0.48690000  0.36050000  0.12980000  1.0 -0.0826014006
C  C63  1  0.36050000  0.12980000  0.48690000  1.0 -0.0826014006
C  C64  1  0.37020000  0.13950000  0.01310000  1.0 -0.0826014006
C  C65  1  0.01310000  0.37020000  0.13950000  1.0 -0.0826014006
C  C66  1  0.13950000  0.01310000  0.37020000  1.0 -0.0826014006
C  C67  1  0.87020000  0.51310000  0.63950000  1.0 -0.0826014006
C  C68  1  0.51310000  0.63950000  0.87020000  1.0 -0.0826014006
C  C69  1  0.63950000  0.87020000  0.51310000  1.0 -0.0826014006
C  C70  1  0.62980000  0.86050000  0.98690000  1.0 -0.0826014006
C  C71  1  0.98690000  0.62980000  0.86050000  1.0 -0.0826014006
C  C72  1  0.86050000  0.98690000  0.62980000  1.0 -0.0826014006
C  C73  1  0.14819000  0.62632000  0.37939000  1.0 0.019802938
C  C74  1  0.62632000  0.37939000  0.14819000  1.0 0.019802938
C  C75  1  0.37939000  0.14819000  0.62632000  1.0 0.019802938
C  C76  1  0.35181000  0.12061000  0.87368000  1.0 0.019802938
C  C77  1  0.87368000  0.35181000  0.12061000  1.0 0.019802938
C  C78  1  0.12061000  0.87368000  0.35181000  1.0 0.019802938
C  C79  1  0.85181000  0.37368000  0.62061000  1.0 0.019802938
C  C80  1  0.37368000  0.62061000  0.85181000  1.0 0.019802938
C  C81  1  0.62061000  0.85181000  0.37368000  1.0 0.019802938
C  C82  1  0.64819000  0.87939000  0.12632000  1.0 0.019802938
C  C83  1  0.12632000  0.64819000  0.87939000  1.0 0.019802938
C  C84  1  0.87939000  0.12632000  0.64819000  1.0 0.019802938
C  C85  1  0.11466000  0.69142000  0.39822000  1.0 0.1985357144
C  C86  1  0.69142000  0.39822000  0.11466000  1.0 0.1985357144
C  C87  1  0.39822000  0.11466000  0.69142000  1.0 0.1985357144
C  C88  1  0.38534000  0.10178000  0.80858000  1.0 0.1985357144
C  C89  1  0.80858000  0.38534000  0.10178000  1.0 0.1985357144
C  C90  1  0.10178000  0.80858000  0.38534000  1.0 0.1985357144
C  C91  1  0.88534000  0.30858000  0.60178000  1.0 0.1985357144
C  C92  1  0.30858000  0.60178000  0.88534000  1.0 0.1985357144
C  C93  1  0.60178000  0.88534000  0.30858000  1.0 0.1985357144
C  C94  1  0.61466000  0.89822000  0.19142000  1.0 0.1985357144
C  C95  1  0.19142000  0.61466000  0.89822000  1.0 0.1985357144
C  C96  1  0.89822000  0.19142000  0.61466000  1.0 0.1985357144
C  C97  1  0.06843000  0.69038000  0.44669000  1.0 -0.2604232429
C  C98  1  0.69038000  0.44669000  0.06843000  1.0 -0.2604232429
C  C99  1  0.44669000  0.06843000  0.69038000  1.0 -0.2604232429
C  C100  1  0.43157000  0.05331000  0.80962000  1.0 -0.2604232429
C  C101  1  0.80962000  0.43157000  0.05331000  1.0 -0.2604232429
C  C102  1  0.05331000  0.80962000  0.43157000  1.0 -0.2604232429
C  C103  1  0.93157000  0.30962000  0.55331000  1.0 -0.2604232429
C  C104  1  0.30962000  0.55331000  0.93157000  1.0 -0.2604232429
C  C105  1  0.55331000  0.93157000  0.30962000  1.0 -0.2604232429
C  C106  1  0.56843000  0.94669000  0.19038000  1.0 -0.2604232429
C  C107  1  0.19038000  0.56843000  0.94669000  1.0 -0.2604232429
C  C108  1  0.94669000  0.19038000  0.56843000  1.0 -0.2604232429
C  C109  1  0.03624000  0.75000000  0.46376000  1.0 0.1004023057
C  C110  1  0.75000000  0.46376000  0.03624000  1.0 0.1004023057
C  C111  1  0.46376000  0.03624000  0.75000000  1.0 0.1004023057
C  C112  1  0.96376000  0.25000000  0.53624000  1.0 0.1004023057
C  C113  1  0.25000000  0.53624000  0.96376000  1.0 0.1004023057
C  C114  1  0.53624000  0.96376000  0.25000000  1.0 0.1004023057
C  C115  1  0.98583000  0.75000000  0.51417000  1.0 0.0674582271
C  C116  1  0.75000000  0.51417000  0.98583000  1.0 0.0674582271
C  C117  1  0.51417000  0.98583000  0.75000000  1.0 0.0674582271
C  C118  1  0.01417000  0.25000000  0.48583000  1.0 0.0674582271
C  C119  1  0.25000000  0.48583000  0.01417000  1.0 0.0674582271
C  C120  1  0.48583000  0.01417000  0.25000000  1.0 0.0674582271
C  C121  1  0.92850000  0.78630000  0.50720000  1.0 -0.1053745112
C  C122  1  0.78630000  0.50720000  0.92850000  1.0 -0.1053745112
C  C123  1  0.50720000  0.92850000  0.78630000  1.0 -0.1053745112
C  C124  1  0.57150000  0.99280000  0.71370000  1.0 -0.1053745112
C  C125  1  0.71370000  0.57150000  0.99280000  1.0 -0.1053745112
C  C126  1  0.99280000  0.71370000  0.57150000  1.0 -0.1053745112
C  C127  1  0.07150000  0.21370000  0.49280000  1.0 -0.1053745112
C  C128  1  0.21370000  0.49280000  0.07150000  1.0 -0.1053745112
C  C129  1  0.49280000  0.07150000  0.21370000  1.0 -0.1053745112
C  C130  1  0.42850000  0.00720000  0.28630000  1.0 -0.1053745112
C  C131  1  0.28630000  0.42850000  0.00720000  1.0 -0.1053745112
C  C132  1  0.00720000  0.28630000  0.42850000  1.0 -0.1053745112
C  C133  1  0.88350000  0.78600000  0.55580000  1.0 -0.0229250789
C  C134  1  0.78600000  0.55580000  0.88350000  1.0 -0.0229250789
C  C135  1  0.55580000  0.88350000  0.78600000  1.0 -0.0229250789
C  C136  1  0.61650000  0.94420000  0.71400000  1.0 -0.0229250789
C  C137  1  0.71400000  0.61650000  0.94420000  1.0 -0.0229250789
C  C138  1  0.94420000  0.71400000  0.61650000  1.0 -0.0229250789
C  C139  1  0.11650000  0.21400000  0.44420000  1.0 -0.0229250789
C  C140  1  0.21400000  0.44420000  0.11650000  1.0 -0.0229250789
C  C141  1  0.44420000  0.11650000  0.21400000  1.0 -0.0229250789
C  C142  1  0.38350000  0.05580000  0.28600000  1.0 -0.0229250789
C  C143  1  0.28600000  0.38350000  0.05580000  1.0 -0.0229250789
C  C144  1  0.05580000  0.28600000  0.38350000  1.0 -0.0229250789
C  C145  1  0.21460000  0.55530000  0.30780000  1.0 -0.0510027631
C  C146  1  0.55530000  0.30780000  0.21460000  1.0 -0.0510027631
C  C147  1  0.30780000  0.21460000  0.55530000  1.0 -0.0510027631
C  C148  1  0.28540000  0.19220000  0.94470000  1.0 -0.0510027631
C  C149  1  0.94470000  0.28540000  0.19220000  1.0 -0.0510027631
C  C150  1  0.19220000  0.94470000  0.28540000  1.0 -0.0510027631
C  C151  1  0.78540000  0.44470000  0.69220000  1.0 -0.0510027631
C  C152  1  0.44470000  0.69220000  0.78540000  1.0 -0.0510027631
C  C153  1  0.69220000  0.78540000  0.44470000  1.0 -0.0510027631
C  C154  1  0.71460000  0.80780000  0.05530000  1.0 -0.0510027631
C  C155  1  0.05530000  0.71460000  0.80780000  1.0 -0.0510027631
C  C156  1  0.80780000  0.05530000  0.71460000  1.0 -0.0510027631
C  C157  1  0.18790000  0.62000000  0.32710000  1.0 -0.0690767388
C  C158  1  0.62000000  0.32710000  0.18790000  1.0 -0.0690767388
C  C159  1  0.32710000  0.18790000  0.62000000  1.0 -0.0690767388
C  C160  1  0.31210000  0.17290000  0.88000000  1.0 -0.0690767388
C  C161  1  0.88000000  0.31210000  0.17290000  1.0 -0.0690767388
C  C162  1  0.17290000  0.88000000  0.31210000  1.0 -0.0690767388
C  C163  1  0.81210000  0.38000000  0.67290000  1.0 -0.0690767388
C  C164  1  0.38000000  0.67290000  0.81210000  1.0 -0.0690767388
C  C165  1  0.67290000  0.81210000  0.38000000  1.0 -0.0690767388
C  C166  1  0.68790000  0.82710000  0.12000000  1.0 -0.0690767388
C  C167  1  0.12000000  0.68790000  0.82710000  1.0 -0.0690767388
C  C168  1  0.82710000  0.12000000  0.68790000  1.0 -0.0690767388
C  C169  1  0.14870000  0.57310000  0.42640000  1.0 -0.0295203337
C  C170  1  0.57310000  0.42640000  0.14870000  1.0 -0.0295203337
C  C171  1  0.42640000  0.14870000  0.57310000  1.0 -0.0295203337
C  C172  1  0.35130000  0.07360000  0.92690000  1.0 -0.0295203337
C  C173  1  0.92690000  0.35130000  0.07360000  1.0 -0.0295203337
C  C174  1  0.07360000  0.92690000  0.35130000  1.0 -0.0295203337
C  C175  1  0.85130000  0.42690000  0.57360000  1.0 -0.0295203337
C  C176  1  0.42690000  0.57360000  0.85130000  1.0 -0.0295203337
C  C177  1  0.57360000  0.85130000  0.42690000  1.0 -0.0295203337
C  C178  1  0.64870000  0.92640000  0.07310000  1.0 -0.0295203337
C  C179  1  0.07310000  0.64870000  0.92640000  1.0 -0.0295203337
C  C180  1  0.92640000  0.07310000  0.64870000  1.0 -0.0295203337
C  C181  1  0.17750000  0.51120000  0.40610000  1.0 -0.0826014006
C  C182  1  0.51120000  0.40610000  0.17750000  1.0 -0.0826014006
C  C183  1  0.40610000  0.17750000  0.51120000  1.0 -0.0826014006
C  C184  1  0.32250000  0.09390000  0.98880000  1.0 -0.0826014006
C  C185  1  0.98880000  0.32250000  0.09390000  1.0 -0.0826014006
C  C186  1  0.09390000  0.98880000  0.32250000  1.0 -0.0826014006
C  C187  1  0.82250000  0.48880000  0.59390000  1.0 -0.0826014006
C  C188  1  0.48880000  0.59390000  0.82250000  1.0 -0.0826014006
C  C189  1  0.59390000  0.82250000  0.48880000  1.0 -0.0826014006
C  C190  1  0.67750000  0.90610000  0.01120000  1.0 -0.0826014006
C  C191  1  0.01120000  0.67750000  0.90610000  1.0 -0.0826014006
C  C192  1  0.90610000  0.01120000  0.67750000  1.0 -0.0826014006
C  C193  1  0.92990000  0.68150000  0.50560000  1.0 -0.1019734158
C  C194  1  0.68150000  0.50560000  0.92990000  1.0 -0.1019734158
C  C195  1  0.50560000  0.92990000  0.68150000  1.0 -0.1019734158
C  C196  1  0.57010000  0.99440000  0.81850000  1.0 -0.1019734158
C  C197  1  0.81850000  0.57010000  0.99440000  1.0 -0.1019734158
C  C198  1  0.99440000  0.81850000  0.57010000  1.0 -0.1019734158
C  C199  1  0.07010000  0.31850000  0.49440000  1.0 -0.1019734158
C  C200  1  0.31850000  0.49440000  0.07010000  1.0 -0.1019734158
C  C201  1  0.49440000  0.07010000  0.31850000  1.0 -0.1019734158
C  C202  1  0.42990000  0.00560000  0.18150000  1.0 -0.1019734158
C  C203  1  0.18150000  0.42990000  0.00560000  1.0 -0.1019734158
C  C204  1  0.00560000  0.18150000  0.42990000  1.0 -0.1019734158
C  C205  1  0.88350000  0.68500000  0.55750000  1.0 0.0262987627
C  C206  1  0.68500000  0.55750000  0.88350000  1.0 0.0262987627
C  C207  1  0.55750000  0.88350000  0.68500000  1.0 0.0262987627
C  C208  1  0.61650000  0.94250000  0.81500000  1.0 0.0262987627
C  C209  1  0.81500000  0.61650000  0.94250000  1.0 0.0262987627
C  C210  1  0.94250000  0.81500000  0.61650000  1.0 0.0262987627
C  C211  1  0.11650000  0.31500000  0.44250000  1.0 0.0262987627
C  C212  1  0.31500000  0.44250000  0.11650000  1.0 0.0262987627
C  C213  1  0.44250000  0.11650000  0.31500000  1.0 0.0262987627
C  C214  1  0.38350000  0.05750000  0.18500000  1.0 0.0262987627
C  C215  1  0.18500000  0.38350000  0.05750000  1.0 0.0262987627
C  C216  1  0.05750000  0.18500000  0.38350000  1.0 0.0262987627
N  N1  1  0.89011000  0.75000000  0.60989000  1.0 -0.0510027631
N  N2  1  0.75000000  0.60989000  0.89011000  1.0 -0.0510027631
N  N3  1  0.60989000  0.89011000  0.75000000  1.0 -0.0510027631
N  N4  1  0.10989000  0.25000000  0.39011000  1.0 -0.0510027631
N  N5  1  0.25000000  0.39011000  0.10989000  1.0 -0.0510027631
N  N6  1  0.39011000  0.10989000  0.25000000  1.0 -0.0510027631
N  N7  1  0.13182000  0.75000000  0.36818000  1.0 -0.3959151329
N  N8  1  0.75000000  0.36818000  0.13182000  1.0 -0.3930104138
N  N9  1  0.36818000  0.13182000  0.75000000  1.0 -0.3959151329
N  N10  1  0.86818000  0.25000000  0.63182000  1.0 -0.3959151329
N  N11  1  0.25000000  0.63182000  0.86818000  1.0 -0.3959151329
N  N12  1  0.63182000  0.86818000  0.25000000  1.0 -0.3959151329
O  O1  1  0.75000000  0.75000000  0.75000000  1.0 -0.728469497
O  O2  1  0.25000000  0.25000000  0.25000000  1.0 -0.728469497
O  O3  1  0.27195000  0.42412000  0.27975000  1.0 -0.5130935372
O  O4  1  0.42412000  0.27975000  0.27195000  1.0 -0.5130935372
O  O5  1  0.27975000  0.27195000  0.42412000  1.0 -0.5130935372
O  O6  1  0.22805000  0.22025000  0.07588000  1.0 -0.5130935372
O  O7  1  0.07588000  0.22805000  0.22025000  1.0 -0.5130935372
O  O8  1  0.22025000  0.07588000  0.22805000  1.0 -0.5130935372
O  O9  1  0.72805000  0.57588000  0.72025000  1.0 -0.5130935372
O  O10  1  0.57588000  0.72025000  0.72805000  1.0 -0.5130935372
O  O11  1  0.72025000  0.72805000  0.57588000  1.0 -0.5130935372
O  O12  1  0.77195000  0.77975000  0.92412000  1.0 -0.5130935372
O  O13  1  0.92412000  0.77195000  0.77975000  1.0 -0.5130935372
O  O14  1  0.77975000  0.92412000  0.77195000  1.0 -0.5130935372
O  O15  1  0.20644000  0.37326000  0.35091000  1.0 -0.5392117959
O  O16  1  0.37326000  0.35091000  0.20644000  1.0 -0.5392117959
O  O17  1  0.35091000  0.20644000  0.37326000  1.0 -0.5392117959
O  O18  1  0.29356000  0.14909000  0.12674000  1.0 -0.5392117959
O  O19  1  0.12674000  0.29356000  0.14909000  1.0 -0.5392117959
O  O20  1  0.14909000  0.12674000  0.29356000  1.0 -0.5392117959
O  O21  1  0.79356000  0.62674000  0.64909000  1.0 -0.5392117959
O  O22  1  0.62674000  0.64909000  0.79356000  1.0 -0.5392117959
O  O23  1  0.64909000  0.79356000  0.62674000  1.0 -0.5392117959
O  O24  1  0.70644000  0.85091000  0.87326000  1.0 -0.5392117959
O  O25  1  0.87326000  0.70644000  0.85091000  1.0 -0.5392117959
O  O26  1  0.85091000  0.87326000  0.70644000  1.0 -0.5392117959
