# DDEC6 charges by PACMAN v1.1 (https://github.com/mtap-research/PACMAN-charge/)
data_KEVBIY_ASR_pacman
_symmetry_space_group_name_H-M   'P 1'
_cell_length_a   29.36800000
_cell_length_b   29.36800000
_cell_length_c   20.86800000
_cell_angle_alpha   90.00000000
_cell_angle_beta   90.00000000
_cell_angle_gamma   120.00000000
_symmetry_Int_Tables_number   1
_chemical_formula_structural   Ni3H43C72N6O13
_chemical_formula_sum   'Ni18 H258 C432 N36 O78'
_cell_volume   15586.91627986
_cell_formula_units_Z   6
loop_
 _symmetry_equiv_pos_site_id
 _symmetry_equiv_pos_as_xyz
  1  'x, y, z'
loop_
 _atom_site_type_symbol
 _atom_site_label
 _atom_site_symmetry_multiplicity
 _atom_site_fract_x
 _atom_site_fract_y
 _atom_site_fract_z
 _atom_site_occupancy
 _atom_site_charge
Ni  Ni1  1  0.66666667  0.40162000  0.08239000  1.0 1.0366601665
Ni  Ni2  1  0.33333333  0.59838000  0.91758000  1.0 1.0366601665
Ni  Ni3  1  0.59838000  0.26506000  0.08239000  1.0 1.0366601665
Ni  Ni4  1  0.40162000  0.73494000  0.91758000  1.0 1.0366601665
Ni  Ni5  1  0.73494000  0.33333333  0.08239000  1.0 1.0366601665
Ni  Ni6  1  0.26506000  0.66666667  0.91758000  1.0 1.0366601665
Ni  Ni7  1  0.40162000  0.66666667  0.41758000  1.0 1.0366601665
Ni  Ni8  1  0.59839000  0.33333333  0.58421000  1.0 1.0366601665
Ni  Ni9  1  0.26506000  0.59838000  0.41758000  1.0 1.0366601665
Ni  Ni10  1  0.73495000  0.40161000  0.58421000  1.0 1.0366601665
Ni  Ni11  1  0.33333333  0.73494000  0.41758000  1.0 1.0366601665
Ni  Ni12  1  0.66666667  0.26505000  0.58421000  1.0 1.0366601665
Ni  Ni13  1  0.00001000  0.93171000  0.24909000  1.0 1.0366601665
Ni  Ni14  1  0.06829000  0.06830000  0.24909000  1.0 1.0366601665
Ni  Ni15  1  0.93170000  0.99999000  0.24909000  1.0 1.0366601665
Ni  Ni16  1  0.06830000  0.00001000  0.75091000  1.0 1.0366601665
Ni  Ni17  1  0.93171000  0.93170000  0.75091000  1.0 1.0366601665
Ni  Ni18  1  0.99999000  0.06829000  0.75091000  1.0 1.0366601665
H  H1  1  0.66666667  0.33333333  0.13046000  1.0 0.3503845652
H  H2  1  0.33333333  0.66666667  0.86953000  1.0 0.3503845652
H  H3  1  0.33333333  0.66666667  0.36953000  1.0 0.3503845652
H  H4  1  0.00000000  0.00000000  0.70286000  1.0 0.3503845652
H  H5  1  0.66666667  0.33333333  0.53619000  1.0 0.3503845652
H  H6  1  0.00000000  0.00000000  0.29714000  1.0 0.3503845652
H  H7  1  0.53094000  0.76252000  0.02143000  1.0 0.0905884425
H  H8  1  0.46906000  0.23748000  0.97857000  1.0 0.0905884425
H  H9  1  0.23748000  0.76842000  0.02143000  1.0 0.0905884425
H  H10  1  0.76252000  0.23158000  0.97857000  1.0 0.0905884425
H  H11  1  0.23158000  0.46906000  0.02143000  1.0 0.0905884425
H  H12  1  0.76842000  0.53094000  0.97857000  1.0 0.0905884425
H  H13  1  0.76252000  0.53095000  0.47857000  1.0 0.0905884425
H  H14  1  0.23748000  0.46906000  0.52143000  1.0 0.0905884425
H  H15  1  0.76843000  0.23748000  0.47857000  1.0 0.0905884425
H  H16  1  0.23158000  0.76252000  0.52143000  1.0 0.0905884425
H  H17  1  0.46905000  0.23157000  0.47857000  1.0 0.0905884425
H  H18  1  0.53094000  0.76842000  0.52143000  1.0 0.0905884425
H  H19  1  0.19762000  0.09586000  0.35477000  1.0 0.0905884425
H  H20  1  0.13572000  0.57081000  0.31189000  1.0 0.0905884425
H  H21  1  0.90414000  0.10176000  0.35477000  1.0 0.0905884425
H  H22  1  0.42919000  0.56491000  0.31189000  1.0 0.0905884425
H  H23  1  0.89824000  0.80238000  0.35477000  1.0 0.0905884425
H  H24  1  0.43509000  0.86428000  0.31189000  1.0 0.0905884425
H  H25  1  0.42919000  0.86428000  0.81190000  1.0 0.0905884425
H  H26  1  0.90415000  0.80239000  0.85478000  1.0 0.0905884425
H  H27  1  0.43509000  0.57081000  0.81190000  1.0 0.0905884425
H  H28  1  0.89824000  0.09585000  0.85478000  1.0 0.0905884425
H  H29  1  0.13572000  0.56491000  0.81190000  1.0 0.0905884425
H  H30  1  0.19761000  0.10176000  0.85478000  1.0 0.0905884425
H  H31  1  0.86427000  0.42919000  0.68811000  1.0 0.0905884425
H  H32  1  0.80238000  0.90414000  0.64523000  1.0 0.0905884425
H  H33  1  0.57081000  0.43509000  0.68811000  1.0 0.0905884425
H  H34  1  0.09586000  0.89824000  0.64523000  1.0 0.0905884425
H  H35  1  0.56491000  0.13573000  0.68811000  1.0 0.0905884425
H  H36  1  0.10176000  0.19762000  0.64523000  1.0 0.0905884425
H  H37  1  0.09585000  0.19761000  0.14522000  1.0 0.0905884425
H  H38  1  0.57081000  0.13572000  0.18810000  1.0 0.0905884425
H  H39  1  0.10176000  0.90415000  0.14522000  1.0 0.0905884425
H  H40  1  0.56491000  0.42919000  0.18810000  1.0 0.0905884425
H  H41  1  0.80239000  0.89824000  0.14522000  1.0 0.0905884425
H  H42  1  0.86428000  0.43509000  0.18810000  1.0 0.0905884425
H  H43  1  0.61497000  0.76112000  0.06481000  1.0 0.0905884425
H  H44  1  0.38503000  0.23888000  0.93518000  1.0 0.0905884425
H  H45  1  0.23888000  0.85384000  0.06481000  1.0 0.0905884425
H  H46  1  0.76112000  0.14616000  0.93518000  1.0 0.0905884425
H  H47  1  0.14616000  0.38503000  0.06481000  1.0 0.0905884425
H  H48  1  0.85384000  0.61497000  0.93518000  1.0 0.0905884425
H  H49  1  0.76112000  0.61496000  0.43519000  1.0 0.0905884425
H  H50  1  0.23888000  0.38503000  0.56482000  1.0 0.0905884425
H  H51  1  0.85384000  0.23888000  0.43519000  1.0 0.0905884425
H  H52  1  0.14616000  0.76112000  0.56482000  1.0 0.0905884425
H  H53  1  0.38504000  0.14616000  0.43519000  1.0 0.0905884425
H  H54  1  0.61497000  0.85384000  0.56482000  1.0 0.0905884425
H  H55  1  0.28163000  0.09446000  0.39814000  1.0 0.0905884425
H  H56  1  0.05170000  0.57221000  0.26852000  1.0 0.0905884425
H  H57  1  0.90554000  0.18718000  0.39814000  1.0 0.0905884425
H  H58  1  0.42779000  0.47949000  0.26852000  1.0 0.0905884425
H  H59  1  0.81282000  0.71837000  0.39814000  1.0 0.0905884425
H  H60  1  0.52051000  0.94830000  0.26852000  1.0 0.0905884425
H  H61  1  0.42779000  0.94830000  0.76852000  1.0 0.0905884425
H  H62  1  0.90554000  0.71837000  0.89814000  1.0 0.0905884425
H  H63  1  0.52051000  0.57221000  0.76852000  1.0 0.0905884425
H  H64  1  0.81282000  0.09446000  0.89814000  1.0 0.0905884425
H  H65  1  0.05170000  0.47949000  0.76852000  1.0 0.0905884425
H  H66  1  0.28163000  0.18718000  0.89814000  1.0 0.0905884425
H  H67  1  0.94830000  0.42779000  0.73149000  1.0 0.0905884425
H  H68  1  0.71837000  0.90554000  0.60186000  1.0 0.0905884425
H  H69  1  0.57221000  0.52051000  0.73149000  1.0 0.0905884425
H  H70  1  0.09446000  0.81282000  0.60186000  1.0 0.0905884425
H  H71  1  0.47949000  0.05170000  0.73149000  1.0 0.0905884425
H  H72  1  0.18718000  0.28163000  0.60186000  1.0 0.0905884425
H  H73  1  0.09446000  0.28163000  0.10186000  1.0 0.0905884425
H  H74  1  0.57221000  0.05170000  0.23148000  1.0 0.0905884425
H  H75  1  0.18718000  0.90554000  0.10186000  1.0 0.0905884425
H  H76  1  0.47949000  0.42779000  0.23148000  1.0 0.0905884425
H  H77  1  0.71837000  0.81282000  0.10186000  1.0 0.0905884425
H  H78  1  0.94830000  0.52051000  0.23148000  1.0 0.0905884425
H  H79  1  0.51972000  0.57953000  0.07027000  1.0 0.0239699709
H  H80  1  0.48028000  0.42047000  0.92972000  1.0 0.0239699709
H  H81  1  0.42047000  0.94019000  0.07027000  1.0 0.0239699709
H  H82  1  0.57953000  0.05981000  0.92972000  1.0 0.0239699709
H  H83  1  0.05981000  0.48028000  0.07027000  1.0 0.0239699709
H  H84  1  0.94019000  0.51972000  0.92972000  1.0 0.0239699709
H  H85  1  0.57953000  0.51972000  0.42973000  1.0 0.0239699709
H  H86  1  0.42047000  0.48028000  0.57028000  1.0 0.0239699709
H  H87  1  0.94019000  0.42047000  0.42973000  1.0 0.0239699709
H  H88  1  0.05981000  0.57953000  0.57028000  1.0 0.0239699709
H  H89  1  0.48028000  0.05981000  0.42973000  1.0 0.0239699709
H  H90  1  0.51972000  0.94019000  0.57028000  1.0 0.0239699709
H  H91  1  0.18639000  0.91287000  0.40361000  1.0 0.0239699709
H  H92  1  0.14695000  0.75380000  0.26306000  1.0 0.0239699709
H  H93  1  0.08713000  0.27352000  0.40361000  1.0 0.0239699709
H  H94  1  0.24620000  0.39314000  0.26306000  1.0 0.0239699709
H  H95  1  0.72648000  0.81361000  0.40361000  1.0 0.0239699709
H  H96  1  0.60686000  0.85305000  0.26306000  1.0 0.0239699709
H  H97  1  0.24620000  0.85305000  0.76306000  1.0 0.0239699709
H  H98  1  0.08713000  0.81361000  0.90361000  1.0 0.0239699709
H  H99  1  0.60686000  0.75380000  0.76306000  1.0 0.0239699709
H  H100  1  0.72648000  0.91287000  0.90361000  1.0 0.0239699709
H  H101  1  0.14695000  0.39314000  0.76306000  1.0 0.0239699709
H  H102  1  0.18639000  0.27352000  0.90361000  1.0 0.0239699709
H  H103  1  0.85305000  0.24620000  0.73694000  1.0 0.0239699709
H  H104  1  0.81361000  0.08713000  0.59639000  1.0 0.0239699709
H  H105  1  0.75380000  0.60686000  0.73694000  1.0 0.0239699709
H  H106  1  0.91287000  0.72648000  0.59639000  1.0 0.0239699709
H  H107  1  0.39314000  0.14695000  0.73694000  1.0 0.0239699709
H  H108  1  0.27352000  0.18639000  0.59639000  1.0 0.0239699709
H  H109  1  0.91287000  0.18639000  0.09639000  1.0 0.0239699709
H  H110  1  0.75380000  0.14695000  0.23694000  1.0 0.0239699709
H  H111  1  0.27352000  0.08713000  0.09639000  1.0 0.0239699709
H  H112  1  0.39314000  0.24620000  0.23694000  1.0 0.0239699709
H  H113  1  0.81361000  0.72648000  0.09639000  1.0 0.0239699709
H  H114  1  0.85305000  0.60686000  0.23694000  1.0 0.0239699709
H  H115  1  0.43504000  0.58253000  0.02989000  1.0 0.2357375989
H  H116  1  0.56496000  0.41747000  0.97011000  1.0 0.2357375989
H  H117  1  0.41747000  0.85251000  0.02989000  1.0 0.2357375989
H  H118  1  0.58253000  0.14749000  0.97011000  1.0 0.2357375989
H  H119  1  0.14749000  0.56496000  0.02989000  1.0 0.2357375989
H  H120  1  0.85251000  0.43504000  0.97011000  1.0 0.2357375989
H  H121  1  0.58253000  0.43505000  0.47011000  1.0 0.2347308913
H  H122  1  0.41747000  0.56496000  0.52989000  1.0 0.2357375989
H  H123  1  0.85252000  0.41747000  0.47011000  1.0 0.2347308913
H  H124  1  0.14749000  0.58253000  0.52989000  1.0 0.2357375989
H  H125  1  0.56495000  0.14748000  0.47011000  1.0 0.2347308913
H  H126  1  0.43504000  0.85251000  0.52989000  1.0 0.2357375989
H  H127  1  0.10172000  0.91586000  0.36323000  1.0 0.2347308913
H  H128  1  0.23162000  0.75081000  0.30343000  1.0 0.2347308913
H  H129  1  0.08414000  0.18586000  0.36323000  1.0 0.2347308913
H  H130  1  0.24919000  0.48081000  0.30343000  1.0 0.2347308913
H  H131  1  0.81414000  0.89828000  0.36323000  1.0 0.2347308913
H  H132  1  0.51919000  0.76838000  0.30343000  1.0 0.2347308913
H  H133  1  0.24919000  0.76838000  0.80343000  1.0 0.2347308913
H  H134  1  0.08414000  0.89829000  0.86324000  1.0 0.2357375989
H  H135  1  0.51919000  0.75081000  0.80343000  1.0 0.2347308913
H  H136  1  0.81415000  0.91586000  0.86324000  1.0 0.2357375989
H  H137  1  0.23162000  0.48081000  0.80343000  1.0 0.2347308913
H  H138  1  0.10171000  0.18585000  0.86324000  1.0 0.2357375989
H  H139  1  0.76838000  0.24920000  0.69657000  1.0 0.2357375989
H  H140  1  0.89828000  0.08414000  0.63677000  1.0 0.2347308913
H  H141  1  0.75080000  0.51918000  0.69657000  1.0 0.2357375989
H  H142  1  0.91586000  0.81414000  0.63677000  1.0 0.2347308913
H  H143  1  0.48082000  0.23162000  0.69657000  1.0 0.2357375989
H  H144  1  0.18586000  0.10172000  0.63677000  1.0 0.2347308913
H  H145  1  0.91586000  0.10171000  0.13676000  1.0 0.2357375989
H  H146  1  0.75081000  0.23162000  0.19657000  1.0 0.2347308913
H  H147  1  0.18585000  0.08414000  0.13676000  1.0 0.2357375989
H  H148  1  0.48081000  0.24919000  0.19657000  1.0 0.2347308913
H  H149  1  0.89829000  0.81415000  0.13676000  1.0 0.2357375989
H  H150  1  0.76838000  0.51919000  0.19657000  1.0 0.2347308913
H  H151  1  0.57845000  0.57872000  0.05555000  1.0 0.0504299943
H  H152  1  0.42155000  0.42128000  0.94445000  1.0 0.0504299943
H  H153  1  0.42128000  0.99973000  0.05555000  1.0 0.0504299943
H  H154  1  0.57872000  0.00027000  0.94445000  1.0 0.0504299943
H  H155  1  0.00027000  0.42155000  0.05555000  1.0 0.0504299943
H  H156  1  0.99973000  0.57845000  0.94445000  1.0 0.0504299943
H  H157  1  0.57872000  0.57845000  0.44445000  1.0 0.0504299943
H  H158  1  0.42128000  0.42155000  0.55555000  1.0 0.0504299943
H  H159  1  0.99973000  0.42128000  0.44445000  1.0 0.0504299943
H  H160  1  0.00027000  0.57872000  0.55555000  1.0 0.0504299943
H  H161  1  0.42155000  0.00027000  0.44445000  1.0 0.0504299943
H  H162  1  0.57845000  0.99973000  0.55555000  1.0 0.0504299943
H  H163  1  0.24511000  0.91205000  0.38889000  1.0 0.0504299943
H  H164  1  0.08822000  0.75461000  0.27777000  1.0 0.0504299943
H  H165  1  0.08795000  0.33306000  0.38889000  1.0 0.0504299943
H  H166  1  0.24539000  0.33360000  0.27777000  1.0 0.0504299943
H  H167  1  0.66694000  0.75489000  0.38889000  1.0 0.0504299943
H  H168  1  0.66640000  0.91178000  0.27777000  1.0 0.0504299943
H  H169  1  0.24539000  0.91178000  0.77777000  1.0 0.0504299943
H  H170  1  0.08795000  0.75489000  0.88889000  1.0 0.0504299943
H  H171  1  0.66640000  0.75461000  0.77777000  1.0 0.0504299943
H  H172  1  0.66694000  0.91205000  0.88889000  1.0 0.0504299943
H  H173  1  0.08822000  0.33360000  0.77777000  1.0 0.0504299943
H  H174  1  0.24511000  0.33306000  0.88889000  1.0 0.0504299943
H  H175  1  0.91178000  0.24539000  0.72223000  1.0 0.0504299943
H  H176  1  0.75489000  0.08795000  0.61111000  1.0 0.0504299943
H  H177  1  0.75461000  0.66639000  0.72223000  1.0 0.0504299943
H  H178  1  0.91205000  0.66694000  0.61111000  1.0 0.0504299943
H  H179  1  0.33361000  0.08822000  0.72223000  1.0 0.0504299943
H  H180  1  0.33306000  0.24511000  0.61111000  1.0 0.0504299943
H  H181  1  0.91205000  0.24511000  0.11111000  1.0 0.0504299943
H  H182  1  0.75461000  0.08822000  0.22222000  1.0 0.0504299943
H  H183  1  0.33306000  0.08795000  0.11111000  1.0 0.0504299943
H  H184  1  0.33360000  0.24539000  0.22222000  1.0 0.0504299943
H  H185  1  0.75489000  0.66694000  0.11111000  1.0 0.0504299943
H  H186  1  0.91178000  0.66640000  0.22222000  1.0 0.0504299943
H  H187  1  0.75642000  0.60908000  0.06301000  1.0 0.1196025907
H  H188  1  0.24358000  0.39092000  0.93699000  1.0 0.1196025907
H  H189  1  0.39092000  0.14734000  0.06301000  1.0 0.1196025907
H  H190  1  0.60908000  0.85266000  0.93699000  1.0 0.1196025907
H  H191  1  0.85266000  0.24358000  0.06301000  1.0 0.1196025907
H  H192  1  0.14734000  0.75642000  0.93699000  1.0 0.1196025907
H  H193  1  0.60908000  0.75642000  0.43699000  1.0 0.1196025907
H  H194  1  0.39092000  0.24358000  0.56302000  1.0 0.1196025907
H  H195  1  0.14734000  0.39092000  0.43699000  1.0 0.1196025907
H  H196  1  0.85266000  0.60908000  0.56302000  1.0 0.1196025907
H  H197  1  0.24358000  0.85266000  0.43699000  1.0 0.1196025907
H  H198  1  0.75642000  0.14734000  0.56302000  1.0 0.1196025907
H  H199  1  0.42309000  0.94241000  0.39636000  1.0 0.1196025907
H  H200  1  0.91025000  0.72426000  0.27031000  1.0 0.1196025907
H  H201  1  0.05759000  0.48068000  0.39636000  1.0 0.1196025907
H  H202  1  0.27574000  0.18599000  0.27031000  1.0 0.1196025907
H  H203  1  0.51932000  0.57691000  0.39636000  1.0 0.1196025907
H  H204  1  0.81401000  0.08975000  0.27031000  1.0 0.1196025907
H  H205  1  0.27574000  0.08975000  0.77031000  1.0 0.1196025907
H  H206  1  0.05759000  0.57691000  0.89636000  1.0 0.1196025907
H  H207  1  0.81401000  0.72426000  0.77031000  1.0 0.1196025907
H  H208  1  0.51933000  0.94241000  0.89636000  1.0 0.1196025907
H  H209  1  0.91025000  0.18599000  0.77031000  1.0 0.1196025907
H  H210  1  0.42309000  0.48067000  0.89636000  1.0 0.1196025907
H  H211  1  0.08975000  0.27574000  0.72969000  1.0 0.1196025907
H  H212  1  0.57692000  0.05759000  0.60365000  1.0 0.1196025907
H  H213  1  0.72426000  0.81401000  0.72969000  1.0 0.1196025907
H  H214  1  0.94241000  0.51933000  0.60365000  1.0 0.1196025907
H  H215  1  0.18599000  0.91025000  0.72969000  1.0 0.1196025907
H  H216  1  0.48067000  0.42308000  0.60365000  1.0 0.1196025907
H  H217  1  0.94241000  0.42309000  0.10364000  1.0 0.1196025907
H  H218  1  0.72426000  0.91025000  0.22969000  1.0 0.1196025907
H  H219  1  0.48067000  0.05759000  0.10364000  1.0 0.1196025907
H  H220  1  0.18599000  0.27574000  0.22969000  1.0 0.1196025907
H  H221  1  0.57691000  0.51933000  0.10364000  1.0 0.1196025907
H  H222  1  0.08975000  0.81401000  0.22969000  1.0 0.1196025907
H  H223  1  0.75393000  0.51764000  0.06744000  1.0 0.1316133318
H  H224  1  0.24607000  0.48236000  0.93255000  1.0 0.1316133318
H  H225  1  0.48236000  0.23630000  0.06744000  1.0 0.1316133318
H  H226  1  0.51764000  0.76370000  0.93255000  1.0 0.1316133318
H  H227  1  0.76370000  0.24607000  0.06744000  1.0 0.1316133318
H  H228  1  0.23630000  0.75393000  0.93255000  1.0 0.1316133318
H  H229  1  0.51763000  0.75393000  0.43255000  1.0 0.1316133318
H  H230  1  0.48236000  0.24607000  0.56747000  1.0 0.1316133318
H  H231  1  0.23630000  0.48237000  0.43255000  1.0 0.1316133318
H  H232  1  0.76370000  0.51764000  0.56747000  1.0 0.1316133318
H  H233  1  0.24607000  0.76370000  0.43255000  1.0 0.1316133318
H  H234  1  0.75393000  0.23630000  0.56747000  1.0 0.1316133318
H  H235  1  0.42060000  0.85097000  0.40080000  1.0 0.1316133318
H  H236  1  0.91273000  0.81569000  0.26587000  1.0 0.1316133318
H  H237  1  0.14903000  0.56963000  0.40080000  1.0 0.1316133318
H  H238  1  0.18431000  0.09704000  0.26587000  1.0 0.1316133318
H  H239  1  0.43037000  0.57940000  0.40080000  1.0 0.1316133318
H  H240  1  0.90296000  0.08727000  0.26587000  1.0 0.1316133318
H  H241  1  0.18431000  0.08727000  0.76589000  1.0 0.1316133318
H  H242  1  0.14903000  0.57940000  0.90080000  1.0 0.1316133318
H  H243  1  0.90296000  0.81569000  0.76589000  1.0 0.1316133318
H  H244  1  0.43037000  0.85097000  0.90080000  1.0 0.1316133318
H  H245  1  0.91273000  0.09704000  0.76589000  1.0 0.1316133318
H  H246  1  0.42060000  0.56963000  0.90080000  1.0 0.1316133318
H  H247  1  0.08727000  0.18431000  0.73413000  1.0 0.1316133318
H  H248  1  0.57940000  0.14903000  0.59923000  1.0 0.1316133318
H  H249  1  0.81569000  0.90296000  0.73413000  1.0 0.1316133318
H  H250  1  0.85097000  0.43037000  0.59923000  1.0 0.1316133318
H  H251  1  0.09704000  0.91273000  0.73413000  1.0 0.1316133318
H  H252  1  0.56963000  0.42060000  0.59923000  1.0 0.1316133318
H  H253  1  0.85097000  0.42060000  0.09920000  1.0 0.1316133318
H  H254  1  0.81569000  0.91273000  0.23411000  1.0 0.1316133318
H  H255  1  0.56963000  0.14903000  0.09920000  1.0 0.1316133318
H  H256  1  0.09704000  0.18431000  0.23411000  1.0 0.1316133318
H  H257  1  0.57940000  0.43037000  0.09920000  1.0 0.1316133318
H  H258  1  0.08727000  0.90296000  0.23411000  1.0 0.1316133318
C  C1  1  0.43466000  0.67226000  0.99508000  1.0 0.5881615499
C  C2  1  0.56534000  0.32774000  0.00491000  1.0 0.5881615499
C  C3  1  0.32774000  0.76241000  0.99508000  1.0 0.5881615499
C  C4  1  0.67226000  0.23760000  0.00491000  1.0 0.5881615499
C  C5  1  0.23759000  0.56534000  0.99508000  1.0 0.5881615499
C  C6  1  0.76240000  0.43466000  0.00491000  1.0 0.5881615499
C  C7  1  0.67213000  0.43507000  0.50487000  1.0 0.5734120263
C  C8  1  0.32774000  0.56534000  0.49508000  1.0 0.5881615499
C  C9  1  0.76294000  0.32787000  0.50487000  1.0 0.5734120263
C  C10  1  0.23760000  0.67226000  0.49508000  1.0 0.5881615499
C  C11  1  0.56493000  0.23706000  0.50487000  1.0 0.5734120263
C  C12  1  0.43466000  0.76240000  0.49508000  1.0 0.5881615499
C  C13  1  0.10174000  0.00546000  0.32846000  1.0 0.5734120263
C  C14  1  0.23159000  0.66120000  0.33819000  1.0 0.5734120263
C  C15  1  0.99454000  0.09628000  0.32846000  1.0 0.5734120263
C  C16  1  0.33880000  0.57040000  0.33819000  1.0 0.5734120263
C  C17  1  0.90372000  0.89826000  0.32846000  1.0 0.5734120263
C  C18  1  0.42960000  0.76841000  0.33819000  1.0 0.5734120263
C  C19  1  0.33880000  0.76841000  0.83819000  1.0 0.5734120263
C  C20  1  0.99440000  0.89867000  0.82842000  1.0 0.5881615499
C  C21  1  0.42961000  0.66120000  0.83819000  1.0 0.5734120263
C  C22  1  0.90427000  0.00560000  0.82842000  1.0 0.5881615499
C  C23  1  0.23159000  0.57039000  0.83819000  1.0 0.5734120263
C  C24  1  0.10133000  0.09573000  0.82842000  1.0 0.5881615499
C  C25  1  0.76799000  0.33893000  0.66175000  1.0 0.5881615499
C  C26  1  0.89826000  0.99454000  0.67154000  1.0 0.5734120263
C  C27  1  0.66107000  0.42906000  0.66175000  1.0 0.5881615499
C  C28  1  0.00546000  0.90372000  0.67154000  1.0 0.5734120263
C  C29  1  0.57094000  0.23201000  0.66175000  1.0 0.5881615499
C  C30  1  0.09628000  0.10174000  0.67154000  1.0 0.5734120263
C  C31  1  0.00560000  0.10133000  0.17158000  1.0 0.5881615499
C  C32  1  0.66120000  0.23159000  0.16180000  1.0 0.5734120263
C  C33  1  0.09573000  0.99440000  0.17158000  1.0 0.5881615499
C  C34  1  0.57039000  0.33880000  0.16180000  1.0 0.5734120263
C  C35  1  0.89867000  0.90427000  0.17158000  1.0 0.5881615499
C  C36  1  0.76841000  0.42961000  0.16180000  1.0 0.5734120263
C  C37  1  0.47944000  0.67034000  0.01736000  1.0 -0.1889626497
C  C38  1  0.52056000  0.32966000  0.98264000  1.0 -0.1889626497
C  C39  1  0.32966000  0.80910000  0.01736000  1.0 -0.1889626497
C  C40  1  0.67034000  0.19090000  0.98264000  1.0 -0.1889626497
C  C41  1  0.19090000  0.52056000  0.01736000  1.0 -0.1889626497
C  C42  1  0.80910000  0.47944000  0.98264000  1.0 -0.1889626497
C  C43  1  0.67036000  0.47941000  0.48272000  1.0 -0.1889626497
C  C44  1  0.32966000  0.52056000  0.51736000  1.0 -0.1889626497
C  C45  1  0.80905000  0.32964000  0.48272000  1.0 -0.1889626497
C  C46  1  0.19091000  0.67034000  0.51736000  1.0 -0.1889626497
C  C47  1  0.52059000  0.19095000  0.48272000  1.0 -0.1889626497
C  C48  1  0.47944000  0.80909000  0.51736000  1.0 -0.1889626497
C  C49  1  0.14608000  0.00369000  0.35062000  1.0 -0.1889626497
C  C50  1  0.18726000  0.66298000  0.31605000  1.0 -0.1889626497
C  C51  1  0.99631000  0.14238000  0.35062000  1.0 -0.1889626497
C  C52  1  0.33702000  0.52428000  0.31605000  1.0 -0.1889626497
C  C53  1  0.85762000  0.85392000  0.35062000  1.0 -0.1889626497
C  C54  1  0.47572000  0.81274000  0.31605000  1.0 -0.1889626497
C  C55  1  0.33702000  0.81274000  0.81605000  1.0 -0.1889626497
C  C56  1  0.99632000  0.85389000  0.85070000  1.0 -0.1889626497
C  C57  1  0.47572000  0.66298000  0.81605000  1.0 -0.1889626497
C  C58  1  0.85757000  0.00368000  0.85070000  1.0 -0.1889626497
C  C59  1  0.18726000  0.52428000  0.81605000  1.0 -0.1889626497
C  C60  1  0.14611000  0.14243000  0.85070000  1.0 -0.1889626497
C  C61  1  0.81277000  0.33701000  0.68403000  1.0 -0.1889626497
C  C62  1  0.85392000  0.99631000  0.64938000  1.0 -0.1889626497
C  C63  1  0.66299000  0.47576000  0.68403000  1.0 -0.1889626497
C  C64  1  0.00369000  0.85762000  0.64938000  1.0 -0.1889626497
C  C65  1  0.52424000  0.18723000  0.68403000  1.0 -0.1889626497
C  C66  1  0.14238000  0.14608000  0.64938000  1.0 -0.1889626497
C  C67  1  0.00368000  0.14611000  0.14930000  1.0 -0.1889626497
C  C68  1  0.66297000  0.18726000  0.18395000  1.0 -0.1889626497
C  C69  1  0.14243000  0.99632000  0.14930000  1.0 -0.1889626497
C  C70  1  0.52428000  0.33703000  0.18395000  1.0 -0.1889626497
C  C71  1  0.85389000  0.85757000  0.14930000  1.0 -0.1889626497
C  C72  1  0.81274000  0.47572000  0.18395000  1.0 -0.1889626497
C  C73  1  0.52972000  0.71015000  0.03108000  1.0 -0.0484097534
C  C74  1  0.47028000  0.28985000  0.96893000  1.0 -0.0484097534
C  C75  1  0.28985000  0.81957000  0.03108000  1.0 -0.0484097534
C  C76  1  0.71015000  0.18043000  0.96893000  1.0 -0.0484097534
C  C77  1  0.18043000  0.47028000  0.03108000  1.0 -0.0484097534
C  C78  1  0.81957000  0.52972000  0.96893000  1.0 -0.0484097534
C  C79  1  0.71016000  0.52973000  0.46891000  1.0 -0.0388198643
C  C80  1  0.28985000  0.47028000  0.53108000  1.0 -0.0484097534
C  C81  1  0.81957000  0.28984000  0.46891000  1.0 -0.0388198643
C  C82  1  0.18043000  0.71015000  0.53108000  1.0 -0.0484097534
C  C83  1  0.47027000  0.18043000  0.46891000  1.0 -0.0388198643
C  C84  1  0.52972000  0.81957000  0.53108000  1.0 -0.0484097534
C  C85  1  0.19640000  0.04350000  0.36442000  1.0 -0.0388198643
C  C86  1  0.13694000  0.62317000  0.30225000  1.0 -0.0388198643
C  C87  1  0.95650000  0.15290000  0.36442000  1.0 -0.0388198643
C  C88  1  0.37683000  0.51377000  0.30225000  1.0 -0.0388198643
C  C89  1  0.84710000  0.80360000  0.36442000  1.0 -0.0388198643
C  C90  1  0.48623000  0.86306000  0.30225000  1.0 -0.0388198643
C  C91  1  0.37683000  0.86306000  0.80225000  1.0 -0.0388198643
C  C92  1  0.95651000  0.80361000  0.86440000  1.0 -0.0484097534
C  C93  1  0.48623000  0.62317000  0.80225000  1.0 -0.0388198643
C  C94  1  0.84710000  0.04349000  0.86440000  1.0 -0.0484097534
C  C95  1  0.13694000  0.51377000  0.80225000  1.0 -0.0388198643
C  C96  1  0.19639000  0.15290000  0.86440000  1.0 -0.0484097534
C  C97  1  0.86306000  0.37682000  0.69774000  1.0 -0.0484097534
C  C98  1  0.80360000  0.95650000  0.63558000  1.0 -0.0388198643
C  C99  1  0.62318000  0.48624000  0.69774000  1.0 -0.0484097534
C  C100  1  0.04350000  0.84710000  0.63558000  1.0 -0.0388198643
C  C101  1  0.51376000  0.13694000  0.69774000  1.0 -0.0484097534
C  C102  1  0.15290000  0.19640000  0.63558000  1.0 -0.0388198643
C  C103  1  0.04349000  0.19639000  0.13560000  1.0 -0.0484097534
C  C104  1  0.62317000  0.13694000  0.19775000  1.0 -0.0388198643
C  C105  1  0.15290000  0.95651000  0.13560000  1.0 -0.0484097534
C  C106  1  0.51377000  0.37683000  0.19775000  1.0 -0.0388198643
C  C107  1  0.80361000  0.84710000  0.13560000  1.0 -0.0484097534
C  C108  1  0.86306000  0.48623000  0.19775000  1.0 -0.0388198643
C  C109  1  0.56512000  0.70937000  0.04436000  1.0 -0.0484097534
C  C110  1  0.43488000  0.29063000  0.95564000  1.0 -0.0484097534
C  C111  1  0.29063000  0.85575000  0.04436000  1.0 -0.0484097534
C  C112  1  0.70937000  0.14425000  0.95564000  1.0 -0.0484097534
C  C113  1  0.14425000  0.43488000  0.04436000  1.0 -0.0484097534
C  C114  1  0.85575000  0.56512000  0.95564000  1.0 -0.0484097534
C  C115  1  0.70937000  0.56511000  0.45563000  1.0 -0.0484097534
C  C116  1  0.29064000  0.43488000  0.54436000  1.0 -0.0484097534
C  C117  1  0.85574000  0.29063000  0.45563000  1.0 -0.0484097534
C  C118  1  0.14425000  0.70936000  0.54436000  1.0 -0.0484097534
C  C119  1  0.43489000  0.14426000  0.45563000  1.0 -0.0484097534
C  C120  1  0.56512000  0.85575000  0.54436000  1.0 -0.0484097534
C  C121  1  0.23177000  0.04270000  0.37769000  1.0 -0.0484097534
C  C122  1  0.10156000  0.62396000  0.28897000  1.0 -0.0484097534
C  C123  1  0.95730000  0.18907000  0.37769000  1.0 -0.0484097534
C  C124  1  0.37604000  0.47760000  0.28897000  1.0 -0.0484097534
C  C125  1  0.81093000  0.76823000  0.37769000  1.0 -0.0484097534
C  C126  1  0.52240000  0.89844000  0.28897000  1.0 -0.0484097534
C  C127  1  0.37603000  0.89844000  0.78897000  1.0 -0.0484097534
C  C128  1  0.95730000  0.76822000  0.87769000  1.0 -0.0484097534
C  C129  1  0.52241000  0.62397000  0.78897000  1.0 -0.0484097534
C  C130  1  0.81092000  0.04270000  0.87769000  1.0 -0.0484097534
C  C131  1  0.10156000  0.47759000  0.78897000  1.0 -0.0484097534
C  C132  1  0.23178000  0.18908000  0.87769000  1.0 -0.0484097534
C  C133  1  0.89845000  0.37603000  0.71103000  1.0 -0.0484097534
C  C134  1  0.76823000  0.95730000  0.62230000  1.0 -0.0484097534
C  C135  1  0.62397000  0.52242000  0.71103000  1.0 -0.0484097534
C  C136  1  0.04270000  0.81093000  0.62230000  1.0 -0.0484097534
C  C137  1  0.47758000  0.10155000  0.71103000  1.0 -0.0484097534
C  C138  1  0.18907000  0.23177000  0.62230000  1.0 -0.0484097534
C  C139  1  0.04270000  0.23178000  0.12231000  1.0 -0.0484097534
C  C140  1  0.62396000  0.10156000  0.21104000  1.0 -0.0484097534
C  C141  1  0.18908000  0.95730000  0.12231000  1.0 -0.0484097534
C  C142  1  0.47759000  0.37604000  0.21104000  1.0 -0.0484097534
C  C143  1  0.76822000  0.81092000  0.12231000  1.0 -0.0484097534
C  C144  1  0.89844000  0.52241000  0.21104000  1.0 -0.0484097534
C  C145  1  0.52816000  0.63726000  0.04647000  1.0 -0.0093103706
C  C146  1  0.47184000  0.36274000  0.95353000  1.0 -0.0093103706
C  C147  1  0.36274000  0.89089000  0.04647000  1.0 -0.0093103706
C  C148  1  0.63726000  0.10911000  0.95353000  1.0 -0.0093103706
C  C149  1  0.10911000  0.47184000  0.04647000  1.0 -0.0093103706
C  C150  1  0.89089000  0.52816000  0.95353000  1.0 -0.0093103706
C  C151  1  0.63727000  0.52815000  0.45352000  1.0 -0.0093103706
C  C152  1  0.36274000  0.47184000  0.54647000  1.0 -0.0093103706
C  C153  1  0.89088000  0.36273000  0.45352000  1.0 -0.0093103706
C  C154  1  0.10911000  0.63726000  0.54647000  1.0 -0.0093103706
C  C155  1  0.47185000  0.10912000  0.45352000  1.0 -0.0093103706
C  C156  1  0.52816000  0.89089000  0.54647000  1.0 -0.0093103706
C  C157  1  0.19482000  0.97060000  0.37981000  1.0 -0.0093103706
C  C158  1  0.13852000  0.69607000  0.28686000  1.0 -0.0093103706
C  C159  1  0.02940000  0.22422000  0.37981000  1.0 -0.0093103706
C  C160  1  0.30393000  0.44245000  0.28686000  1.0 -0.0093103706
C  C161  1  0.77578000  0.80518000  0.37981000  1.0 -0.0093103706
C  C162  1  0.55755000  0.86148000  0.28686000  1.0 -0.0093103706
C  C163  1  0.30393000  0.86148000  0.78686000  1.0 -0.0093103706
C  C164  1  0.02940000  0.80518000  0.87980000  1.0 -0.0093103706
C  C165  1  0.55755000  0.69607000  0.78686000  1.0 -0.0093103706
C  C166  1  0.77578000  0.97060000  0.87980000  1.0 -0.0093103706
C  C167  1  0.13852000  0.44245000  0.78686000  1.0 -0.0093103706
C  C168  1  0.19482000  0.22422000  0.87980000  1.0 -0.0093103706
C  C169  1  0.86149000  0.30393000  0.71313000  1.0 -0.0093103706
C  C170  1  0.80519000  0.02940000  0.62019000  1.0 -0.0093103706
C  C171  1  0.69607000  0.55756000  0.71313000  1.0 -0.0093103706
C  C172  1  0.97060000  0.77578000  0.62019000  1.0 -0.0093103706
C  C173  1  0.44244000  0.13851000  0.71313000  1.0 -0.0093103706
C  C174  1  0.22422000  0.19481000  0.62019000  1.0 -0.0093103706
C  C175  1  0.97060000  0.19482000  0.12020000  1.0 -0.0093103706
C  C176  1  0.69607000  0.13852000  0.21314000  1.0 -0.0093103706
C  C177  1  0.22422000  0.02940000  0.12020000  1.0 -0.0093103706
C  C178  1  0.44245000  0.30393000  0.21314000  1.0 -0.0093103706
C  C179  1  0.80518000  0.77578000  0.12020000  1.0 -0.0093103706
C  C180  1  0.86148000  0.55755000  0.21314000  1.0 -0.0093103706
C  C181  1  0.49032000  0.63397000  0.03439000  1.0 -0.0388198643
C  C182  1  0.50968000  0.36603000  0.96561000  1.0 -0.0388198643
C  C183  1  0.36603000  0.85635000  0.03439000  1.0 -0.0388198643
C  C184  1  0.63397000  0.14365000  0.96561000  1.0 -0.0388198643
C  C185  1  0.14365000  0.50968000  0.03439000  1.0 -0.0388198643
C  C186  1  0.85635000  0.49032000  0.96561000  1.0 -0.0388198643
C  C187  1  0.63396000  0.49031000  0.46561000  1.0 -0.0331007329
C  C188  1  0.36603000  0.50968000  0.53439000  1.0 -0.0388198643
C  C189  1  0.85635000  0.36604000  0.46561000  1.0 -0.0331007329
C  C190  1  0.14365000  0.63397000  0.53439000  1.0 -0.0388198643
C  C191  1  0.50969000  0.14365000  0.46561000  1.0 -0.0331007329
C  C192  1  0.49032000  0.85635000  0.53439000  1.0 -0.0388198643
C  C193  1  0.15698000  0.96730000  0.36772000  1.0 -0.0331007329
C  C194  1  0.17635000  0.69937000  0.29895000  1.0 -0.0331007329
C  C195  1  0.03270000  0.18968000  0.36772000  1.0 -0.0331007329
C  C196  1  0.30063000  0.47699000  0.29895000  1.0 -0.0331007329
C  C197  1  0.81032000  0.84302000  0.36772000  1.0 -0.0331007329
C  C198  1  0.52301000  0.82365000  0.29895000  1.0 -0.0331007329
C  C199  1  0.30063000  0.82364000  0.79895000  1.0 -0.0331007329
C  C200  1  0.03270000  0.84301000  0.86772000  1.0 -0.0388198643
C  C201  1  0.52301000  0.69937000  0.79895000  1.0 -0.0331007329
C  C202  1  0.81032000  0.96730000  0.86772000  1.0 -0.0388198643
C  C203  1  0.17636000  0.47699000  0.79895000  1.0 -0.0331007329
C  C204  1  0.15699000  0.18968000  0.86772000  1.0 -0.0388198643
C  C205  1  0.82365000  0.30064000  0.70106000  1.0 -0.0388198643
C  C206  1  0.84302000  0.03270000  0.63228000  1.0 -0.0331007329
C  C207  1  0.69936000  0.52301000  0.70106000  1.0 -0.0388198643
C  C208  1  0.96730000  0.81032000  0.63228000  1.0 -0.0331007329
C  C209  1  0.47699000  0.17635000  0.70106000  1.0 -0.0388198643
C  C210  1  0.18968000  0.15698000  0.63228000  1.0 -0.0331007329
C  C211  1  0.96730000  0.15699000  0.13228000  1.0 -0.0388198643
C  C212  1  0.69937000  0.17635000  0.20105000  1.0 -0.0331007329
C  C213  1  0.18968000  0.03270000  0.13228000  1.0 -0.0388198643
C  C214  1  0.47699000  0.30063000  0.20105000  1.0 -0.0331007329
C  C215  1  0.84301000  0.81032000  0.13228000  1.0 -0.0388198643
C  C216  1  0.82365000  0.52301000  0.20105000  1.0 -0.0331007329
C  C217  1  0.57208000  0.66602000  0.05506000  1.0 -0.0388198643
C  C218  1  0.42793000  0.33398000  0.94494000  1.0 -0.0388198643
C  C219  1  0.33398000  0.90605000  0.05506000  1.0 -0.0388198643
C  C220  1  0.66602000  0.09395000  0.94494000  1.0 -0.0388198643
C  C221  1  0.09395000  0.42792000  0.05506000  1.0 -0.0388198643
C  C222  1  0.90605000  0.57207000  0.94494000  1.0 -0.0388198643
C  C223  1  0.66602000  0.57207000  0.44495000  1.0 -0.0388198643
C  C224  1  0.33398000  0.42792000  0.55506000  1.0 -0.0388198643
C  C225  1  0.90605000  0.33398000  0.44495000  1.0 -0.0388198643
C  C226  1  0.09394000  0.66602000  0.55506000  1.0 -0.0388198643
C  C227  1  0.42793000  0.09395000  0.44495000  1.0 -0.0388198643
C  C228  1  0.57208000  0.90606000  0.55506000  1.0 -0.0388198643
C  C229  1  0.23874000  0.99935000  0.38838000  1.0 -0.0388198643
C  C230  1  0.09460000  0.66731000  0.27828000  1.0 -0.0388198643
C  C231  1  0.00065000  0.23938000  0.38838000  1.0 -0.0388198643
C  C232  1  0.33269000  0.42728000  0.27828000  1.0 -0.0388198643
C  C233  1  0.76062000  0.76126000  0.38838000  1.0 -0.0388198643
C  C234  1  0.57272000  0.90540000  0.27828000  1.0 -0.0388198643
C  C235  1  0.33268000  0.90540000  0.77828000  1.0 -0.0388198643
C  C236  1  0.00065000  0.76126000  0.88839000  1.0 -0.0388198643
C  C237  1  0.57272000  0.66732000  0.77828000  1.0 -0.0388198643
C  C238  1  0.76061000  0.99935000  0.88839000  1.0 -0.0388198643
C  C239  1  0.09460000  0.42728000  0.77828000  1.0 -0.0388198643
C  C240  1  0.23874000  0.23939000  0.88839000  1.0 -0.0388198643
C  C241  1  0.90541000  0.33269000  0.72172000  1.0 -0.0388198643
C  C242  1  0.76126000  0.00065000  0.61162000  1.0 -0.0388198643
C  C243  1  0.66731000  0.57272000  0.72172000  1.0 -0.0388198643
C  C244  1  0.99935000  0.76062000  0.61162000  1.0 -0.0388198643
C  C245  1  0.42728000  0.09459000  0.72172000  1.0 -0.0388198643
C  C246  1  0.23938000  0.23874000  0.61162000  1.0 -0.0388198643
C  C247  1  0.99935000  0.23874000  0.11161000  1.0 -0.0388198643
C  C248  1  0.66732000  0.09460000  0.22172000  1.0 -0.0388198643
C  C249  1  0.23939000  0.00065000  0.11161000  1.0 -0.0388198643
C  C250  1  0.42728000  0.33268000  0.22172000  1.0 -0.0388198643
C  C251  1  0.76126000  0.76061000  0.11161000  1.0 -0.0388198643
C  C252  1  0.90540000  0.57272000  0.22172000  1.0 -0.0388198643
C  C253  1  0.62143000  0.66957000  0.06826000  1.0 0.1368494829
C  C254  1  0.37857000  0.33042000  0.93174000  1.0 0.1368494829
C  C255  1  0.33043000  0.95186000  0.06826000  1.0 0.1368494829
C  C256  1  0.66958000  0.04815000  0.93174000  1.0 0.1368494829
C  C257  1  0.04814000  0.37857000  0.06826000  1.0 0.1368494829
C  C258  1  0.95185000  0.62143000  0.93174000  1.0 0.1368494829
C  C259  1  0.66957000  0.62144000  0.43174000  1.0 0.1368494829
C  C260  1  0.33042000  0.37858000  0.56825000  1.0 0.1368494829
C  C261  1  0.95187000  0.33043000  0.43174000  1.0 0.1368494829
C  C262  1  0.04816000  0.66958000  0.56825000  1.0 0.1368494829
C  C263  1  0.37856000  0.04813000  0.43174000  1.0 0.1368494829
C  C264  1  0.62142000  0.95184000  0.56825000  1.0 0.1368494829
C  C265  1  0.28811000  0.00291000  0.40159000  1.0 0.1368494829
C  C266  1  0.04523000  0.66376000  0.26507000  1.0 0.1368494829
C  C267  1  0.99709000  0.28520000  0.40159000  1.0 0.1368494829
C  C268  1  0.33624000  0.38147000  0.26507000  1.0 0.1368494829
C  C269  1  0.71480000  0.71189000  0.40159000  1.0 0.1368494829
C  C270  1  0.61853000  0.95477000  0.26507000  1.0 0.1368494829
C  C271  1  0.33624000  0.95478000  0.76507000  1.0 0.1368494829
C  C272  1  0.99709000  0.71191000  0.90159000  1.0 0.1368494829
C  C273  1  0.61854000  0.66376000  0.76507000  1.0 0.1368494829
C  C274  1  0.71482000  0.00291000  0.90159000  1.0 0.1368494829
C  C275  1  0.04522000  0.38146000  0.76507000  1.0 0.1368494829
C  C276  1  0.28809000  0.28518000  0.90159000  1.0 0.1368494829
C  C277  1  0.95475000  0.33625000  0.73492000  1.0 0.1368494829
C  C278  1  0.71189000  0.99710000  0.59841000  1.0 0.1368494829
C  C279  1  0.66375000  0.61851000  0.73492000  1.0 0.1368494829
C  C280  1  0.00290000  0.71479000  0.59841000  1.0 0.1368494829
C  C281  1  0.38149000  0.04525000  0.73492000  1.0 0.1368494829
C  C282  1  0.28521000  0.28811000  0.59841000  1.0 0.1368494829
C  C283  1  0.00291000  0.28809000  0.09841000  1.0 0.1368494829
C  C284  1  0.66376000  0.04523000  0.23492000  1.0 0.1368494829
C  C285  1  0.28518000  0.99709000  0.09841000  1.0 0.1368494829
C  C286  1  0.38146000  0.33624000  0.23492000  1.0 0.1368494829
C  C287  1  0.71191000  0.71482000  0.09841000  1.0 0.1368494829
C  C288  1  0.95477000  0.61854000  0.23492000  1.0 0.1368494829
C  C289  1  0.63120000  0.63065000  0.07210000  1.0 -0.1451468101
C  C290  1  0.36880000  0.36935000  0.92791000  1.0 -0.1451468101
C  C291  1  0.36935000  0.00055000  0.07210000  1.0 -0.1451468101
C  C292  1  0.63065000  0.99944000  0.92791000  1.0 -0.1446881076
C  C293  1  0.99945000  0.36880000  0.07210000  1.0 -0.1451468101
C  C294  1  0.00056000  0.63120000  0.92791000  1.0 -0.1446881076
C  C295  1  0.63066000  0.63120000  0.42791000  1.0 -0.1451468101
C  C296  1  0.36935000  0.36879000  0.57210000  1.0 -0.1451468101
C  C297  1  0.00054000  0.36934000  0.42791000  1.0 -0.1446881076
C  C298  1  0.99944000  0.63065000  0.57210000  1.0 -0.1451468101
C  C299  1  0.36880000  0.99946000  0.42791000  1.0 -0.1446881076
C  C300  1  0.63121000  0.00056000  0.57210000  1.0 -0.1451468101
C  C301  1  0.29787000  0.96399000  0.40543000  1.0 -0.1451468101
C  C302  1  0.03547000  0.70268000  0.26124000  1.0 -0.1446881076
C  C303  1  0.03601000  0.33388000  0.40543000  1.0 -0.1446881076
C  C304  1  0.29732000  0.33279000  0.26124000  1.0 -0.1451468101
C  C305  1  0.66612000  0.70213000  0.40543000  1.0 -0.1451468101
C  C306  1  0.66721000  0.96453000  0.26124000  1.0 -0.1446881076
C  C307  1  0.29732000  0.96452000  0.76124000  1.0 -0.1451468101
C  C308  1  0.03602000  0.70213000  0.90543000  1.0 -0.1446881076
C  C309  1  0.66721000  0.70268000  0.76124000  1.0 -0.1451468101
C  C310  1  0.66611000  0.96398000  0.90543000  1.0 -0.1451468101
C  C311  1  0.03548000  0.33279000  0.76124000  1.0 -0.1446881076
C  C312  1  0.29787000  0.33389000  0.90543000  1.0 -0.1451468101
C  C313  1  0.96454000  0.29732000  0.73876000  1.0 -0.1451468101
C  C314  1  0.70214000  0.03601000  0.59457000  1.0 -0.1451468101
C  C315  1  0.70268000  0.66723000  0.73876000  1.0 -0.1446881076
C  C316  1  0.96399000  0.66613000  0.59457000  1.0 -0.1451468101
C  C317  1  0.33277000  0.03546000  0.73876000  1.0 -0.1451468101
C  C318  1  0.33387000  0.29786000  0.59457000  1.0 -0.1451468101
C  C319  1  0.96398000  0.29787000  0.09457000  1.0 -0.1451468101
C  C320  1  0.70268000  0.03547000  0.23876000  1.0 -0.1451468101
C  C321  1  0.33389000  0.03602000  0.09457000  1.0 -0.1451468101
C  C322  1  0.33279000  0.29732000  0.23876000  1.0 -0.1451468101
C  C323  1  0.70213000  0.66611000  0.09457000  1.0 -0.1451468101
C  C324  1  0.96453000  0.66721000  0.23876000  1.0 -0.1451468101
C  C325  1  0.66666667  0.61814000  0.08333000  1.0 0.0318890699
C  C326  1  0.33333333  0.38186000  0.91667000  1.0 0.0318890699
C  C327  1  0.38186000  0.04853000  0.08333000  1.0 0.0318890699
C  C328  1  0.61814000  0.95147000  0.91667000  1.0 0.0318890699
C  C329  1  0.95147000  0.33333333  0.08333000  1.0 0.0318890699
C  C330  1  0.04853000  0.66666667  0.91667000  1.0 0.0318890699
C  C331  1  0.61813000  0.66666667  0.41667000  1.0 0.0318890699
C  C332  1  0.38187000  0.33333333  0.58333000  1.0 0.0318890699
C  C333  1  0.04853000  0.38187000  0.41667000  1.0 0.0318890699
C  C334  1  0.95147000  0.61813000  0.58333000  1.0 0.0318890699
C  C335  1  0.33333333  0.95147000  0.41667000  1.0 0.0318890699
C  C336  1  0.66666667  0.04853000  0.58333000  1.0 0.0318890699
C  C337  1  0.00000000  0.71520000  0.25000000  1.0 0.0318890699
C  C338  1  0.28480000  0.28480000  0.25000000  1.0 0.0318890699
C  C339  1  0.71520000  0.00000000  0.25000000  1.0 0.0318890699
C  C340  1  0.28481000  0.00000000  0.75000000  1.0 0.0318890699
C  C341  1  0.71520000  0.71519000  0.75000000  1.0 0.0318890699
C  C342  1  0.00000000  0.28480000  0.75000000  1.0 0.0318890699
C  C343  1  0.66666667  0.56962000  0.08333000  1.0 -0.0484097534
C  C344  1  0.33333333  0.43038000  0.91667000  1.0 -0.0484097534
C  C345  1  0.43038000  0.09705000  0.08333000  1.0 -0.0484097534
C  C346  1  0.56962000  0.90295000  0.91667000  1.0 -0.0484097534
C  C347  1  0.90295000  0.33333333  0.08333000  1.0 -0.0484097534
C  C348  1  0.09705000  0.66666667  0.91667000  1.0 -0.0484097534
C  C349  1  0.56961000  0.66666667  0.41667000  1.0 -0.0484097534
C  C350  1  0.43039000  0.33333333  0.58334000  1.0 -0.0484097534
C  C351  1  0.09706000  0.43039000  0.41667000  1.0 -0.0484097534
C  C352  1  0.90295000  0.56961000  0.58334000  1.0 -0.0484097534
C  C353  1  0.33333333  0.90294000  0.41667000  1.0 -0.0484097534
C  C354  1  0.66666667  0.09705000  0.58334000  1.0 -0.0484097534
C  C355  1  0.00000000  0.76373000  0.25000000  1.0 -0.0484097534
C  C356  1  0.23627000  0.23627000  0.25000000  1.0 -0.0484097534
C  C357  1  0.76373000  0.00000000  0.25000000  1.0 -0.0484097534
C  C358  1  0.23628000  0.00000000  0.75000000  1.0 -0.0484097534
C  C359  1  0.76372000  0.76372000  0.75000000  1.0 -0.0484097534
C  C360  1  0.00000000  0.23628000  0.75000000  1.0 -0.0484097534
C  C361  1  0.70225000  0.55707000  0.07613000  1.0 -0.1018015887
C  C362  1  0.29775000  0.44293000  0.92387000  1.0 -0.1018015887
C  C363  1  0.44293000  0.14518000  0.07613000  1.0 -0.1018015887
C  C364  1  0.55707000  0.85482000  0.92387000  1.0 -0.1018015887
C  C365  1  0.85482000  0.29775000  0.07613000  1.0 -0.1018015887
C  C366  1  0.14518000  0.70225000  0.92387000  1.0 -0.1018015887
C  C367  1  0.55708000  0.70225000  0.42387000  1.0 -0.1018015887
C  C368  1  0.44293000  0.29775000  0.57611000  1.0 -0.1018015887
C  C369  1  0.14517000  0.44292000  0.42387000  1.0 -0.1018015887
C  C370  1  0.85482000  0.55707000  0.57611000  1.0 -0.1018015887
C  C371  1  0.29775000  0.85483000  0.42387000  1.0 -0.1018015887
C  C372  1  0.70225000  0.14518000  0.57611000  1.0 -0.1018015887
C  C373  1  0.36892000  0.89041000  0.40945000  1.0 -0.1018015887
C  C374  1  0.96442000  0.77626000  0.25722000  1.0 -0.1018015887
C  C375  1  0.10959000  0.47851000  0.40945000  1.0 -0.1018015887
C  C376  1  0.22374000  0.18816000  0.25722000  1.0 -0.1018015887
C  C377  1  0.52149000  0.63108000  0.40945000  1.0 -0.1018015887
C  C378  1  0.81184000  0.03558000  0.25722000  1.0 -0.1018015887
C  C379  1  0.22374000  0.03558000  0.75721000  1.0 -0.1018015887
C  C380  1  0.10960000  0.63108000  0.90945000  1.0 -0.1018015887
C  C381  1  0.81184000  0.77626000  0.75721000  1.0 -0.1018015887
C  C382  1  0.52149000  0.89040000  0.90945000  1.0 -0.1018015887
C  C383  1  0.96442000  0.18816000  0.75721000  1.0 -0.1018015887
C  C384  1  0.36892000  0.47851000  0.90945000  1.0 -0.1018015887
C  C385  1  0.03558000  0.22374000  0.74278000  1.0 -0.1018015887
C  C386  1  0.63108000  0.10959000  0.59054000  1.0 -0.1018015887
C  C387  1  0.77626000  0.81185000  0.74278000  1.0 -0.1018015887
C  C388  1  0.89041000  0.52149000  0.59054000  1.0 -0.1018015887
C  C389  1  0.18815000  0.96442000  0.74278000  1.0 -0.1018015887
C  C390  1  0.47851000  0.36892000  0.59054000  1.0 -0.1018015887
C  C391  1  0.89040000  0.36892000  0.09055000  1.0 -0.1018015887
C  C392  1  0.77626000  0.96442000  0.24279000  1.0 -0.1018015887
C  C393  1  0.47851000  0.10960000  0.09055000  1.0 -0.1018015887
C  C394  1  0.18816000  0.22374000  0.24279000  1.0 -0.1018015887
C  C395  1  0.63108000  0.52149000  0.09055000  1.0 -0.1018015887
C  C396  1  0.03558000  0.81184000  0.24279000  1.0 -0.1018015887
C  C397  1  0.70203000  0.52006000  0.07643000  1.0 0.1368494829
C  C398  1  0.29797000  0.47994000  0.92357000  1.0 0.1368494829
C  C399  1  0.47994000  0.18197000  0.07643000  1.0 0.1368494829
C  C400  1  0.52006000  0.81803000  0.92357000  1.0 0.1368494829
C  C401  1  0.81803000  0.29797000  0.07643000  1.0 0.1368494829
C  C402  1  0.18197000  0.70203000  0.92357000  1.0 0.1368494829
C  C403  1  0.52006000  0.70203000  0.42357000  1.0 0.1368494829
C  C404  1  0.47994000  0.29798000  0.57643000  1.0 0.1368494829
C  C405  1  0.18197000  0.47994000  0.42357000  1.0 0.1368494829
C  C406  1  0.81804000  0.52006000  0.57643000  1.0 0.1368494829
C  C407  1  0.29797000  0.81803000  0.42357000  1.0 0.1368494829
C  C408  1  0.70202000  0.18196000  0.57643000  1.0 0.1368494829
C  C409  1  0.36869000  0.85339000  0.40976000  1.0 0.1368494829
C  C410  1  0.96465000  0.81327000  0.25690000  1.0 0.1368494829
C  C411  1  0.14661000  0.51530000  0.40976000  1.0 0.1368494829
C  C412  1  0.18673000  0.15137000  0.25690000  1.0 0.1368494829
C  C413  1  0.48470000  0.63131000  0.40976000  1.0 0.1368494829
C  C414  1  0.84863000  0.03535000  0.25690000  1.0 0.1368494829
C  C415  1  0.18673000  0.03536000  0.75690000  1.0 0.1368494829
C  C416  1  0.14661000  0.63131000  0.90976000  1.0 0.1368494829
C  C417  1  0.84864000  0.81327000  0.75690000  1.0 0.1368494829
C  C418  1  0.48470000  0.85339000  0.90976000  1.0 0.1368494829
C  C419  1  0.96464000  0.15136000  0.75690000  1.0 0.1368494829
C  C420  1  0.36869000  0.51530000  0.90976000  1.0 0.1368494829
C  C421  1  0.03535000  0.18673000  0.74310000  1.0 0.1368494829
C  C422  1  0.63131000  0.14661000  0.59023000  1.0 0.1368494829
C  C423  1  0.81327000  0.84863000  0.74310000  1.0 0.1368494829
C  C424  1  0.85339000  0.48470000  0.59023000  1.0 0.1368494829
C  C425  1  0.15137000  0.96465000  0.74310000  1.0 0.1368494829
C  C426  1  0.51530000  0.36869000  0.59023000  1.0 0.1368494829
C  C427  1  0.85339000  0.36869000  0.09024000  1.0 0.1368494829
C  C428  1  0.81328000  0.96464000  0.24310000  1.0 0.1368494829
C  C429  1  0.51530000  0.14661000  0.09024000  1.0 0.1368494829
C  C430  1  0.15136000  0.18672000  0.24310000  1.0 0.1368494829
C  C431  1  0.63131000  0.48470000  0.09024000  1.0 0.1368494829
C  C432  1  0.03536000  0.84864000  0.24310000  1.0 0.1368494829
N  N1  1  0.66666667  0.47071000  0.08331000  1.0 -0.2646333357
N  N2  1  0.33333333  0.52929000  0.91670000  1.0 -0.2651663503
N  N3  1  0.52929000  0.19595000  0.08331000  1.0 -0.2646333357
N  N4  1  0.47071000  0.80405000  0.91670000  1.0 -0.2651663503
N  N5  1  0.80405000  0.33333333  0.08331000  1.0 -0.2646333357
N  N6  1  0.19595000  0.66666667  0.91670000  1.0 -0.2651663503
N  N7  1  0.47071000  0.66666667  0.41669000  1.0 -0.2651663503
N  N8  1  0.52928000  0.33333333  0.58336000  1.0 -0.2651663503
N  N9  1  0.19595000  0.52929000  0.41669000  1.0 -0.2651663503
N  N10  1  0.80405000  0.47072000  0.58336000  1.0 -0.2646333357
N  N11  1  0.33333333  0.80405000  0.41669000  1.0 -0.2651663503
N  N12  1  0.66666667  0.19595000  0.58336000  1.0 -0.2651663503
N  N13  1  0.00000000  0.86261000  0.24997000  1.0 -0.2646333357
N  N14  1  0.13739000  0.13739000  0.24997000  1.0 -0.2651663503
N  N15  1  0.86261000  0.00000000  0.24997000  1.0 -0.2646333357
N  N16  1  0.13739000  0.00000000  0.75003000  1.0 -0.2651663503
N  N17  1  0.86261000  0.86261000  0.75003000  1.0 -0.2651663503
N  N18  1  0.00000000  0.13739000  0.75003000  1.0 -0.2651663503
N  N19  1  0.66666667  0.71608000  0.08333000  1.0 -0.1966939599
N  N20  1  0.33333333  0.28392000  0.91667000  1.0 -0.1966939599
N  N21  1  0.28392000  0.95059000  0.08333000  1.0 -0.1966939599
N  N22  1  0.71608000  0.04941000  0.91667000  1.0 -0.1966939599
N  N23  1  0.04941000  0.33333333  0.08333000  1.0 -0.1966939599
N  N24  1  0.95059000  0.66666667  0.91667000  1.0 -0.1966939599
N  N25  1  0.71608000  0.66666667  0.41667000  1.0 -0.1966939599
N  N26  1  0.28391000  0.33333333  0.58333000  1.0 -0.1966939599
N  N27  1  0.95058000  0.28392000  0.41667000  1.0 -0.1966939599
N  N28  1  0.04941000  0.71609000  0.58333000  1.0 -0.1966939599
N  N29  1  0.33333333  0.04942000  0.41667000  1.0 -0.1966939599
N  N30  1  0.66666667  0.95059000  0.58333000  1.0 -0.1966939599
N  N31  1  0.00000000  0.61726000  0.25000000  1.0 -0.1966939599
N  N32  1  0.38274000  0.38274000  0.25000000  1.0 -0.1966939599
N  N33  1  0.61726000  0.00000000  0.25000000  1.0 -0.1966939599
N  N34  1  0.38273000  0.99999000  0.75000000  1.0 -0.1966939599
N  N35  1  0.61726000  0.61727000  0.75000000  1.0 -0.1966939599
N  N36  1  0.00001000  0.38274000  0.75000000  1.0 -0.1966939599
O  O1  1  0.66666667  0.33333333  0.08601000  1.0 -0.8127451619
O  O2  1  0.33333333  0.66666667  0.91399000  1.0 -0.8127451619
O  O3  1  0.33333333  0.66666667  0.41400000  1.0 -0.8127451619
O  O4  1  0.66666667  0.33333333  0.58064000  1.0 -0.8127451619
O  O5  1  0.00000000  0.00000000  0.25270000  1.0 -0.8127451619
O  O6  1  0.00000000  0.00000000  0.74730000  1.0 -0.8127451619
O  O7  1  0.43247000  0.71562000  0.99336000  1.0 -0.5489996752
O  O8  1  0.56753000  0.28439000  0.00665000  1.0 -0.5489996752
O  O9  1  0.28438000  0.71685000  0.99336000  1.0 -0.5489996752
O  O10  1  0.71561000  0.28314000  0.00665000  1.0 -0.5489996752
O  O11  1  0.28315000  0.56753000  0.99336000  1.0 -0.5489996752
O  O12  1  0.71686000  0.43247000  0.00665000  1.0 -0.5489996752
O  O13  1  0.71555000  0.43213000  0.50646000  1.0 -0.5582608694
O  O14  1  0.28439000  0.56753000  0.49337000  1.0 -0.5489996752
O  O15  1  0.71657000  0.28445000  0.50646000  1.0 -0.5582608694
O  O16  1  0.28313000  0.71561000  0.49337000  1.0 -0.5489996752
O  O17  1  0.56787000  0.28343000  0.50646000  1.0 -0.5582608694
O  O18  1  0.43247000  0.71687000  0.49337000  1.0 -0.5489996752
O  O19  1  0.09879000  0.04889000  0.32687000  1.0 -0.5582608694
O  O20  1  0.23454000  0.61779000  0.33980000  1.0 -0.5582608694
O  O21  1  0.95111000  0.04990000  0.32687000  1.0 -0.5582608694
O  O22  1  0.38221000  0.61675000  0.33980000  1.0 -0.5582608694
O  O23  1  0.95010000  0.90121000  0.32687000  1.0 -0.5582608694
O  O24  1  0.38325000  0.76546000  0.33980000  1.0 -0.5582608694
O  O25  1  0.38222000  0.76545000  0.83981000  1.0 -0.5582608694
O  O26  1  0.95106000  0.90086000  0.82668000  1.0 -0.5489996752
O  O27  1  0.38324000  0.61778000  0.83981000  1.0 -0.5582608694
O  O28  1  0.94980000  0.04894000  0.82668000  1.0 -0.5489996752
O  O29  1  0.23455000  0.61676000  0.83981000  1.0 -0.5582608694
O  O30  1  0.09914000  0.05020000  0.82668000  1.0 -0.5489996752
O  O31  1  0.76580000  0.38227000  0.66002000  1.0 -0.5489996752
O  O32  1  0.90121000  0.95111000  0.67313000  1.0 -0.5582608694
O  O33  1  0.61773000  0.38354000  0.66002000  1.0 -0.5489996752
O  O34  1  0.04889000  0.95010000  0.67313000  1.0 -0.5582608694
O  O35  1  0.61646000  0.23420000  0.66002000  1.0 -0.5489996752
O  O36  1  0.04990000  0.09879000  0.67313000  1.0 -0.5582608694
O  O37  1  0.04894000  0.09914000  0.17332000  1.0 -0.5489996752
O  O38  1  0.61779000  0.23455000  0.16021000  1.0 -0.5582608694
O  O39  1  0.05020000  0.95106000  0.17332000  1.0 -0.5489996752
O  O40  1  0.61676000  0.38221000  0.16021000  1.0 -0.5582608694
O  O41  1  0.90086000  0.94980000  0.17332000  1.0 -0.5489996752
O  O42  1  0.76545000  0.38324000  0.16021000  1.0 -0.5582608694
O  O43  1  0.39464000  0.62267000  0.97478000  1.0 -0.6286525012
O  O44  1  0.60537000  0.37733000  0.02524000  1.0 -0.6286525012
O  O45  1  0.37733000  0.77196000  0.97478000  1.0 -0.6286525012
O  O46  1  0.62267000  0.22804000  0.02524000  1.0 -0.6286525012
O  O47  1  0.22804000  0.60536000  0.97478000  1.0 -0.6286525012
O  O48  1  0.77196000  0.39463000  0.02524000  1.0 -0.6286525012
O  O49  1  0.62277000  0.39450000  0.52505000  1.0 -0.6376516899
O  O50  1  0.37732000  0.60535000  0.47478000  1.0 -0.6286525012
O  O51  1  0.77173000  0.37723000  0.52505000  1.0 -0.6376516899
O  O52  1  0.22803000  0.62268000  0.47478000  1.0 -0.6286525012
O  O53  1  0.60550000  0.22827000  0.52505000  1.0 -0.6376516899
O  O54  1  0.39465000  0.77197000  0.47478000  1.0 -0.6286525012
O  O55  1  0.06117000  0.95611000  0.30832000  1.0 -0.6376516899
O  O56  1  0.27218000  0.71058000  0.35837000  1.0 -0.6376516899
O  O57  1  0.04389000  0.10506000  0.30832000  1.0 -0.6376516899
O  O58  1  0.28942000  0.56160000  0.35837000  1.0 -0.6376516899
O  O59  1  0.89494000  0.93883000  0.30832000  1.0 -0.6376516899
O  O60  1  0.43840000  0.72782000  0.35837000  1.0 -0.6376516899
O  O61  1  0.28941000  0.72782000  0.85838000  1.0 -0.6376516899
O  O62  1  0.04399000  0.93869000  0.80813000  1.0 -0.6286525012
O  O63  1  0.43840000  0.71059000  0.85838000  1.0 -0.6376516899
O  O64  1  0.89470000  0.95601000  0.80813000  1.0 -0.6286525012
O  O65  1  0.27218000  0.56160000  0.85838000  1.0 -0.6376516899
O  O66  1  0.06131000  0.10530000  0.80813000  1.0 -0.6286525012
O  O67  1  0.72796000  0.28933000  0.64145000  1.0 -0.6286525012
O  O68  1  0.93883000  0.04389000  0.69168000  1.0 -0.6376516899
O  O69  1  0.71067000  0.43863000  0.64145000  1.0 -0.6286525012
O  O70  1  0.95611000  0.89494000  0.69168000  1.0 -0.6376516899
O  O71  1  0.56137000  0.27204000  0.64145000  1.0 -0.6286525012
O  O72  1  0.10506000  0.06117000  0.69168000  1.0 -0.6376516899
O  O73  1  0.95601000  0.06131000  0.19187000  1.0 -0.6286525012
O  O74  1  0.71058000  0.27218000  0.14164000  1.0 -0.6376516899
O  O75  1  0.10530000  0.04399000  0.19187000  1.0 -0.6286525012
O  O76  1  0.56160000  0.28942000  0.14164000  1.0 -0.6376516899
O  O77  1  0.93869000  0.89470000  0.19187000  1.0 -0.6286525012
O  O78  1  0.72782000  0.43840000  0.14164000  1.0 -0.6376516899
