# DDEC6 charges by PACMAN v1.1 (https://github.com/mtap-research/PACMAN-charge/)
data_KEVCIA_ASR_pacman
_symmetry_space_group_name_H-M   'P 1'
_cell_length_a   42.19400000
_cell_length_b   42.19400000
_cell_length_c   16.96000000
_cell_angle_alpha   90.00000000
_cell_angle_beta   90.00000000
_cell_angle_gamma   120.00000000
_symmetry_Int_Tables_number   1
_chemical_formula_structural   Hf3H48C92(N4O7)2
_chemical_formula_sum   'Hf18 H288 C552 N48 O84'
_cell_volume   26149.16808556
_cell_formula_units_Z   6
loop_
 _symmetry_equiv_pos_site_id
 _symmetry_equiv_pos_as_xyz
  1  'x, y, z'
loop_
 _atom_site_type_symbol
 _atom_site_label
 _atom_site_symmetry_multiplicity
 _atom_site_fract_x
 _atom_site_fract_y
 _atom_site_fract_z
 _atom_site_occupancy
 _atom_site_charge
Hf  Hf1  1  0.53366000  0.06732000  0.00000000  1.0 1.0813220467
Hf  Hf2  1  0.53366000  0.46634000  0.00000000  1.0 1.0813220467
Hf  Hf3  1  0.93268000  0.46634000  0.00000000  1.0 1.0857811655
Hf  Hf4  1  0.46634000  0.93268000  0.00000000  1.0 1.0813220467
Hf  Hf5  1  0.46634000  0.53366000  0.00000000  1.0 1.0813220467
Hf  Hf6  1  0.06732000  0.53366000  0.00000000  1.0 1.0813220467
Hf  Hf7  1  0.54153000  0.00000000  0.10310000  1.0 1.0261418138
Hf  Hf8  1  0.45847000  0.45847000  0.10310000  1.0 1.023589846
Hf  Hf9  1  0.00000000  0.54153000  0.10310000  1.0 1.0261418138
Hf  Hf10  1  0.45847000  0.00000000  0.10310000  1.0 1.0261418138
Hf  Hf11  1  0.54153000  0.54153000  0.10310000  1.0 1.023589846
Hf  Hf12  1  0.00000000  0.45847000  0.10310000  1.0 1.023589846
Hf  Hf13  1  0.54153000  0.00000000  0.89690000  1.0 1.0261418138
Hf  Hf14  1  0.00000000  0.54153000  0.89690000  1.0 1.023589846
Hf  Hf15  1  0.45847000  0.45847000  0.89690000  1.0 1.023589846
Hf  Hf16  1  0.45847000  0.00000000  0.89690000  1.0 1.0261418138
Hf  Hf17  1  0.00000000  0.45847000  0.89690000  1.0 1.0261418138
Hf  Hf18  1  0.54153000  0.54153000  0.89690000  1.0 1.0261418138
H  H1  1  0.61970000  0.15610000  0.14700000  1.0 0.0888013815
H  H2  1  0.65950000  0.19800000  0.24010000  1.0 0.0789428625
H  H3  1  0.68290000  0.12180000  0.32230000  1.0 0.0789428625
H  H4  1  0.64310000  0.07990000  0.22920000  1.0 0.0789428625
H  H5  1  0.73290000  0.21070000  0.20780000  1.0 0.0789428625
H  H6  1  0.63550000  0.12930000  0.42930000  1.0 0.0546615383
H  H7  1  0.60780000  0.16060000  0.15120000  1.0 0.0627726019
H  H8  1  0.64630000  0.20320000  0.24490000  1.0 0.0627726019
H  H9  1  0.66920000  0.12790000  0.33480000  1.0 0.0789428625
H  H10  1  0.63070000  0.08530000  0.24110000  1.0 0.0888013815
H  H11  1  0.71930000  0.22130000  0.20810000  1.0 0.0712352631
H  H12  1  0.62040000  0.14470000  0.42850000  1.0 0.0627726019
H  H13  1  0.53640000  0.38030000  0.14700000  1.0 0.0888013815
H  H14  1  0.53850000  0.34050000  0.24010000  1.0 0.0789428625
H  H15  1  0.43890000  0.31710000  0.32230000  1.0 0.0789428625
H  H16  1  0.43680000  0.35690000  0.22920000  1.0 0.0789428625
H  H17  1  0.47780000  0.26710000  0.20780000  1.0 0.0789428625
H  H18  1  0.49380000  0.36450000  0.42930000  1.0 0.0546615383
H  H19  1  0.55280000  0.39220000  0.15120000  1.0 0.0627726019
H  H20  1  0.55690000  0.35370000  0.24490000  1.0 0.0627726019
H  H21  1  0.45870000  0.33080000  0.33480000  1.0 0.0789428625
H  H22  1  0.45460000  0.36930000  0.24110000  1.0 0.0888013815
H  H23  1  0.50200000  0.28070000  0.20810000  1.0 0.0712352631
H  H24  1  0.52430000  0.37960000  0.42850000  1.0 0.0627726019
H  H25  1  0.84390000  0.46360000  0.14700000  1.0 0.0888013815
H  H26  1  0.80200000  0.46150000  0.24010000  1.0 0.0789428625
H  H27  1  0.87820000  0.56110000  0.32230000  1.0 0.0789428625
H  H28  1  0.92010000  0.56320000  0.22920000  1.0 0.0789428625
H  H29  1  0.78930000  0.52220000  0.20780000  1.0 0.0789428625
H  H30  1  0.87070000  0.50620000  0.42930000  1.0 0.0546615383
H  H31  1  0.83940000  0.44720000  0.15120000  1.0 0.0627726019
H  H32  1  0.79680000  0.44310000  0.24490000  1.0 0.0627726019
H  H33  1  0.87210000  0.54130000  0.33480000  1.0 0.0789428625
H  H34  1  0.91470000  0.54540000  0.24110000  1.0 0.0888013815
H  H35  1  0.77870000  0.49800000  0.20810000  1.0 0.0712352631
H  H36  1  0.85530000  0.47570000  0.42850000  1.0 0.0627726019
H  H37  1  0.38030000  0.84390000  0.14700000  1.0 0.0888013815
H  H38  1  0.34050000  0.80200000  0.24010000  1.0 0.0789428625
H  H39  1  0.31710000  0.87820000  0.32230000  1.0 0.0789428625
H  H40  1  0.35690000  0.92010000  0.22920000  1.0 0.0789428625
H  H41  1  0.26710000  0.78930000  0.20780000  1.0 0.0789428625
H  H42  1  0.36450000  0.87070000  0.42930000  1.0 0.0546615383
H  H43  1  0.39220000  0.83940000  0.15120000  1.0 0.0627726019
H  H44  1  0.35370000  0.79680000  0.24490000  1.0 0.0627726019
H  H45  1  0.33080000  0.87210000  0.33480000  1.0 0.0789428625
H  H46  1  0.36930000  0.91470000  0.24110000  1.0 0.0888013815
H  H47  1  0.28070000  0.77870000  0.20810000  1.0 0.0712352631
H  H48  1  0.37960000  0.85530000  0.42850000  1.0 0.0627726019
H  H49  1  0.46360000  0.61970000  0.14700000  1.0 0.0888013815
H  H50  1  0.46150000  0.65950000  0.24010000  1.0 0.0789428625
H  H51  1  0.56110000  0.68290000  0.32230000  1.0 0.0789428625
H  H52  1  0.56320000  0.64310000  0.22920000  1.0 0.0789428625
H  H53  1  0.52220000  0.73290000  0.20780000  1.0 0.0789428625
H  H54  1  0.50620000  0.63550000  0.42930000  1.0 0.0546615383
H  H55  1  0.44720000  0.60780000  0.15120000  1.0 0.0627726019
H  H56  1  0.44310000  0.64630000  0.24490000  1.0 0.0627726019
H  H57  1  0.54130000  0.66920000  0.33480000  1.0 0.0789428625
H  H58  1  0.54540000  0.63070000  0.24110000  1.0 0.0888013815
H  H59  1  0.49800000  0.71930000  0.20810000  1.0 0.0712352631
H  H60  1  0.47570000  0.62040000  0.42850000  1.0 0.0627726019
H  H61  1  0.15610000  0.53640000  0.14700000  1.0 0.0888013815
H  H62  1  0.19800000  0.53850000  0.24010000  1.0 0.0789428625
H  H63  1  0.12180000  0.43890000  0.32230000  1.0 0.0789428625
H  H64  1  0.07990000  0.43680000  0.22920000  1.0 0.0789428625
H  H65  1  0.21070000  0.47780000  0.20780000  1.0 0.0789428625
H  H66  1  0.12930000  0.49380000  0.42930000  1.0 0.0546615383
H  H67  1  0.16060000  0.55280000  0.15120000  1.0 0.0627726019
H  H68  1  0.20320000  0.55690000  0.24490000  1.0 0.0627726019
H  H69  1  0.12790000  0.45870000  0.33480000  1.0 0.0789428625
H  H70  1  0.08530000  0.45460000  0.24110000  1.0 0.0888013815
H  H71  1  0.22130000  0.50200000  0.20810000  1.0 0.0712352631
H  H72  1  0.14470000  0.52430000  0.42850000  1.0 0.0627726019
H  H73  1  0.46360000  0.84390000  0.85300000  1.0 0.0888013815
H  H74  1  0.46150000  0.80200000  0.75990000  1.0 0.0789428625
H  H75  1  0.56110000  0.87820000  0.67770000  1.0 0.0789428625
H  H76  1  0.56320000  0.92010000  0.77080000  1.0 0.0789428625
H  H77  1  0.52220000  0.78930000  0.79220000  1.0 0.0789428625
H  H78  1  0.50620000  0.87070000  0.57070000  1.0 0.0546615383
H  H79  1  0.44720000  0.83940000  0.84880000  1.0 0.0627726019
H  H80  1  0.44310000  0.79680000  0.75510000  1.0 0.0627726019
H  H81  1  0.54130000  0.87210000  0.66520000  1.0 0.0789428625
H  H82  1  0.54540000  0.91470000  0.75890000  1.0 0.0888013815
H  H83  1  0.49800000  0.77870000  0.79190000  1.0 0.0712352631
H  H84  1  0.47570000  0.85530000  0.57150000  1.0 0.0627726019
H  H85  1  0.15610000  0.61970000  0.85300000  1.0 0.0888013815
H  H86  1  0.19800000  0.65950000  0.75990000  1.0 0.0789428625
H  H87  1  0.12180000  0.68290000  0.67770000  1.0 0.0789428625
H  H88  1  0.07990000  0.64310000  0.77080000  1.0 0.0789428625
H  H89  1  0.21070000  0.73290000  0.79220000  1.0 0.0789428625
H  H90  1  0.12930000  0.63550000  0.57070000  1.0 0.0546615383
H  H91  1  0.16060000  0.60780000  0.84880000  1.0 0.0627726019
H  H92  1  0.20320000  0.64630000  0.75510000  1.0 0.0627726019
H  H93  1  0.12790000  0.66920000  0.66520000  1.0 0.0789428625
H  H94  1  0.08530000  0.63070000  0.75890000  1.0 0.0888013815
H  H95  1  0.22130000  0.71930000  0.79190000  1.0 0.0712352631
H  H96  1  0.14470000  0.62040000  0.57150000  1.0 0.0627726019
H  H97  1  0.38030000  0.53640000  0.85300000  1.0 0.0888013815
H  H98  1  0.34050000  0.53850000  0.75990000  1.0 0.0789428625
H  H99  1  0.31710000  0.43890000  0.67770000  1.0 0.0789428625
H  H100  1  0.35690000  0.43680000  0.77080000  1.0 0.0789428625
H  H101  1  0.26710000  0.47780000  0.79220000  1.0 0.0789428625
H  H102  1  0.36450000  0.49380000  0.57070000  1.0 0.0546615383
H  H103  1  0.39220000  0.55280000  0.84880000  1.0 0.0627726019
H  H104  1  0.35370000  0.55690000  0.75510000  1.0 0.0627726019
H  H105  1  0.33080000  0.45870000  0.66520000  1.0 0.0789428625
H  H106  1  0.36930000  0.45460000  0.75890000  1.0 0.0888013815
H  H107  1  0.28070000  0.50200000  0.79190000  1.0 0.0712352631
H  H108  1  0.37960000  0.52430000  0.57150000  1.0 0.0627726019
H  H109  1  0.53640000  0.15610000  0.85300000  1.0 0.0888013815
H  H110  1  0.53850000  0.19800000  0.75990000  1.0 0.0789428625
H  H111  1  0.43890000  0.12180000  0.67770000  1.0 0.0789428625
H  H112  1  0.43680000  0.07990000  0.77080000  1.0 0.0789428625
H  H113  1  0.47780000  0.21070000  0.79220000  1.0 0.0789428625
H  H114  1  0.49380000  0.12930000  0.57070000  1.0 0.0546615383
H  H115  1  0.55280000  0.16060000  0.84880000  1.0 0.0627726019
H  H116  1  0.55690000  0.20320000  0.75510000  1.0 0.0627726019
H  H117  1  0.45870000  0.12790000  0.66520000  1.0 0.0789428625
H  H118  1  0.45460000  0.08530000  0.75890000  1.0 0.0888013815
H  H119  1  0.50200000  0.22130000  0.79190000  1.0 0.0712352631
H  H120  1  0.52430000  0.14470000  0.57150000  1.0 0.0627726019
H  H121  1  0.84390000  0.38030000  0.85300000  1.0 0.0888013815
H  H122  1  0.80200000  0.34050000  0.75990000  1.0 0.0789428625
H  H123  1  0.87820000  0.31710000  0.67770000  1.0 0.0789428625
H  H124  1  0.92010000  0.35690000  0.77080000  1.0 0.0789428625
H  H125  1  0.78930000  0.26710000  0.79220000  1.0 0.0789428625
H  H126  1  0.87070000  0.36450000  0.57070000  1.0 0.0546615383
H  H127  1  0.83940000  0.39220000  0.84880000  1.0 0.0627726019
H  H128  1  0.79680000  0.35370000  0.75510000  1.0 0.0627726019
H  H129  1  0.87210000  0.33080000  0.66520000  1.0 0.0789428625
H  H130  1  0.91470000  0.36930000  0.75890000  1.0 0.0888013815
H  H131  1  0.77870000  0.28070000  0.79190000  1.0 0.0712352631
H  H132  1  0.85530000  0.37960000  0.57150000  1.0 0.0627726019
H  H133  1  0.61970000  0.46360000  0.85300000  1.0 0.0888013815
H  H134  1  0.65950000  0.46150000  0.75990000  1.0 0.0789428625
H  H135  1  0.68290000  0.56110000  0.67770000  1.0 0.0789428625
H  H136  1  0.64310000  0.56320000  0.77080000  1.0 0.0789428625
H  H137  1  0.73290000  0.52220000  0.79220000  1.0 0.0789428625
H  H138  1  0.63550000  0.50620000  0.57070000  1.0 0.0546615383
H  H139  1  0.60780000  0.44720000  0.84880000  1.0 0.0627726019
H  H140  1  0.64630000  0.44310000  0.75510000  1.0 0.0627726019
H  H141  1  0.66920000  0.54130000  0.66520000  1.0 0.0789428625
H  H142  1  0.63070000  0.54540000  0.75890000  1.0 0.0888013815
H  H143  1  0.71930000  0.49800000  0.79190000  1.0 0.0712352631
H  H144  1  0.62040000  0.47570000  0.57150000  1.0 0.0627726019
H  H145  1  0.38030000  0.84390000  0.85300000  1.0 0.0888013815
H  H146  1  0.34050000  0.80200000  0.75990000  1.0 0.0789428625
H  H147  1  0.31710000  0.87820000  0.67770000  1.0 0.0789428625
H  H148  1  0.35690000  0.92010000  0.77080000  1.0 0.0789428625
H  H149  1  0.26710000  0.78930000  0.79220000  1.0 0.0789428625
H  H150  1  0.36450000  0.87070000  0.57070000  1.0 0.0546615383
H  H151  1  0.39220000  0.83940000  0.84880000  1.0 0.0627726019
H  H152  1  0.35370000  0.79680000  0.75510000  1.0 0.0627726019
H  H153  1  0.33080000  0.87210000  0.66520000  1.0 0.0789428625
H  H154  1  0.36930000  0.91470000  0.75890000  1.0 0.0888013815
H  H155  1  0.28070000  0.77870000  0.79190000  1.0 0.0712352631
H  H156  1  0.37960000  0.85530000  0.57150000  1.0 0.0627726019
H  H157  1  0.46360000  0.61970000  0.85300000  1.0 0.0888013815
H  H158  1  0.46150000  0.65950000  0.75990000  1.0 0.0789428625
H  H159  1  0.56110000  0.68290000  0.67770000  1.0 0.0789428625
H  H160  1  0.56320000  0.64310000  0.77080000  1.0 0.0789428625
H  H161  1  0.52220000  0.73290000  0.79220000  1.0 0.0789428625
H  H162  1  0.50620000  0.63550000  0.57070000  1.0 0.0546615383
H  H163  1  0.44720000  0.60780000  0.84880000  1.0 0.0627726019
H  H164  1  0.44310000  0.64630000  0.75510000  1.0 0.0627726019
H  H165  1  0.54130000  0.66920000  0.66520000  1.0 0.0789428625
H  H166  1  0.54540000  0.63070000  0.75890000  1.0 0.0888013815
H  H167  1  0.49800000  0.71930000  0.79190000  1.0 0.0712352631
H  H168  1  0.47570000  0.62040000  0.57150000  1.0 0.0627726019
H  H169  1  0.15610000  0.53640000  0.85300000  1.0 0.0888013815
H  H170  1  0.19800000  0.53850000  0.75990000  1.0 0.0789428625
H  H171  1  0.12180000  0.43890000  0.67770000  1.0 0.0789428625
H  H172  1  0.07990000  0.43680000  0.77080000  1.0 0.0789428625
H  H173  1  0.21070000  0.47780000  0.79220000  1.0 0.0789428625
H  H174  1  0.12930000  0.49380000  0.57070000  1.0 0.0546615383
H  H175  1  0.16060000  0.55280000  0.84880000  1.0 0.0627726019
H  H176  1  0.20320000  0.55690000  0.75510000  1.0 0.0627726019
H  H177  1  0.12790000  0.45870000  0.66520000  1.0 0.0789428625
H  H178  1  0.08530000  0.45460000  0.75890000  1.0 0.0888013815
H  H179  1  0.22130000  0.50200000  0.79190000  1.0 0.0712352631
H  H180  1  0.14470000  0.52430000  0.57150000  1.0 0.0627726019
H  H181  1  0.61970000  0.15610000  0.85300000  1.0 0.0888013815
H  H182  1  0.65950000  0.19800000  0.75990000  1.0 0.0789428625
H  H183  1  0.68290000  0.12180000  0.67770000  1.0 0.0789428625
H  H184  1  0.64310000  0.07990000  0.77080000  1.0 0.0789428625
H  H185  1  0.73290000  0.21070000  0.79220000  1.0 0.0789428625
H  H186  1  0.63550000  0.12930000  0.57070000  1.0 0.0546615383
H  H187  1  0.60780000  0.16060000  0.84880000  1.0 0.0627726019
H  H188  1  0.64630000  0.20320000  0.75510000  1.0 0.0627726019
H  H189  1  0.66920000  0.12790000  0.66520000  1.0 0.0789428625
H  H190  1  0.63070000  0.08530000  0.75890000  1.0 0.0888013815
H  H191  1  0.71930000  0.22130000  0.79190000  1.0 0.0712352631
H  H192  1  0.62040000  0.14470000  0.57150000  1.0 0.0627726019
H  H193  1  0.53640000  0.38030000  0.85300000  1.0 0.0888013815
H  H194  1  0.53850000  0.34050000  0.75990000  1.0 0.0789428625
H  H195  1  0.43890000  0.31710000  0.67770000  1.0 0.0789428625
H  H196  1  0.43680000  0.35690000  0.77080000  1.0 0.0789428625
H  H197  1  0.47780000  0.26710000  0.79220000  1.0 0.0789428625
H  H198  1  0.49380000  0.36450000  0.57070000  1.0 0.0546615383
H  H199  1  0.55280000  0.39220000  0.84880000  1.0 0.0627726019
H  H200  1  0.55690000  0.35370000  0.75510000  1.0 0.0627726019
H  H201  1  0.45870000  0.33080000  0.66520000  1.0 0.0789428625
H  H202  1  0.45460000  0.36930000  0.75890000  1.0 0.0888013815
H  H203  1  0.50200000  0.28070000  0.79190000  1.0 0.0712352631
H  H204  1  0.52430000  0.37960000  0.57150000  1.0 0.0627726019
H  H205  1  0.84390000  0.46360000  0.85300000  1.0 0.0888013815
H  H206  1  0.80200000  0.46150000  0.75990000  1.0 0.0789428625
H  H207  1  0.87820000  0.56110000  0.67770000  1.0 0.0789428625
H  H208  1  0.92010000  0.56320000  0.77080000  1.0 0.0789428625
H  H209  1  0.78930000  0.52220000  0.79220000  1.0 0.0789428625
H  H210  1  0.87070000  0.50620000  0.57070000  1.0 0.0546615383
H  H211  1  0.83940000  0.44720000  0.84880000  1.0 0.0627726019
H  H212  1  0.79680000  0.44310000  0.75510000  1.0 0.0627726019
H  H213  1  0.87210000  0.54130000  0.66520000  1.0 0.0789428625
H  H214  1  0.91470000  0.54540000  0.75890000  1.0 0.0888013815
H  H215  1  0.77870000  0.49800000  0.79190000  1.0 0.0712352631
H  H216  1  0.85530000  0.47570000  0.57150000  1.0 0.0627726019
H  H217  1  0.53640000  0.15610000  0.14700000  1.0 0.0888013815
H  H218  1  0.53850000  0.19800000  0.24010000  1.0 0.0789428625
H  H219  1  0.43890000  0.12180000  0.32230000  1.0 0.0789428625
H  H220  1  0.43680000  0.07990000  0.22920000  1.0 0.0789428625
H  H221  1  0.47780000  0.21070000  0.20780000  1.0 0.0789428625
H  H222  1  0.49380000  0.12930000  0.42930000  1.0 0.0546615383
H  H223  1  0.55280000  0.16060000  0.15120000  1.0 0.0627726019
H  H224  1  0.55690000  0.20320000  0.24490000  1.0 0.0627726019
H  H225  1  0.45870000  0.12790000  0.33480000  1.0 0.0789428625
H  H226  1  0.45460000  0.08530000  0.24110000  1.0 0.0888013815
H  H227  1  0.50200000  0.22130000  0.20810000  1.0 0.0712352631
H  H228  1  0.52430000  0.14470000  0.42850000  1.0 0.0627726019
H  H229  1  0.84390000  0.38030000  0.14700000  1.0 0.0888013815
H  H230  1  0.80200000  0.34050000  0.24010000  1.0 0.0789428625
H  H231  1  0.87820000  0.31710000  0.32230000  1.0 0.0789428625
H  H232  1  0.92010000  0.35690000  0.22920000  1.0 0.0789428625
H  H233  1  0.78930000  0.26710000  0.20780000  1.0 0.0789428625
H  H234  1  0.87070000  0.36450000  0.42930000  1.0 0.0546615383
H  H235  1  0.83940000  0.39220000  0.15120000  1.0 0.0627726019
H  H236  1  0.79680000  0.35370000  0.24490000  1.0 0.0627726019
H  H237  1  0.87210000  0.33080000  0.33480000  1.0 0.0789428625
H  H238  1  0.91470000  0.36930000  0.24110000  1.0 0.0888013815
H  H239  1  0.77870000  0.28070000  0.20810000  1.0 0.0712352631
H  H240  1  0.85530000  0.37960000  0.42850000  1.0 0.0627726019
H  H241  1  0.61970000  0.46360000  0.14700000  1.0 0.0888013815
H  H242  1  0.65950000  0.46150000  0.24010000  1.0 0.0789428625
H  H243  1  0.68290000  0.56110000  0.32230000  1.0 0.0789428625
H  H244  1  0.64310000  0.56320000  0.22920000  1.0 0.0789428625
H  H245  1  0.73290000  0.52220000  0.20780000  1.0 0.0789428625
H  H246  1  0.63550000  0.50620000  0.42930000  1.0 0.0546615383
H  H247  1  0.60780000  0.44720000  0.15120000  1.0 0.0627726019
H  H248  1  0.64630000  0.44310000  0.24490000  1.0 0.0627726019
H  H249  1  0.66920000  0.54130000  0.33480000  1.0 0.0789428625
H  H250  1  0.63070000  0.54540000  0.24110000  1.0 0.0888013815
H  H251  1  0.71930000  0.49800000  0.20810000  1.0 0.0712352631
H  H252  1  0.62040000  0.47570000  0.42850000  1.0 0.0627726019
H  H253  1  0.46360000  0.84390000  0.14700000  1.0 0.0888013815
H  H254  1  0.46150000  0.80200000  0.24010000  1.0 0.0789428625
H  H255  1  0.56110000  0.87820000  0.32230000  1.0 0.0789428625
H  H256  1  0.56320000  0.92010000  0.22920000  1.0 0.0789428625
H  H257  1  0.52220000  0.78930000  0.20780000  1.0 0.0789428625
H  H258  1  0.50620000  0.87070000  0.42930000  1.0 0.0546615383
H  H259  1  0.44720000  0.83940000  0.15120000  1.0 0.0627726019
H  H260  1  0.44310000  0.79680000  0.24490000  1.0 0.0627726019
H  H261  1  0.54130000  0.87210000  0.33480000  1.0 0.0789428625
H  H262  1  0.54540000  0.91470000  0.24110000  1.0 0.0888013815
H  H263  1  0.49800000  0.77870000  0.20810000  1.0 0.0712352631
H  H264  1  0.47570000  0.85530000  0.42850000  1.0 0.0627726019
H  H265  1  0.15610000  0.61970000  0.14700000  1.0 0.0888013815
H  H266  1  0.19800000  0.65950000  0.24010000  1.0 0.0789428625
H  H267  1  0.12180000  0.68290000  0.32230000  1.0 0.0789428625
H  H268  1  0.07990000  0.64310000  0.22920000  1.0 0.0789428625
H  H269  1  0.21070000  0.73290000  0.20780000  1.0 0.0789428625
H  H270  1  0.12930000  0.63550000  0.42930000  1.0 0.0546615383
H  H271  1  0.16060000  0.60780000  0.15120000  1.0 0.0627726019
H  H272  1  0.20320000  0.64630000  0.24490000  1.0 0.0627726019
H  H273  1  0.12790000  0.66920000  0.33480000  1.0 0.0789428625
H  H274  1  0.08530000  0.63070000  0.24110000  1.0 0.0888013815
H  H275  1  0.22130000  0.71930000  0.20810000  1.0 0.0712352631
H  H276  1  0.14470000  0.62040000  0.42850000  1.0 0.0627726019
H  H277  1  0.38030000  0.53640000  0.14700000  1.0 0.0888013815
H  H278  1  0.34050000  0.53850000  0.24010000  1.0 0.0789428625
H  H279  1  0.31710000  0.43890000  0.32230000  1.0 0.0789428625
H  H280  1  0.35690000  0.43680000  0.22920000  1.0 0.0789428625
H  H281  1  0.26710000  0.47780000  0.20780000  1.0 0.0789428625
H  H282  1  0.36450000  0.49380000  0.42930000  1.0 0.0546615383
H  H283  1  0.39220000  0.55280000  0.15120000  1.0 0.0627726019
H  H284  1  0.35370000  0.55690000  0.24490000  1.0 0.0627726019
H  H285  1  0.33080000  0.45870000  0.33480000  1.0 0.0789428625
H  H286  1  0.36930000  0.45460000  0.24110000  1.0 0.0888013815
H  H287  1  0.28070000  0.50200000  0.20810000  1.0 0.0712352631
H  H288  1  0.37960000  0.52430000  0.42850000  1.0 0.0627726019
C  C1  1  0.59660000  0.09160000  0.12520000  1.0 0.3111730874
C  C2  1  0.62760000  0.11400000  0.17930000  1.0 0.0175834542
C  C3  1  0.63250000  0.14910000  0.18260000  1.0 -0.0202149858
C  C4  1  0.65620000  0.17410000  0.23790000  1.0 -0.009072808
C  C5  1  0.67490000  0.16380000  0.29000000  1.0 0.0326033594
C  C6  1  0.67010000  0.12880000  0.28670000  1.0 -0.107018868
C  C7  1  0.64640000  0.10390000  0.23140000  1.0 -0.081026091
C  C8  1  0.74370000  0.22600000  0.25200000  1.0 -0.081026091
C  C9  1  0.72860000  0.21860000  0.33000000  1.0 0.0712352631
C  C10  1  0.69720000  0.18770000  0.35800000  1.0 -0.009072808
C  C11  1  0.68960000  0.17650000  0.43500000  1.0 0.0326033594
C  C12  1  0.65490000  0.14620000  0.46200000  1.0 -0.0548495193
C  C13  1  0.61560000  0.11890000  0.18730000  1.0 0.0175834542
C  C14  1  0.62020000  0.15390000  0.18840000  1.0 -0.0982517083
C  C15  1  0.64310000  0.17930000  0.24410000  1.0 -0.1311337733
C  C16  1  0.66140000  0.16960000  0.29860000  1.0 0.0394667503
C  C17  1  0.65670000  0.13450000  0.29750000  1.0 -0.0202149858
C  C18  1  0.63390000  0.10930000  0.24180000  1.0 -0.0337278118
C  C19  1  0.73080000  0.23640000  0.25300000  1.0 -0.0893291224
C  C20  1  0.71780000  0.22960000  0.33000000  1.0 0.0627726019
C  C21  1  0.68630000  0.19910000  0.36000000  1.0 -0.0202149858
C  C22  1  0.67770000  0.18890000  0.43600000  1.0 0.0888013815
C  C23  1  0.64030000  0.16010000  0.46200000  1.0 -0.0982517083
C  C24  1  0.49500000  0.40340000  0.12520000  1.0 0.3111730874
C  C25  1  0.48640000  0.37240000  0.17930000  1.0 0.0175834542
C  C26  1  0.51660000  0.36750000  0.18260000  1.0 -0.0202149858
C  C27  1  0.51790000  0.34380000  0.23790000  1.0 -0.009072808
C  C28  1  0.48890000  0.32510000  0.29000000  1.0 0.0326033594
C  C29  1  0.45870000  0.32990000  0.28670000  1.0 -0.107018868
C  C30  1  0.45750000  0.35360000  0.23140000  1.0 -0.081026091
C  C31  1  0.48230000  0.25630000  0.25200000  1.0 -0.081026091
C  C32  1  0.49000000  0.27140000  0.33000000  1.0 0.0712352631
C  C33  1  0.49050000  0.30280000  0.35800000  1.0 -0.009072808
C  C34  1  0.48690000  0.31040000  0.43500000  1.0 0.0326033594
C  C35  1  0.49130000  0.34510000  0.46200000  1.0 -0.0559615914
C  C36  1  0.50330000  0.38440000  0.18730000  1.0 0.0175834542
C  C37  1  0.53370000  0.37980000  0.18840000  1.0 -0.0982517083
C  C38  1  0.53620000  0.35690000  0.24410000  1.0 -0.1311337733
C  C39  1  0.50820000  0.33860000  0.29860000  1.0 0.0394667503
C  C40  1  0.47780000  0.34330000  0.29750000  1.0 -0.0202149858
C  C41  1  0.47540000  0.36610000  0.24180000  1.0 -0.0337278118
C  C42  1  0.50560000  0.26920000  0.25300000  1.0 -0.0893291224
C  C43  1  0.51180000  0.28220000  0.33000000  1.0 0.0627726019
C  C44  1  0.51280000  0.31370000  0.36000000  1.0 -0.0202149858
C  C45  1  0.51120000  0.32230000  0.43600000  1.0 0.0888013815
C  C46  1  0.51980000  0.35970000  0.46200000  1.0 -0.0982517083
C  C47  1  0.90840000  0.50500000  0.12520000  1.0 0.3111730874
C  C48  1  0.88600000  0.51360000  0.17930000  1.0 0.0175834542
C  C49  1  0.85090000  0.48340000  0.18260000  1.0 -0.0202149858
C  C50  1  0.82590000  0.48210000  0.23790000  1.0 -0.0202149858
C  C51  1  0.83620000  0.51110000  0.29000000  1.0 0.0326033594
C  C52  1  0.87120000  0.54130000  0.28670000  1.0 -0.107018868
C  C53  1  0.89610000  0.54250000  0.23140000  1.0 -0.081026091
C  C54  1  0.77400000  0.51770000  0.25200000  1.0 -0.081026091
C  C55  1  0.78140000  0.51000000  0.33000000  1.0 0.0712352631
C  C56  1  0.81230000  0.50950000  0.35800000  1.0 -0.009072808
C  C57  1  0.82350000  0.51310000  0.43500000  1.0 0.0326033594
C  C58  1  0.85380000  0.50870000  0.46200000  1.0 -0.0548495193
C  C59  1  0.88110000  0.49670000  0.18730000  1.0 0.0175834542
C  C60  1  0.84610000  0.46630000  0.18840000  1.0 -0.0982517083
C  C61  1  0.82070000  0.46380000  0.24410000  1.0 -0.1311337733
C  C62  1  0.83040000  0.49180000  0.29860000  1.0 0.0394667503
C  C63  1  0.86550000  0.52220000  0.29750000  1.0 -0.0202149858
C  C64  1  0.89070000  0.52460000  0.24180000  1.0 -0.0337278118
C  C65  1  0.76360000  0.49440000  0.25300000  1.0 -0.0893291224
C  C66  1  0.77040000  0.48820000  0.33000000  1.0 0.0627726019
C  C67  1  0.80090000  0.48720000  0.36000000  1.0 -0.0202149858
C  C68  1  0.81110000  0.48880000  0.43600000  1.0 0.0888013815
C  C69  1  0.83990000  0.48020000  0.46200000  1.0 -0.0982517083
C  C70  1  0.40340000  0.90840000  0.12520000  1.0 0.3111730874
C  C71  1  0.37240000  0.88600000  0.17930000  1.0 0.0175834542
C  C72  1  0.36750000  0.85090000  0.18260000  1.0 -0.0202149858
C  C73  1  0.34380000  0.82590000  0.23790000  1.0 -0.0202149858
C  C74  1  0.32510000  0.83620000  0.29000000  1.0 0.0326033594
C  C75  1  0.32990000  0.87120000  0.28670000  1.0 -0.107018868
C  C76  1  0.35360000  0.89610000  0.23140000  1.0 -0.081026091
C  C77  1  0.25630000  0.77400000  0.25200000  1.0 -0.081026091
C  C78  1  0.27140000  0.78140000  0.33000000  1.0 0.0712352631
C  C79  1  0.30280000  0.81230000  0.35800000  1.0 -0.009072808
C  C80  1  0.31040000  0.82350000  0.43500000  1.0 0.0326033594
C  C81  1  0.34510000  0.85380000  0.46200000  1.0 -0.0548495193
C  C82  1  0.38440000  0.88110000  0.18730000  1.0 0.0175834542
C  C83  1  0.37980000  0.84610000  0.18840000  1.0 -0.0982517083
C  C84  1  0.35690000  0.82070000  0.24410000  1.0 -0.1311337733
C  C85  1  0.33860000  0.83040000  0.29860000  1.0 0.0394667503
C  C86  1  0.34330000  0.86550000  0.29750000  1.0 -0.0202149858
C  C87  1  0.36610000  0.89070000  0.24180000  1.0 -0.0337278118
C  C88  1  0.26920000  0.76360000  0.25300000  1.0 -0.0893291224
C  C89  1  0.28220000  0.77040000  0.33000000  1.0 0.0627726019
C  C90  1  0.31370000  0.80090000  0.36000000  1.0 -0.0202149858
C  C91  1  0.32230000  0.81110000  0.43600000  1.0 0.0888013815
C  C92  1  0.35970000  0.83990000  0.46200000  1.0 -0.0982517083
C  C93  1  0.50500000  0.59660000  0.12520000  1.0 0.3111730874
C  C94  1  0.51360000  0.62760000  0.17930000  1.0 0.0175834542
C  C95  1  0.48340000  0.63250000  0.18260000  1.0 -0.0202149858
C  C96  1  0.48210000  0.65620000  0.23790000  1.0 -0.0202149858
C  C97  1  0.51110000  0.67490000  0.29000000  1.0 0.0326033594
C  C98  1  0.54130000  0.67010000  0.28670000  1.0 -0.107018868
C  C99  1  0.54250000  0.64640000  0.23140000  1.0 -0.081026091
C  C100  1  0.51770000  0.74370000  0.25200000  1.0 -0.081026091
C  C101  1  0.51000000  0.72860000  0.33000000  1.0 0.0712352631
C  C102  1  0.50950000  0.69720000  0.35800000  1.0 -0.009072808
C  C103  1  0.51310000  0.68960000  0.43500000  1.0 0.0326033594
C  C104  1  0.50870000  0.65490000  0.46200000  1.0 -0.0559615914
C  C105  1  0.49670000  0.61560000  0.18730000  1.0 0.0175834542
C  C106  1  0.46630000  0.62020000  0.18840000  1.0 -0.0982517083
C  C107  1  0.46380000  0.64310000  0.24410000  1.0 -0.1311337733
C  C108  1  0.49180000  0.66140000  0.29860000  1.0 0.0394667503
C  C109  1  0.52220000  0.65670000  0.29750000  1.0 -0.009072808
C  C110  1  0.52460000  0.63390000  0.24180000  1.0 -0.0337278118
C  C111  1  0.49440000  0.73080000  0.25300000  1.0 -0.0893291224
C  C112  1  0.48820000  0.71780000  0.33000000  1.0 0.0627726019
C  C113  1  0.48720000  0.68630000  0.36000000  1.0 -0.0202149858
C  C114  1  0.48880000  0.67770000  0.43600000  1.0 0.0888013815
C  C115  1  0.48020000  0.64030000  0.46200000  1.0 -0.0982517083
C  C116  1  0.09160000  0.49500000  0.12520000  1.0 0.3111730874
C  C117  1  0.11400000  0.48640000  0.17930000  1.0 0.0175834542
C  C118  1  0.14910000  0.51660000  0.18260000  1.0 -0.0202149858
C  C119  1  0.17410000  0.51790000  0.23790000  1.0 -0.0202149858
C  C120  1  0.16380000  0.48890000  0.29000000  1.0 0.0326033594
C  C121  1  0.12880000  0.45870000  0.28670000  1.0 -0.107018868
C  C122  1  0.10390000  0.45750000  0.23140000  1.0 -0.081026091
C  C123  1  0.22600000  0.48230000  0.25200000  1.0 -0.081026091
C  C124  1  0.21860000  0.49000000  0.33000000  1.0 0.0712352631
C  C125  1  0.18770000  0.49050000  0.35800000  1.0 -0.009072808
C  C126  1  0.17650000  0.48690000  0.43500000  1.0 0.0326033594
C  C127  1  0.14620000  0.49130000  0.46200000  1.0 -0.0559615914
C  C128  1  0.11890000  0.50330000  0.18730000  1.0 0.0175834542
C  C129  1  0.15390000  0.53370000  0.18840000  1.0 -0.0982517083
C  C130  1  0.17930000  0.53620000  0.24410000  1.0 -0.1311337733
C  C131  1  0.16960000  0.50820000  0.29860000  1.0 0.0394667503
C  C132  1  0.13450000  0.47780000  0.29750000  1.0 -0.0202149858
C  C133  1  0.10930000  0.47540000  0.24180000  1.0 -0.0337278118
C  C134  1  0.23640000  0.50560000  0.25300000  1.0 -0.0893291224
C  C135  1  0.22960000  0.51180000  0.33000000  1.0 0.0627726019
C  C136  1  0.19910000  0.51280000  0.36000000  1.0 -0.0202149858
C  C137  1  0.18890000  0.51120000  0.43600000  1.0 0.0888013815
C  C138  1  0.16010000  0.51980000  0.46200000  1.0 -0.0982517083
C  C139  1  0.50500000  0.90840000  0.87480000  1.0 0.3111730874
C  C140  1  0.51360000  0.88600000  0.82070000  1.0 0.0175834542
C  C141  1  0.48340000  0.85090000  0.81740000  1.0 -0.0202149858
C  C142  1  0.48210000  0.82590000  0.76210000  1.0 -0.0202149858
C  C143  1  0.51110000  0.83620000  0.71000000  1.0 0.0326033594
C  C144  1  0.54130000  0.87120000  0.71330000  1.0 -0.107018868
C  C145  1  0.54250000  0.89610000  0.76860000  1.0 -0.081026091
C  C146  1  0.51770000  0.77400000  0.74800000  1.0 -0.081026091
C  C147  1  0.51000000  0.78140000  0.67000000  1.0 0.0712352631
C  C148  1  0.50950000  0.81230000  0.64200000  1.0 -0.009072808
C  C149  1  0.51310000  0.82350000  0.56500000  1.0 0.0326033594
C  C150  1  0.50870000  0.85380000  0.53800000  1.0 -0.0548495193
C  C151  1  0.49670000  0.88110000  0.81270000  1.0 0.0175834542
C  C152  1  0.46630000  0.84610000  0.81160000  1.0 -0.0982517083
C  C153  1  0.46380000  0.82070000  0.75590000  1.0 -0.1311337733
C  C154  1  0.49180000  0.83040000  0.70140000  1.0 0.0394667503
C  C155  1  0.52220000  0.86550000  0.70250000  1.0 -0.0202149858
C  C156  1  0.52460000  0.89070000  0.75820000  1.0 -0.0337278118
C  C157  1  0.49440000  0.76360000  0.74700000  1.0 -0.0893291224
C  C158  1  0.48820000  0.77040000  0.67000000  1.0 0.0627726019
C  C159  1  0.48720000  0.80090000  0.64000000  1.0 -0.0202149858
C  C160  1  0.48880000  0.81110000  0.56400000  1.0 0.0888013815
C  C161  1  0.48020000  0.83990000  0.53800000  1.0 -0.0982517083
C  C162  1  0.09160000  0.59660000  0.87480000  1.0 0.3111730874
C  C163  1  0.11400000  0.62760000  0.82070000  1.0 0.0175834542
C  C164  1  0.14910000  0.63250000  0.81740000  1.0 -0.0202149858
C  C165  1  0.17410000  0.65620000  0.76210000  1.0 -0.0202149858
C  C166  1  0.16380000  0.67490000  0.71000000  1.0 0.0326033594
C  C167  1  0.12880000  0.67010000  0.71330000  1.0 -0.107018868
C  C168  1  0.10390000  0.64640000  0.76860000  1.0 -0.081026091
C  C169  1  0.22600000  0.74370000  0.74800000  1.0 -0.081026091
C  C170  1  0.21860000  0.72860000  0.67000000  1.0 0.0712352631
C  C171  1  0.18770000  0.69720000  0.64200000  1.0 -0.009072808
C  C172  1  0.17650000  0.68960000  0.56500000  1.0 0.0326033594
C  C173  1  0.14620000  0.65490000  0.53800000  1.0 -0.0559615914
C  C174  1  0.11890000  0.61560000  0.81270000  1.0 0.0175834542
C  C175  1  0.15390000  0.62020000  0.81160000  1.0 -0.0982517083
C  C176  1  0.17930000  0.64310000  0.75590000  1.0 -0.1311337733
C  C177  1  0.16960000  0.66140000  0.70140000  1.0 0.0394667503
C  C178  1  0.13450000  0.65670000  0.70250000  1.0 -0.0202149858
C  C179  1  0.10930000  0.63390000  0.75820000  1.0 -0.0337278118
C  C180  1  0.23640000  0.73080000  0.74700000  1.0 -0.0893291224
C  C181  1  0.22960000  0.71780000  0.67000000  1.0 0.0627726019
C  C182  1  0.19910000  0.68630000  0.64000000  1.0 -0.0202149858
C  C183  1  0.18890000  0.67770000  0.56400000  1.0 0.0888013815
C  C184  1  0.16010000  0.64030000  0.53800000  1.0 -0.0982517083
C  C185  1  0.40340000  0.49500000  0.87480000  1.0 0.3111730874
C  C186  1  0.37240000  0.48640000  0.82070000  1.0 0.0175834542
C  C187  1  0.36750000  0.51660000  0.81740000  1.0 -0.0202149858
C  C188  1  0.34380000  0.51790000  0.76210000  1.0 -0.0202149858
C  C189  1  0.32510000  0.48890000  0.71000000  1.0 0.0326033594
C  C190  1  0.32990000  0.45870000  0.71330000  1.0 -0.107018868
C  C191  1  0.35360000  0.45750000  0.76860000  1.0 -0.081026091
C  C192  1  0.25630000  0.48230000  0.74800000  1.0 -0.081026091
C  C193  1  0.27140000  0.49000000  0.67000000  1.0 0.0712352631
C  C194  1  0.30280000  0.49050000  0.64200000  1.0 -0.009072808
C  C195  1  0.31040000  0.48690000  0.56500000  1.0 0.0326033594
C  C196  1  0.34510000  0.49130000  0.53800000  1.0 -0.0559615914
C  C197  1  0.38440000  0.50330000  0.81270000  1.0 0.0175834542
C  C198  1  0.37980000  0.53370000  0.81160000  1.0 -0.0982517083
C  C199  1  0.35690000  0.53620000  0.75590000  1.0 -0.1311337733
C  C200  1  0.33860000  0.50820000  0.70140000  1.0 0.0394667503
C  C201  1  0.34330000  0.47780000  0.70250000  1.0 -0.0202149858
C  C202  1  0.36610000  0.47540000  0.75820000  1.0 -0.0337278118
C  C203  1  0.26920000  0.50560000  0.74700000  1.0 -0.0893291224
C  C204  1  0.28220000  0.51180000  0.67000000  1.0 0.0627726019
C  C205  1  0.31370000  0.51280000  0.64000000  1.0 -0.0202149858
C  C206  1  0.32230000  0.51120000  0.56400000  1.0 0.0888013815
C  C207  1  0.35970000  0.51980000  0.53800000  1.0 -0.0982517083
C  C208  1  0.49500000  0.09160000  0.87480000  1.0 0.3111730874
C  C209  1  0.48640000  0.11400000  0.82070000  1.0 0.0175834542
C  C210  1  0.51660000  0.14910000  0.81740000  1.0 -0.0202149858
C  C211  1  0.51790000  0.17410000  0.76210000  1.0 -0.0202149858
C  C212  1  0.48890000  0.16380000  0.71000000  1.0 0.0326033594
C  C213  1  0.45870000  0.12880000  0.71330000  1.0 -0.107018868
C  C214  1  0.45750000  0.10390000  0.76860000  1.0 -0.081026091
C  C215  1  0.48230000  0.22600000  0.74800000  1.0 -0.081026091
C  C216  1  0.49000000  0.21860000  0.67000000  1.0 0.0712352631
C  C217  1  0.49050000  0.18770000  0.64200000  1.0 -0.009072808
C  C218  1  0.48690000  0.17650000  0.56500000  1.0 0.0326033594
C  C219  1  0.49130000  0.14620000  0.53800000  1.0 -0.0559615914
C  C220  1  0.50330000  0.11890000  0.81270000  1.0 0.0175834542
C  C221  1  0.53370000  0.15390000  0.81160000  1.0 -0.0982517083
C  C222  1  0.53620000  0.17930000  0.75590000  1.0 -0.1311337733
C  C223  1  0.50820000  0.16960000  0.70140000  1.0 0.0394667503
C  C224  1  0.47780000  0.13450000  0.70250000  1.0 -0.009072808
C  C225  1  0.47540000  0.10930000  0.75820000  1.0 -0.0337278118
C  C226  1  0.50560000  0.23640000  0.74700000  1.0 -0.0893291224
C  C227  1  0.51180000  0.22960000  0.67000000  1.0 0.0627726019
C  C228  1  0.51280000  0.19910000  0.64000000  1.0 -0.0202149858
C  C229  1  0.51120000  0.18890000  0.56400000  1.0 0.0888013815
C  C230  1  0.51980000  0.16010000  0.53800000  1.0 -0.0982517083
C  C231  1  0.90840000  0.40340000  0.87480000  1.0 0.3111730874
C  C232  1  0.88600000  0.37240000  0.82070000  1.0 0.0175834542
C  C233  1  0.85090000  0.36750000  0.81740000  1.0 -0.0202149858
C  C234  1  0.82590000  0.34380000  0.76210000  1.0 -0.009072808
C  C235  1  0.83620000  0.32510000  0.71000000  1.0 0.0326033594
C  C236  1  0.87120000  0.32990000  0.71330000  1.0 -0.107018868
C  C237  1  0.89610000  0.35360000  0.76860000  1.0 -0.081026091
C  C238  1  0.77400000  0.25630000  0.74800000  1.0 -0.081026091
C  C239  1  0.78140000  0.27140000  0.67000000  1.0 0.0712352631
C  C240  1  0.81230000  0.30280000  0.64200000  1.0 -0.009072808
C  C241  1  0.82350000  0.31040000  0.56500000  1.0 0.0326033594
C  C242  1  0.85380000  0.34510000  0.53800000  1.0 -0.0559615914
C  C243  1  0.88110000  0.38440000  0.81270000  1.0 0.0175834542
C  C244  1  0.84610000  0.37980000  0.81160000  1.0 -0.0982517083
C  C245  1  0.82070000  0.35690000  0.75590000  1.0 -0.1311337733
C  C246  1  0.83040000  0.33860000  0.70140000  1.0 0.0394667503
C  C247  1  0.86550000  0.34330000  0.70250000  1.0 -0.0202149858
C  C248  1  0.89070000  0.36610000  0.75820000  1.0 -0.0337278118
C  C249  1  0.76360000  0.26920000  0.74700000  1.0 -0.0893291224
C  C250  1  0.77040000  0.28220000  0.67000000  1.0 0.0627726019
C  C251  1  0.80090000  0.31370000  0.64000000  1.0 -0.0202149858
C  C252  1  0.81110000  0.32230000  0.56400000  1.0 0.0888013815
C  C253  1  0.83990000  0.35970000  0.53800000  1.0 -0.0982517083
C  C254  1  0.59660000  0.50500000  0.87480000  1.0 0.3111730874
C  C255  1  0.62760000  0.51360000  0.82070000  1.0 0.0175834542
C  C256  1  0.63250000  0.48340000  0.81740000  1.0 -0.0202149858
C  C257  1  0.65620000  0.48210000  0.76210000  1.0 -0.0202149858
C  C258  1  0.67490000  0.51110000  0.71000000  1.0 0.0326033594
C  C259  1  0.67010000  0.54130000  0.71330000  1.0 -0.107018868
C  C260  1  0.64640000  0.54250000  0.76860000  1.0 -0.081026091
C  C261  1  0.74370000  0.51770000  0.74800000  1.0 -0.081026091
C  C262  1  0.72860000  0.51000000  0.67000000  1.0 0.0712352631
C  C263  1  0.69720000  0.50950000  0.64200000  1.0 -0.009072808
C  C264  1  0.68960000  0.51310000  0.56500000  1.0 0.0326033594
C  C265  1  0.65490000  0.50870000  0.53800000  1.0 -0.0559615914
C  C266  1  0.61560000  0.49670000  0.81270000  1.0 0.0175834542
C  C267  1  0.62020000  0.46630000  0.81160000  1.0 -0.0982517083
C  C268  1  0.64310000  0.46380000  0.75590000  1.0 -0.1311337733
C  C269  1  0.66140000  0.49180000  0.70140000  1.0 0.0394667503
C  C270  1  0.65670000  0.52220000  0.70250000  1.0 -0.009072808
C  C271  1  0.63390000  0.52460000  0.75820000  1.0 -0.0337278118
C  C272  1  0.73080000  0.49440000  0.74700000  1.0 -0.0893291224
C  C273  1  0.71780000  0.48820000  0.67000000  1.0 0.0627726019
C  C274  1  0.68630000  0.48720000  0.64000000  1.0 -0.0202149858
C  C275  1  0.67770000  0.48880000  0.56400000  1.0 0.0888013815
C  C276  1  0.64030000  0.48020000  0.53800000  1.0 -0.0982517083
C  C277  1  0.40340000  0.90840000  0.87480000  1.0 0.3111730874
C  C278  1  0.37240000  0.88600000  0.82070000  1.0 0.0175834542
C  C279  1  0.36750000  0.85090000  0.81740000  1.0 -0.0202149858
C  C280  1  0.34380000  0.82590000  0.76210000  1.0 -0.0202149858
C  C281  1  0.32510000  0.83620000  0.71000000  1.0 0.0326033594
C  C282  1  0.32990000  0.87120000  0.71330000  1.0 -0.107018868
C  C283  1  0.35360000  0.89610000  0.76860000  1.0 -0.081026091
C  C284  1  0.25630000  0.77400000  0.74800000  1.0 -0.081026091
C  C285  1  0.27140000  0.78140000  0.67000000  1.0 0.0712352631
C  C286  1  0.30280000  0.81230000  0.64200000  1.0 -0.009072808
C  C287  1  0.31040000  0.82350000  0.56500000  1.0 0.0326033594
C  C288  1  0.34510000  0.85380000  0.53800000  1.0 -0.0548495193
C  C289  1  0.38440000  0.88110000  0.81270000  1.0 0.0175834542
C  C290  1  0.37980000  0.84610000  0.81160000  1.0 -0.0982517083
C  C291  1  0.35690000  0.82070000  0.75590000  1.0 -0.1311337733
C  C292  1  0.33860000  0.83040000  0.70140000  1.0 0.0394667503
C  C293  1  0.34330000  0.86550000  0.70250000  1.0 -0.0202149858
C  C294  1  0.36610000  0.89070000  0.75820000  1.0 -0.0337278118
C  C295  1  0.26920000  0.76360000  0.74700000  1.0 -0.0893291224
C  C296  1  0.28220000  0.77040000  0.67000000  1.0 0.0627726019
C  C297  1  0.31370000  0.80090000  0.64000000  1.0 -0.0202149858
C  C298  1  0.32230000  0.81110000  0.56400000  1.0 0.0888013815
C  C299  1  0.35970000  0.83990000  0.53800000  1.0 -0.0982517083
C  C300  1  0.50500000  0.59660000  0.87480000  1.0 0.3111730874
C  C301  1  0.51360000  0.62760000  0.82070000  1.0 0.0175834542
C  C302  1  0.48340000  0.63250000  0.81740000  1.0 -0.0202149858
C  C303  1  0.48210000  0.65620000  0.76210000  1.0 -0.0202149858
C  C304  1  0.51110000  0.67490000  0.71000000  1.0 0.0326033594
C  C305  1  0.54130000  0.67010000  0.71330000  1.0 -0.107018868
C  C306  1  0.54250000  0.64640000  0.76860000  1.0 -0.081026091
C  C307  1  0.51770000  0.74370000  0.74800000  1.0 -0.081026091
C  C308  1  0.51000000  0.72860000  0.67000000  1.0 0.0712352631
C  C309  1  0.50950000  0.69720000  0.64200000  1.0 -0.009072808
C  C310  1  0.51310000  0.68960000  0.56500000  1.0 0.0326033594
C  C311  1  0.50870000  0.65490000  0.53800000  1.0 -0.0548495193
C  C312  1  0.49670000  0.61560000  0.81270000  1.0 0.0175834542
C  C313  1  0.46630000  0.62020000  0.81160000  1.0 -0.0982517083
C  C314  1  0.46380000  0.64310000  0.75590000  1.0 -0.1311337733
C  C315  1  0.49180000  0.66140000  0.70140000  1.0 0.0394667503
C  C316  1  0.52220000  0.65670000  0.70250000  1.0 -0.009072808
C  C317  1  0.52460000  0.63390000  0.75820000  1.0 -0.0337278118
C  C318  1  0.49440000  0.73080000  0.74700000  1.0 -0.0893291224
C  C319  1  0.48820000  0.71780000  0.67000000  1.0 0.0627726019
C  C320  1  0.48720000  0.68630000  0.64000000  1.0 -0.0202149858
C  C321  1  0.48880000  0.67770000  0.56400000  1.0 0.0888013815
C  C322  1  0.48020000  0.64030000  0.53800000  1.0 -0.0982517083
C  C323  1  0.09160000  0.49500000  0.87480000  1.0 0.3111730874
C  C324  1  0.11400000  0.48640000  0.82070000  1.0 0.0175834542
C  C325  1  0.14910000  0.51660000  0.81740000  1.0 -0.0202149858
C  C326  1  0.17410000  0.51790000  0.76210000  1.0 -0.0202149858
C  C327  1  0.16380000  0.48890000  0.71000000  1.0 0.0326033594
C  C328  1  0.12880000  0.45870000  0.71330000  1.0 -0.107018868
C  C329  1  0.10390000  0.45750000  0.76860000  1.0 -0.081026091
C  C330  1  0.22600000  0.48230000  0.74800000  1.0 -0.081026091
C  C331  1  0.21860000  0.49000000  0.67000000  1.0 0.0712352631
C  C332  1  0.18770000  0.49050000  0.64200000  1.0 -0.009072808
C  C333  1  0.17650000  0.48690000  0.56500000  1.0 0.0326033594
C  C334  1  0.14620000  0.49130000  0.53800000  1.0 -0.0559615914
C  C335  1  0.11890000  0.50330000  0.81270000  1.0 0.0175834542
C  C336  1  0.15390000  0.53370000  0.81160000  1.0 -0.0982517083
C  C337  1  0.17930000  0.53620000  0.75590000  1.0 -0.1311337733
C  C338  1  0.16960000  0.50820000  0.70140000  1.0 0.0394667503
C  C339  1  0.13450000  0.47780000  0.70250000  1.0 -0.0202149858
C  C340  1  0.10930000  0.47540000  0.75820000  1.0 -0.0337278118
C  C341  1  0.23640000  0.50560000  0.74700000  1.0 -0.0893291224
C  C342  1  0.22960000  0.51180000  0.67000000  1.0 0.0627726019
C  C343  1  0.19910000  0.51280000  0.64000000  1.0 -0.0202149858
C  C344  1  0.18890000  0.51120000  0.56400000  1.0 0.0888013815
C  C345  1  0.16010000  0.51980000  0.53800000  1.0 -0.0982517083
C  C346  1  0.59660000  0.09160000  0.87480000  1.0 0.3111730874
C  C347  1  0.62760000  0.11400000  0.82070000  1.0 0.0175834542
C  C348  1  0.63250000  0.14910000  0.81740000  1.0 -0.0202149858
C  C349  1  0.65620000  0.17410000  0.76210000  1.0 -0.009072808
C  C350  1  0.67490000  0.16380000  0.71000000  1.0 0.0326033594
C  C351  1  0.67010000  0.12880000  0.71330000  1.0 -0.107018868
C  C352  1  0.64640000  0.10390000  0.76860000  1.0 -0.081026091
C  C353  1  0.74370000  0.22600000  0.74800000  1.0 -0.081026091
C  C354  1  0.72860000  0.21860000  0.67000000  1.0 0.0712352631
C  C355  1  0.69720000  0.18770000  0.64200000  1.0 -0.009072808
C  C356  1  0.68960000  0.17650000  0.56500000  1.0 0.0326033594
C  C357  1  0.65490000  0.14620000  0.53800000  1.0 -0.0559615914
C  C358  1  0.61560000  0.11890000  0.81270000  1.0 0.0175834542
C  C359  1  0.62020000  0.15390000  0.81160000  1.0 -0.0982517083
C  C360  1  0.64310000  0.17930000  0.75590000  1.0 -0.1311337733
C  C361  1  0.66140000  0.16960000  0.70140000  1.0 0.0394667503
C  C362  1  0.65670000  0.13450000  0.70250000  1.0 -0.0202149858
C  C363  1  0.63390000  0.10930000  0.75820000  1.0 -0.0337278118
C  C364  1  0.73080000  0.23640000  0.74700000  1.0 -0.0893291224
C  C365  1  0.71780000  0.22960000  0.67000000  1.0 0.0627726019
C  C366  1  0.68630000  0.19910000  0.64000000  1.0 -0.0202149858
C  C367  1  0.67770000  0.18890000  0.56400000  1.0 0.0888013815
C  C368  1  0.64030000  0.16010000  0.53800000  1.0 -0.0982517083
C  C369  1  0.49500000  0.40340000  0.87480000  1.0 0.3111730874
C  C370  1  0.48640000  0.37240000  0.82070000  1.0 0.0175834542
C  C371  1  0.51660000  0.36750000  0.81740000  1.0 -0.0202149858
C  C372  1  0.51790000  0.34380000  0.76210000  1.0 -0.009072808
C  C373  1  0.48890000  0.32510000  0.71000000  1.0 0.0326033594
C  C374  1  0.45870000  0.32990000  0.71330000  1.0 -0.107018868
C  C375  1  0.45750000  0.35360000  0.76860000  1.0 -0.081026091
C  C376  1  0.48230000  0.25630000  0.74800000  1.0 -0.081026091
C  C377  1  0.49000000  0.27140000  0.67000000  1.0 0.0712352631
C  C378  1  0.49050000  0.30280000  0.64200000  1.0 -0.009072808
C  C379  1  0.48690000  0.31040000  0.56500000  1.0 0.0326033594
C  C380  1  0.49130000  0.34510000  0.53800000  1.0 -0.0559615914
C  C381  1  0.50330000  0.38440000  0.81270000  1.0 0.0175834542
C  C382  1  0.53370000  0.37980000  0.81160000  1.0 -0.0982517083
C  C383  1  0.53620000  0.35690000  0.75590000  1.0 -0.1311337733
C  C384  1  0.50820000  0.33860000  0.70140000  1.0 0.0394667503
C  C385  1  0.47780000  0.34330000  0.70250000  1.0 -0.0202149858
C  C386  1  0.47540000  0.36610000  0.75820000  1.0 -0.0337278118
C  C387  1  0.50560000  0.26920000  0.74700000  1.0 -0.0893291224
C  C388  1  0.51180000  0.28220000  0.67000000  1.0 0.0627726019
C  C389  1  0.51280000  0.31370000  0.64000000  1.0 -0.0202149858
C  C390  1  0.51120000  0.32230000  0.56400000  1.0 0.0888013815
C  C391  1  0.51980000  0.35970000  0.53800000  1.0 -0.0982517083
C  C392  1  0.90840000  0.50500000  0.87480000  1.0 0.3111730874
C  C393  1  0.88600000  0.51360000  0.82070000  1.0 0.0175834542
C  C394  1  0.85090000  0.48340000  0.81740000  1.0 -0.0202149858
C  C395  1  0.82590000  0.48210000  0.76210000  1.0 -0.0202149858
C  C396  1  0.83620000  0.51110000  0.71000000  1.0 0.0326033594
C  C397  1  0.87120000  0.54130000  0.71330000  1.0 -0.107018868
C  C398  1  0.89610000  0.54250000  0.76860000  1.0 -0.081026091
C  C399  1  0.77400000  0.51770000  0.74800000  1.0 -0.081026091
C  C400  1  0.78140000  0.51000000  0.67000000  1.0 0.0712352631
C  C401  1  0.81230000  0.50950000  0.64200000  1.0 -0.009072808
C  C402  1  0.82350000  0.51310000  0.56500000  1.0 0.0326033594
C  C403  1  0.85380000  0.50870000  0.53800000  1.0 -0.0548495193
C  C404  1  0.88110000  0.49670000  0.81270000  1.0 0.0175834542
C  C405  1  0.84610000  0.46630000  0.81160000  1.0 -0.0982517083
C  C406  1  0.82070000  0.46380000  0.75590000  1.0 -0.1311337733
C  C407  1  0.83040000  0.49180000  0.70140000  1.0 0.0394667503
C  C408  1  0.86550000  0.52220000  0.70250000  1.0 -0.0202149858
C  C409  1  0.89070000  0.52460000  0.75820000  1.0 -0.0337278118
C  C410  1  0.76360000  0.49440000  0.74700000  1.0 -0.0893291224
C  C411  1  0.77040000  0.48820000  0.67000000  1.0 0.0627726019
C  C412  1  0.80090000  0.48720000  0.64000000  1.0 -0.0202149858
C  C413  1  0.81110000  0.48880000  0.56400000  1.0 0.0888013815
C  C414  1  0.83990000  0.48020000  0.53800000  1.0 -0.0982517083
C  C415  1  0.49500000  0.09160000  0.12520000  1.0 0.3111730874
C  C416  1  0.48640000  0.11400000  0.17930000  1.0 0.0175834542
C  C417  1  0.51660000  0.14910000  0.18260000  1.0 -0.0202149858
C  C418  1  0.51790000  0.17410000  0.23790000  1.0 -0.0202149858
C  C419  1  0.48890000  0.16380000  0.29000000  1.0 0.0326033594
C  C420  1  0.45870000  0.12880000  0.28670000  1.0 -0.107018868
C  C421  1  0.45750000  0.10390000  0.23140000  1.0 -0.081026091
C  C422  1  0.48230000  0.22600000  0.25200000  1.0 -0.081026091
C  C423  1  0.49000000  0.21860000  0.33000000  1.0 0.0712352631
C  C424  1  0.49050000  0.18770000  0.35800000  1.0 -0.009072808
C  C425  1  0.48690000  0.17650000  0.43500000  1.0 0.0326033594
C  C426  1  0.49130000  0.14620000  0.46200000  1.0 -0.0559615914
C  C427  1  0.50330000  0.11890000  0.18730000  1.0 0.0175834542
C  C428  1  0.53370000  0.15390000  0.18840000  1.0 -0.0982517083
C  C429  1  0.53620000  0.17930000  0.24410000  1.0 -0.1311337733
C  C430  1  0.50820000  0.16960000  0.29860000  1.0 0.0394667503
C  C431  1  0.47780000  0.13450000  0.29750000  1.0 -0.009072808
C  C432  1  0.47540000  0.10930000  0.24180000  1.0 -0.0337278118
C  C433  1  0.50560000  0.23640000  0.25300000  1.0 -0.0893291224
C  C434  1  0.51180000  0.22960000  0.33000000  1.0 0.0627726019
C  C435  1  0.51280000  0.19910000  0.36000000  1.0 -0.0202149858
C  C436  1  0.51120000  0.18890000  0.43600000  1.0 0.0888013815
C  C437  1  0.51980000  0.16010000  0.46200000  1.0 -0.0982517083
C  C438  1  0.90840000  0.40340000  0.12520000  1.0 0.3111730874
C  C439  1  0.88600000  0.37240000  0.17930000  1.0 0.0175834542
C  C440  1  0.85090000  0.36750000  0.18260000  1.0 -0.0202149858
C  C441  1  0.82590000  0.34380000  0.23790000  1.0 -0.009072808
C  C442  1  0.83620000  0.32510000  0.29000000  1.0 0.0326033594
C  C443  1  0.87120000  0.32990000  0.28670000  1.0 -0.107018868
C  C444  1  0.89610000  0.35360000  0.23140000  1.0 -0.081026091
C  C445  1  0.77400000  0.25630000  0.25200000  1.0 -0.081026091
C  C446  1  0.78140000  0.27140000  0.33000000  1.0 0.0712352631
C  C447  1  0.81230000  0.30280000  0.35800000  1.0 -0.009072808
C  C448  1  0.82350000  0.31040000  0.43500000  1.0 0.0326033594
C  C449  1  0.85380000  0.34510000  0.46200000  1.0 -0.0559615914
C  C450  1  0.88110000  0.38440000  0.18730000  1.0 0.0175834542
C  C451  1  0.84610000  0.37980000  0.18840000  1.0 -0.0982517083
C  C452  1  0.82070000  0.35690000  0.24410000  1.0 -0.1311337733
C  C453  1  0.83040000  0.33860000  0.29860000  1.0 0.0394667503
C  C454  1  0.86550000  0.34330000  0.29750000  1.0 -0.0202149858
C  C455  1  0.89070000  0.36610000  0.24180000  1.0 -0.0337278118
C  C456  1  0.76360000  0.26920000  0.25300000  1.0 -0.0893291224
C  C457  1  0.77040000  0.28220000  0.33000000  1.0 0.0627726019
C  C458  1  0.80090000  0.31370000  0.36000000  1.0 -0.0202149858
C  C459  1  0.81110000  0.32230000  0.43600000  1.0 0.0888013815
C  C460  1  0.83990000  0.35970000  0.46200000  1.0 -0.0982517083
C  C461  1  0.59660000  0.50500000  0.12520000  1.0 0.3111730874
C  C462  1  0.62760000  0.51360000  0.17930000  1.0 0.0175834542
C  C463  1  0.63250000  0.48340000  0.18260000  1.0 -0.0202149858
C  C464  1  0.65620000  0.48210000  0.23790000  1.0 -0.0202149858
C  C465  1  0.67490000  0.51110000  0.29000000  1.0 0.0326033594
C  C466  1  0.67010000  0.54130000  0.28670000  1.0 -0.107018868
C  C467  1  0.64640000  0.54250000  0.23140000  1.0 -0.081026091
C  C468  1  0.74370000  0.51770000  0.25200000  1.0 -0.081026091
C  C469  1  0.72860000  0.51000000  0.33000000  1.0 0.0712352631
C  C470  1  0.69720000  0.50950000  0.35800000  1.0 -0.009072808
C  C471  1  0.68960000  0.51310000  0.43500000  1.0 0.0326033594
C  C472  1  0.65490000  0.50870000  0.46200000  1.0 -0.0548495193
C  C473  1  0.61560000  0.49670000  0.18730000  1.0 0.0175834542
C  C474  1  0.62020000  0.46630000  0.18840000  1.0 -0.0982517083
C  C475  1  0.64310000  0.46380000  0.24410000  1.0 -0.1311337733
C  C476  1  0.66140000  0.49180000  0.29860000  1.0 0.0394667503
C  C477  1  0.65670000  0.52220000  0.29750000  1.0 -0.009072808
C  C478  1  0.63390000  0.52460000  0.24180000  1.0 -0.0337278118
C  C479  1  0.73080000  0.49440000  0.25300000  1.0 -0.0893291224
C  C480  1  0.71780000  0.48820000  0.33000000  1.0 0.0627726019
C  C481  1  0.68630000  0.48720000  0.36000000  1.0 -0.0202149858
C  C482  1  0.67770000  0.48880000  0.43600000  1.0 0.0888013815
C  C483  1  0.64030000  0.48020000  0.46200000  1.0 -0.0982517083
C  C484  1  0.50500000  0.90840000  0.12520000  1.0 0.3111730874
C  C485  1  0.51360000  0.88600000  0.17930000  1.0 0.0175834542
C  C486  1  0.48340000  0.85090000  0.18260000  1.0 -0.0202149858
C  C487  1  0.48210000  0.82590000  0.23790000  1.0 -0.0202149858
C  C488  1  0.51110000  0.83620000  0.29000000  1.0 0.0326033594
C  C489  1  0.54130000  0.87120000  0.28670000  1.0 -0.107018868
C  C490  1  0.54250000  0.89610000  0.23140000  1.0 -0.081026091
C  C491  1  0.51770000  0.77400000  0.25200000  1.0 -0.081026091
C  C492  1  0.51000000  0.78140000  0.33000000  1.0 0.0712352631
C  C493  1  0.50950000  0.81230000  0.35800000  1.0 -0.009072808
C  C494  1  0.51310000  0.82350000  0.43500000  1.0 0.0326033594
C  C495  1  0.50870000  0.85380000  0.46200000  1.0 -0.0548495193
C  C496  1  0.49670000  0.88110000  0.18730000  1.0 0.0175834542
C  C497  1  0.46630000  0.84610000  0.18840000  1.0 -0.0982517083
C  C498  1  0.46380000  0.82070000  0.24410000  1.0 -0.1311337733
C  C499  1  0.49180000  0.83040000  0.29860000  1.0 0.0394667503
C  C500  1  0.52220000  0.86550000  0.29750000  1.0 -0.0202149858
C  C501  1  0.52460000  0.89070000  0.24180000  1.0 -0.0337278118
C  C502  1  0.49440000  0.76360000  0.25300000  1.0 -0.0893291224
C  C503  1  0.48820000  0.77040000  0.33000000  1.0 0.0627726019
C  C504  1  0.48720000  0.80090000  0.36000000  1.0 -0.0202149858
C  C505  1  0.48880000  0.81110000  0.43600000  1.0 0.0888013815
C  C506  1  0.48020000  0.83990000  0.46200000  1.0 -0.0982517083
C  C507  1  0.09160000  0.59660000  0.12520000  1.0 0.3111730874
C  C508  1  0.11400000  0.62760000  0.17930000  1.0 0.0175834542
C  C509  1  0.14910000  0.63250000  0.18260000  1.0 -0.0202149858
C  C510  1  0.17410000  0.65620000  0.23790000  1.0 -0.0202149858
C  C511  1  0.16380000  0.67490000  0.29000000  1.0 0.0326033594
C  C512  1  0.12880000  0.67010000  0.28670000  1.0 -0.107018868
C  C513  1  0.10390000  0.64640000  0.23140000  1.0 -0.081026091
C  C514  1  0.22600000  0.74370000  0.25200000  1.0 -0.081026091
C  C515  1  0.21860000  0.72860000  0.33000000  1.0 0.0712352631
C  C516  1  0.18770000  0.69720000  0.35800000  1.0 -0.009072808
C  C517  1  0.17650000  0.68960000  0.43500000  1.0 0.0326033594
C  C518  1  0.14620000  0.65490000  0.46200000  1.0 -0.0559615914
C  C519  1  0.11890000  0.61560000  0.18730000  1.0 0.0175834542
C  C520  1  0.15390000  0.62020000  0.18840000  1.0 -0.0982517083
C  C521  1  0.17930000  0.64310000  0.24410000  1.0 -0.1311337733
C  C522  1  0.16960000  0.66140000  0.29860000  1.0 0.0394667503
C  C523  1  0.13450000  0.65670000  0.29750000  1.0 -0.0202149858
C  C524  1  0.10930000  0.63390000  0.24180000  1.0 -0.0337278118
C  C525  1  0.23640000  0.73080000  0.25300000  1.0 -0.0893291224
C  C526  1  0.22960000  0.71780000  0.33000000  1.0 0.0627726019
C  C527  1  0.19910000  0.68630000  0.36000000  1.0 -0.0202149858
C  C528  1  0.18890000  0.67770000  0.43600000  1.0 0.0888013815
C  C529  1  0.16010000  0.64030000  0.46200000  1.0 -0.0982517083
C  C530  1  0.40340000  0.49500000  0.12520000  1.0 0.3111730874
C  C531  1  0.37240000  0.48640000  0.17930000  1.0 0.0175834542
C  C532  1  0.36750000  0.51660000  0.18260000  1.0 -0.0202149858
C  C533  1  0.34380000  0.51790000  0.23790000  1.0 -0.0202149858
C  C534  1  0.32510000  0.48890000  0.29000000  1.0 0.0326033594
C  C535  1  0.32990000  0.45870000  0.28670000  1.0 -0.107018868
C  C536  1  0.35360000  0.45750000  0.23140000  1.0 -0.081026091
C  C537  1  0.25630000  0.48230000  0.25200000  1.0 -0.081026091
C  C538  1  0.27140000  0.49000000  0.33000000  1.0 0.0712352631
C  C539  1  0.30280000  0.49050000  0.35800000  1.0 -0.009072808
C  C540  1  0.31040000  0.48690000  0.43500000  1.0 0.0326033594
C  C541  1  0.34510000  0.49130000  0.46200000  1.0 -0.0559615914
C  C542  1  0.38440000  0.50330000  0.18730000  1.0 0.0175834542
C  C543  1  0.37980000  0.53370000  0.18840000  1.0 -0.0982517083
C  C544  1  0.35690000  0.53620000  0.24410000  1.0 -0.1311337733
C  C545  1  0.33860000  0.50820000  0.29860000  1.0 0.0394667503
C  C546  1  0.34330000  0.47780000  0.29750000  1.0 -0.0202149858
C  C547  1  0.36610000  0.47540000  0.24180000  1.0 -0.0337278118
C  C548  1  0.26920000  0.50560000  0.25300000  1.0 -0.0893291224
C  C549  1  0.28220000  0.51180000  0.33000000  1.0 0.0627726019
C  C550  1  0.31370000  0.51280000  0.36000000  1.0 -0.0202149858
C  C551  1  0.32230000  0.51120000  0.43600000  1.0 0.0888013815
C  C552  1  0.35970000  0.51980000  0.46200000  1.0 -0.0893291224
N  N1  1  0.75440000  0.24560000  0.38100000  1.0 -0.0893291224
N  N2  1  0.74345000  0.25655000  0.37900000  1.0 -0.0982517083
N  N3  1  0.49120000  0.24560000  0.38100000  1.0 -0.0893291224
N  N4  1  0.51310000  0.25655000  0.37900000  1.0 -0.0982517083
N  N5  1  0.75440000  0.50880000  0.38100000  1.0 -0.0893291224
N  N6  1  0.74345000  0.48690000  0.37900000  1.0 -0.0982517083
N  N7  1  0.24560000  0.75440000  0.38100000  1.0 -0.0893291224
N  N8  1  0.25655000  0.74345000  0.37900000  1.0 -0.0982517083
N  N9  1  0.50880000  0.75440000  0.38100000  1.0 -0.0893291224
N  N10  1  0.48690000  0.74345000  0.37900000  1.0 -0.0982517083
N  N11  1  0.24560000  0.49120000  0.38100000  1.0 -0.0893291224
N  N12  1  0.25655000  0.51310000  0.37900000  1.0 -0.0982517083
N  N13  1  0.50880000  0.75440000  0.61900000  1.0 -0.0893291224
N  N14  1  0.48690000  0.74345000  0.62100000  1.0 -0.0982517083
N  N15  1  0.24560000  0.75440000  0.61900000  1.0 -0.0893291224
N  N16  1  0.25655000  0.74345000  0.62100000  1.0 -0.0982517083
N  N17  1  0.24560000  0.49120000  0.61900000  1.0 -0.0893291224
N  N18  1  0.25655000  0.51310000  0.62100000  1.0 -0.0982517083
N  N19  1  0.49120000  0.24560000  0.61900000  1.0 -0.0893291224
N  N20  1  0.51310000  0.25655000  0.62100000  1.0 -0.0982517083
N  N21  1  0.75440000  0.24560000  0.61900000  1.0 -0.0893291224
N  N22  1  0.74345000  0.25655000  0.62100000  1.0 -0.0982517083
N  N23  1  0.75440000  0.50880000  0.61900000  1.0 -0.0893291224
N  N24  1  0.74345000  0.48690000  0.62100000  1.0 -0.0982517083
N  N25  1  0.70770000  0.19720000  0.50000000  1.0 -0.0982517083
N  N26  1  0.69590000  0.20890000  0.50000000  1.0 -0.0982517083
N  N27  1  0.48950000  0.29230000  0.50000000  1.0 -0.0982517083
N  N28  1  0.51300000  0.30410000  0.50000000  1.0 -0.0982517083
N  N29  1  0.80280000  0.51050000  0.50000000  1.0 -0.0982517083
N  N30  1  0.79110000  0.48700000  0.50000000  1.0 -0.0982517083
N  N31  1  0.29230000  0.80280000  0.50000000  1.0 -0.0982517083
N  N32  1  0.30410000  0.79110000  0.50000000  1.0 -0.0982517083
N  N33  1  0.51050000  0.70770000  0.50000000  1.0 -0.0982517083
N  N34  1  0.48700000  0.69590000  0.50000000  1.0 -0.0982517083
N  N35  1  0.19720000  0.48950000  0.50000000  1.0 -0.0982517083
N  N36  1  0.20890000  0.51300000  0.50000000  1.0 -0.0982517083
N  N37  1  0.51050000  0.80280000  0.50000000  1.0 -0.0982517083
N  N38  1  0.48700000  0.79110000  0.50000000  1.0 -0.0982517083
N  N39  1  0.19720000  0.70770000  0.50000000  1.0 -0.0982517083
N  N40  1  0.20890000  0.69590000  0.50000000  1.0 -0.0982517083
N  N41  1  0.29230000  0.48950000  0.50000000  1.0 -0.0982517083
N  N42  1  0.30410000  0.51300000  0.50000000  1.0 -0.0982517083
N  N43  1  0.48950000  0.19720000  0.50000000  1.0 -0.0982517083
N  N44  1  0.51300000  0.20890000  0.50000000  1.0 -0.0982517083
N  N45  1  0.80280000  0.29230000  0.50000000  1.0 -0.0982517083
N  N46  1  0.79110000  0.30410000  0.50000000  1.0 -0.0982517083
N  N47  1  0.70770000  0.51050000  0.50000000  1.0 -0.0982517083
N  N48  1  0.69590000  0.48700000  0.50000000  1.0 -0.0982517083
O  O1  1  0.58170000  0.09900000  0.07910000  1.0 -0.381763667
O  O2  1  0.58450000  0.05330000  0.14760000  1.0 -0.4301674281
O  O3  1  0.49750000  0.96090000  0.10480000  1.0 -0.1532021764
O  O4  1  0.51730000  0.41830000  0.07910000  1.0 -0.381763667
O  O5  1  0.46880000  0.41550000  0.14760000  1.0 -0.4301674281
O  O6  1  0.46340000  0.50250000  0.10480000  1.0 -0.1532021764
O  O7  1  0.90100000  0.48270000  0.07910000  1.0 -0.381763667
O  O8  1  0.94670000  0.53120000  0.14760000  1.0 -0.4301674281
O  O9  1  0.03910000  0.53660000  0.10480000  1.0 -0.1532021764
O  O10  1  0.41830000  0.90100000  0.07910000  1.0 -0.381763667
O  O11  1  0.41550000  0.94670000  0.14760000  1.0 -0.4301674281
O  O12  1  0.50250000  0.03910000  0.10480000  1.0 -0.1532021764
O  O13  1  0.48270000  0.58170000  0.07910000  1.0 -0.381763667
O  O14  1  0.53120000  0.58450000  0.14760000  1.0 -0.4301674281
O  O15  1  0.53660000  0.49750000  0.10480000  1.0 -0.1532021764
O  O16  1  0.09900000  0.51730000  0.07910000  1.0 -0.381763667
O  O17  1  0.05330000  0.46880000  0.14760000  1.0 -0.4301674281
O  O18  1  0.96090000  0.46340000  0.10480000  1.0 -0.1532021764
O  O19  1  0.48270000  0.90100000  0.92090000  1.0 -0.381763667
O  O20  1  0.53120000  0.94670000  0.85240000  1.0 -0.4301674281
O  O21  1  0.53660000  0.03910000  0.89520000  1.0 -0.1532021764
O  O22  1  0.09900000  0.58170000  0.92090000  1.0 -0.381763667
O  O23  1  0.05330000  0.58450000  0.85240000  1.0 -0.4301674281
O  O24  1  0.96090000  0.49750000  0.89520000  1.0 -0.1532021764
O  O25  1  0.41830000  0.51730000  0.92090000  1.0 -0.381763667
O  O26  1  0.41550000  0.46880000  0.85240000  1.0 -0.4301674281
O  O27  1  0.50250000  0.46340000  0.89520000  1.0 -0.1532021764
O  O28  1  0.51730000  0.09900000  0.92090000  1.0 -0.381763667
O  O29  1  0.46880000  0.05330000  0.85240000  1.0 -0.4301674281
O  O30  1  0.46340000  0.96090000  0.89520000  1.0 -0.1559360687
O  O31  1  0.90100000  0.41830000  0.92090000  1.0 -0.381763667
O  O32  1  0.94670000  0.41550000  0.85240000  1.0 -0.4301674281
O  O33  1  0.03910000  0.50250000  0.89520000  1.0 -0.1532021764
O  O34  1  0.58170000  0.48270000  0.92090000  1.0 -0.381763667
O  O35  1  0.58450000  0.53120000  0.85240000  1.0 -0.4301674281
O  O36  1  0.49750000  0.53660000  0.89520000  1.0 -0.1532021764
O  O37  1  0.41830000  0.90100000  0.92090000  1.0 -0.381763667
O  O38  1  0.41550000  0.94670000  0.85240000  1.0 -0.4301674281
O  O39  1  0.50250000  0.03910000  0.89520000  1.0 -0.1532021764
O  O40  1  0.48270000  0.58170000  0.92090000  1.0 -0.381763667
O  O41  1  0.53120000  0.58450000  0.85240000  1.0 -0.4301674281
O  O42  1  0.53660000  0.49750000  0.89520000  1.0 -0.1532021764
O  O43  1  0.09900000  0.51730000  0.92090000  1.0 -0.381763667
O  O44  1  0.05330000  0.46880000  0.85240000  1.0 -0.4301674281
O  O45  1  0.96090000  0.46340000  0.89520000  1.0 -0.1532021764
O  O46  1  0.58170000  0.09900000  0.92090000  1.0 -0.381763667
O  O47  1  0.58450000  0.05330000  0.85240000  1.0 -0.4301674281
O  O48  1  0.49750000  0.96090000  0.89520000  1.0 -0.1559360687
O  O49  1  0.51730000  0.41830000  0.92090000  1.0 -0.381763667
O  O50  1  0.46880000  0.41550000  0.85240000  1.0 -0.4301674281
O  O51  1  0.46340000  0.50250000  0.89520000  1.0 -0.1532021764
O  O52  1  0.90100000  0.48270000  0.92090000  1.0 -0.381763667
O  O53  1  0.94670000  0.53120000  0.85240000  1.0 -0.4301674281
O  O54  1  0.03910000  0.53660000  0.89520000  1.0 -0.1532021764
O  O55  1  0.51730000  0.09900000  0.07910000  1.0 -0.381763667
O  O56  1  0.46880000  0.05330000  0.14760000  1.0 -0.4301674281
O  O57  1  0.46340000  0.96090000  0.10480000  1.0 -0.1532021764
O  O58  1  0.90100000  0.41830000  0.07910000  1.0 -0.381763667
O  O59  1  0.94670000  0.41550000  0.14760000  1.0 -0.4301674281
O  O60  1  0.03910000  0.50250000  0.10480000  1.0 -0.1532021764
O  O61  1  0.58170000  0.48270000  0.07910000  1.0 -0.381763667
O  O62  1  0.58450000  0.53120000  0.14760000  1.0 -0.4301674281
O  O63  1  0.49750000  0.53660000  0.10480000  1.0 -0.1532021764
O  O64  1  0.48270000  0.90100000  0.07910000  1.0 -0.381763667
O  O65  1  0.53120000  0.94670000  0.14760000  1.0 -0.4301674281
O  O66  1  0.53660000  0.03910000  0.10480000  1.0 -0.1532021764
O  O67  1  0.09900000  0.58170000  0.07910000  1.0 -0.381763667
O  O68  1  0.05330000  0.58450000  0.14760000  1.0 -0.4301674281
O  O69  1  0.96090000  0.49750000  0.10480000  1.0 -0.1532021764
O  O70  1  0.41830000  0.51730000  0.07910000  1.0 -0.381763667
O  O71  1  0.41550000  0.46880000  0.14760000  1.0 -0.4301674281
O  O72  1  0.50250000  0.46340000  0.10480000  1.0 -0.1532021764
O  O73  1  0.56530000  0.03360000  0.00000000  1.0 -0.6518492216
O  O74  1  0.46830000  0.43470000  0.00000000  1.0 -0.6518492216
O  O75  1  0.96640000  0.53170000  0.00000000  1.0 -0.6518492216
O  O76  1  0.43470000  0.96640000  0.00000000  1.0 -0.6518492216
O  O77  1  0.53170000  0.56530000  0.00000000  1.0 -0.6581091597
O  O78  1  0.03360000  0.46830000  0.00000000  1.0 -0.6581091597
O  O79  1  0.53170000  0.96640000  0.00000000  1.0 -0.6518492216
O  O80  1  0.03360000  0.56530000  0.00000000  1.0 -0.6518492216
O  O81  1  0.43470000  0.46830000  0.00000000  1.0 -0.6518492216
O  O82  1  0.46830000  0.03360000  0.00000000  1.0 -0.6518492216
O  O83  1  0.96640000  0.43470000  0.00000000  1.0 -0.6518492216
O  O84  1  0.56530000  0.53170000  0.00000000  1.0 -0.6581091597
