# DDEC6 charges by PACMAN v1.1 (https://github.com/mtap-research/PACMAN-charge/)
data_KEVWEQ_FSR_pacman
_symmetry_space_group_name_H-M   'P 1'
_cell_length_a   14.04420000
_cell_length_b   28.93800000
_cell_length_c   45.92900000
_cell_angle_alpha   90.00000000
_cell_angle_beta   90.00000000
_cell_angle_gamma   90.00000000
_symmetry_Int_Tables_number   1
_chemical_formula_structural   Zn3H29C42I12N13O2
_chemical_formula_sum   'Zn24 H232 C336 I96 N104 O16'
_cell_volume   18666.05355637
_cell_formula_units_Z   8
loop_
 _symmetry_equiv_pos_site_id
 _symmetry_equiv_pos_as_xyz
  1  'x, y, z'
loop_
 _atom_site_type_symbol
 _atom_site_label
 _atom_site_symmetry_multiplicity
 _atom_site_fract_x
 _atom_site_fract_y
 _atom_site_fract_z
 _atom_site_occupancy
 _atom_site_charge
Zn  Zn1  1  0.63900000  0.56317000  0.43030000  1.0 0.4425991986
Zn  Zn2  1  0.85772000  0.52006000  0.58682000  1.0 0.4425991986
Zn  Zn3  1  0.63067000  0.73935000  0.68884000  1.0 0.4577269468
Zn  Zn4  1  0.36100000  0.93683000  0.93030000  1.0 0.4425991986
Zn  Zn5  1  0.14228000  0.97994000  0.08682000  1.0 0.4425991986
Zn  Zn6  1  0.36933000  0.76065000  0.18884000  1.0 0.4577269468
Zn  Zn7  1  0.13900000  0.43683000  0.06970000  1.0 0.4425991986
Zn  Zn8  1  0.35772000  0.47994000  0.91318000  1.0 0.4425991986
Zn  Zn9  1  0.13067000  0.26065000  0.81116000  1.0 0.4577269468
Zn  Zn10  1  0.86100000  0.06317000  0.56970000  1.0 0.4425991986
Zn  Zn11  1  0.64228000  0.02006000  0.41318000  1.0 0.4425991986
Zn  Zn12  1  0.86933000  0.23935000  0.31116000  1.0 0.4577269468
Zn  Zn13  1  0.36100000  0.43683000  0.56970000  1.0 0.4425991986
Zn  Zn14  1  0.14228000  0.47994000  0.41318000  1.0 0.4425991986
Zn  Zn15  1  0.36933000  0.26065000  0.31116000  1.0 0.4577269468
Zn  Zn16  1  0.63900000  0.06317000  0.06970000  1.0 0.4425991986
Zn  Zn17  1  0.85772000  0.02006000  0.91318000  1.0 0.4425991986
Zn  Zn18  1  0.63067000  0.23935000  0.81116000  1.0 0.4577269468
Zn  Zn19  1  0.86100000  0.56317000  0.93030000  1.0 0.4425991986
Zn  Zn20  1  0.64228000  0.52006000  0.08682000  1.0 0.4425991986
Zn  Zn21  1  0.86933000  0.73935000  0.18884000  1.0 0.4577269468
Zn  Zn22  1  0.13900000  0.93683000  0.43030000  1.0 0.4425991986
Zn  Zn23  1  0.35772000  0.97994000  0.58682000  1.0 0.4425991986
Zn  Zn24  1  0.13067000  0.76065000  0.68884000  1.0 0.4577269468
H  H1  1  0.45050000  0.54240000  0.45680000  1.0 0.0992907755
H  H2  1  0.35190000  0.56790000  0.49550000  1.0 0.1287675577
H  H3  1  0.60260000  0.59830000  0.53470000  1.0 0.1387735177
H  H4  1  0.67090000  0.60770000  0.49230000  1.0 0.1194196914
H  H5  1  0.16810000  0.54720000  0.53530000  1.0 0.1387735177
H  H6  1  0.01170000  0.52820000  0.54140000  1.0 0.1194196914
H  H7  1  0.00120000  0.57960000  0.61780000  1.0 0.1108299682
H  H8  1  0.15440000  0.60270000  0.61710000  1.0 0.1287675577
H  H9  1  0.34720000  0.67940000  0.63880000  1.0 0.1387735177
H  H10  1  0.43140000  0.70440000  0.67670000  1.0 0.1194196914
H  H11  1  0.66750000  0.67600000  0.64070000  1.0 0.1108299682
H  H12  1  0.58820000  0.63540000  0.60370000  1.0 0.1387735177
H  H13  1  0.37140000  0.83290000  0.93990000  1.0 0.1108299682
H  H14  1  0.38980000  0.76550000  0.91460000  1.0 0.1387735177
H  H15  1  0.44900000  0.83960000  0.84290000  1.0 0.1287675577
H  H16  1  0.42850000  0.90730000  0.87130000  1.0 0.0925555635
H  H17  1  0.42040000  0.65080000  0.91160000  1.0 0.1287675577
H  H18  1  0.40260000  0.57630000  0.92820000  1.0 0.1108299682
H  H19  1  0.39740000  0.51950000  0.85550000  1.0 0.0992907755
H  H20  1  0.43100000  0.58760000  0.83230000  1.0 0.1287675577
H  H21  1  0.52660000  0.65470000  0.77930000  1.0 0.1287675577
H  H22  1  0.56270000  0.66440000  0.72690000  1.0 0.0992907755
H  H23  1  0.52940000  0.79880000  0.73440000  1.0 0.1108299682
H  H24  1  0.48680000  0.79000000  0.78240000  1.0 0.1287675577
H  H25  1  0.07460000  0.93890000  0.73490000  1.0 0.1194196914
H  H26  1  0.12680000  0.93500000  0.68710000  1.0 0.1194196914
H  H27  1  0.01720000  0.93450000  0.64930000  1.0 0.0992907755
H  H28  1  0.85550000  0.93780000  0.65930000  1.0 0.1194196914
H  H29  1  0.80330000  0.94160000  0.70720000  1.0 0.0925555635
H  H30  1  0.54950000  0.95760000  0.95680000  1.0 0.0992907755
H  H31  1  0.64810000  0.93210000  0.99550000  1.0 0.1287675577
H  H32  1  0.39740000  0.90170000  0.03470000  1.0 0.1387735177
H  H33  1  0.32910000  0.89230000  0.99230000  1.0 0.1194196914
H  H34  1  0.83190000  0.95280000  0.03530000  1.0 0.1387735177
H  H35  1  0.98830000  0.97180000  0.04140000  1.0 0.1194196914
H  H36  1  0.99880000  0.92040000  0.11780000  1.0 0.1108299682
H  H37  1  0.84560000  0.89730000  0.11710000  1.0 0.1287675577
H  H38  1  0.65280000  0.82060000  0.13880000  1.0 0.1387735177
H  H39  1  0.56860000  0.79560000  0.17670000  1.0 0.1194196914
H  H40  1  0.33250000  0.82400000  0.14070000  1.0 0.1108299682
H  H41  1  0.41180000  0.86460000  0.10370000  1.0 0.1387735177
H  H42  1  0.62860000  0.66710000  0.43990000  1.0 0.1108299682
H  H43  1  0.61020000  0.73450000  0.41460000  1.0 0.1387735177
H  H44  1  0.55100000  0.66040000  0.34290000  1.0 0.1287675577
H  H45  1  0.57150000  0.59270000  0.37130000  1.0 0.0925555635
H  H46  1  0.57960000  0.84920000  0.41160000  1.0 0.1287675577
H  H47  1  0.59740000  0.92370000  0.42820000  1.0 0.1108299682
H  H48  1  0.60260000  0.98050000  0.35550000  1.0 0.0992907755
H  H49  1  0.56900000  0.91240000  0.33230000  1.0 0.1287675577
H  H50  1  0.47340000  0.84530000  0.27930000  1.0 0.1287675577
H  H51  1  0.43730000  0.83560000  0.22690000  1.0 0.0992907755
H  H52  1  0.47060000  0.70120000  0.23440000  1.0 0.1108299682
H  H53  1  0.51320000  0.71000000  0.28240000  1.0 0.1287675577
H  H54  1  0.92540000  0.56110000  0.23490000  1.0 0.1194196914
H  H55  1  0.87320000  0.56500000  0.18710000  1.0 0.1194196914
H  H56  1  0.98280000  0.56550000  0.14930000  1.0 0.0992907755
H  H57  1  0.14450000  0.56220000  0.15930000  1.0 0.1194196914
H  H58  1  0.19670000  0.55840000  0.20720000  1.0 0.0925555635
H  H59  1  0.95050000  0.45760000  0.04320000  1.0 0.0992907755
H  H60  1  0.85190000  0.43210000  0.00450000  1.0 0.1287675577
H  H61  1  0.10260000  0.40170000  0.96530000  1.0 0.1387735177
H  H62  1  0.17090000  0.39230000  0.00770000  1.0 0.1194196914
H  H63  1  0.66810000  0.45280000  0.96470000  1.0 0.1387735177
H  H64  1  0.51170000  0.47180000  0.95860000  1.0 0.1194196914
H  H65  1  0.50120000  0.42040000  0.88220000  1.0 0.1108299682
H  H66  1  0.65440000  0.39730000  0.88290000  1.0 0.1287675577
H  H67  1  0.84720000  0.32060000  0.86120000  1.0 0.1387735177
H  H68  1  0.93140000  0.29560000  0.82330000  1.0 0.1194196914
H  H69  1  0.16750000  0.32400000  0.85930000  1.0 0.1108299682
H  H70  1  0.08820000  0.36460000  0.89630000  1.0 0.1387735177
H  H71  1  0.87140000  0.16710000  0.56010000  1.0 0.1108299682
H  H72  1  0.88980000  0.23450000  0.58540000  1.0 0.1387735177
H  H73  1  0.94900000  0.16040000  0.65710000  1.0 0.1287675577
H  H74  1  0.92850000  0.09270000  0.62870000  1.0 0.0925555635
H  H75  1  0.92040000  0.34920000  0.58840000  1.0 0.1287675577
H  H76  1  0.90260000  0.42370000  0.57180000  1.0 0.1108299682
H  H77  1  0.89740000  0.48050000  0.64450000  1.0 0.0992907755
H  H78  1  0.93100000  0.41240000  0.66770000  1.0 0.1287675577
H  H79  1  0.02660000  0.34530000  0.72070000  1.0 0.1287675577
H  H80  1  0.06270000  0.33560000  0.77310000  1.0 0.0992907755
H  H81  1  0.02940000  0.20120000  0.76560000  1.0 0.1108299682
H  H82  1  0.98680000  0.21000000  0.71760000  1.0 0.1287675577
H  H83  1  0.57460000  0.06110000  0.76510000  1.0 0.1194196914
H  H84  1  0.62680000  0.06500000  0.81290000  1.0 0.1194196914
H  H85  1  0.51720000  0.06550000  0.85070000  1.0 0.0992907755
H  H86  1  0.35550000  0.06220000  0.84070000  1.0 0.1194196914
H  H87  1  0.30330000  0.05840000  0.79280000  1.0 0.0925555635
H  H88  1  0.04950000  0.04240000  0.54320000  1.0 0.0992907755
H  H89  1  0.14810000  0.06790000  0.50450000  1.0 0.1287675577
H  H90  1  0.89740000  0.09830000  0.46530000  1.0 0.1387735177
H  H91  1  0.82910000  0.10770000  0.50770000  1.0 0.1194196914
H  H92  1  0.33190000  0.04720000  0.46470000  1.0 0.1387735177
H  H93  1  0.48830000  0.02820000  0.45860000  1.0 0.1194196914
H  H94  1  0.49880000  0.07960000  0.38220000  1.0 0.1108299682
H  H95  1  0.34560000  0.10270000  0.38290000  1.0 0.1287675577
H  H96  1  0.15280000  0.17940000  0.36120000  1.0 0.1387735177
H  H97  1  0.06860000  0.20440000  0.32330000  1.0 0.1194196914
H  H98  1  0.83250000  0.17600000  0.35930000  1.0 0.1108299682
H  H99  1  0.91180000  0.13540000  0.39630000  1.0 0.1387735177
H  H100  1  0.12860000  0.33290000  0.06010000  1.0 0.1108299682
H  H101  1  0.11020000  0.26550000  0.08540000  1.0 0.1387735177
H  H102  1  0.05100000  0.33960000  0.15710000  1.0 0.1287675577
H  H103  1  0.07150000  0.40730000  0.12870000  1.0 0.0925555635
H  H104  1  0.07960000  0.15080000  0.08840000  1.0 0.1287675577
H  H105  1  0.09740000  0.07630000  0.07180000  1.0 0.1108299682
H  H106  1  0.10260000  0.01950000  0.14450000  1.0 0.0992907755
H  H107  1  0.06900000  0.08760000  0.16770000  1.0 0.1287675577
H  H108  1  0.97340000  0.15470000  0.22070000  1.0 0.1287675577
H  H109  1  0.93730000  0.16440000  0.27310000  1.0 0.0992907755
H  H110  1  0.97060000  0.29880000  0.26560000  1.0 0.1108299682
H  H111  1  0.01320000  0.29000000  0.21760000  1.0 0.1287675577
H  H112  1  0.42540000  0.43890000  0.26510000  1.0 0.1194196914
H  H113  1  0.37320000  0.43500000  0.31290000  1.0 0.1194196914
H  H114  1  0.48280000  0.43450000  0.35070000  1.0 0.0992907755
H  H115  1  0.64450000  0.43780000  0.34070000  1.0 0.1194196914
H  H116  1  0.69670000  0.44160000  0.29280000  1.0 0.0925555635
H  H117  1  0.54950000  0.45760000  0.54320000  1.0 0.0992907755
H  H118  1  0.64810000  0.43210000  0.50450000  1.0 0.1287675577
H  H119  1  0.39740000  0.40170000  0.46530000  1.0 0.1387735177
H  H120  1  0.32910000  0.39230000  0.50770000  1.0 0.1194196914
H  H121  1  0.83190000  0.45280000  0.46470000  1.0 0.1387735177
H  H122  1  0.98830000  0.47180000  0.45860000  1.0 0.1194196914
H  H123  1  0.99880000  0.42040000  0.38220000  1.0 0.1108299682
H  H124  1  0.84560000  0.39730000  0.38290000  1.0 0.1287675577
H  H125  1  0.65280000  0.32060000  0.36120000  1.0 0.1387735177
H  H126  1  0.56860000  0.29560000  0.32330000  1.0 0.1194196914
H  H127  1  0.33250000  0.32400000  0.35930000  1.0 0.1108299682
H  H128  1  0.41180000  0.36460000  0.39630000  1.0 0.1387735177
H  H129  1  0.62860000  0.16710000  0.06010000  1.0 0.1108299682
H  H130  1  0.61020000  0.23450000  0.08540000  1.0 0.1387735177
H  H131  1  0.55100000  0.16040000  0.15710000  1.0 0.1287675577
H  H132  1  0.57150000  0.09270000  0.12870000  1.0 0.0925555635
H  H133  1  0.57960000  0.34920000  0.08840000  1.0 0.1287675577
H  H134  1  0.59740000  0.42370000  0.07180000  1.0 0.1108299682
H  H135  1  0.60260000  0.48050000  0.14450000  1.0 0.0992907755
H  H136  1  0.56900000  0.41240000  0.16770000  1.0 0.1287675577
H  H137  1  0.47340000  0.34530000  0.22070000  1.0 0.1287675577
H  H138  1  0.43730000  0.33560000  0.27310000  1.0 0.0992907755
H  H139  1  0.47060000  0.20120000  0.26560000  1.0 0.1108299682
H  H140  1  0.51320000  0.21000000  0.21760000  1.0 0.1287675577
H  H141  1  0.92540000  0.06110000  0.26510000  1.0 0.1194196914
H  H142  1  0.87320000  0.06500000  0.31290000  1.0 0.1194196914
H  H143  1  0.98280000  0.06550000  0.35070000  1.0 0.0992907755
H  H144  1  0.14450000  0.06220000  0.34070000  1.0 0.1194196914
H  H145  1  0.19670000  0.05840000  0.29280000  1.0 0.0925555635
H  H146  1  0.45050000  0.04240000  0.04320000  1.0 0.0992907755
H  H147  1  0.35190000  0.06790000  0.00450000  1.0 0.1287675577
H  H148  1  0.60260000  0.09830000  0.96530000  1.0 0.1387735177
H  H149  1  0.67090000  0.10770000  0.00770000  1.0 0.1194196914
H  H150  1  0.16810000  0.04720000  0.96470000  1.0 0.1387735177
H  H151  1  0.01170000  0.02820000  0.95860000  1.0 0.1194196914
H  H152  1  0.00120000  0.07960000  0.88220000  1.0 0.1108299682
H  H153  1  0.15440000  0.10270000  0.88290000  1.0 0.1287675577
H  H154  1  0.34720000  0.17940000  0.86120000  1.0 0.1387735177
H  H155  1  0.43140000  0.20440000  0.82330000  1.0 0.1194196914
H  H156  1  0.66750000  0.17600000  0.85930000  1.0 0.1108299682
H  H157  1  0.58820000  0.13540000  0.89630000  1.0 0.1387735177
H  H158  1  0.37140000  0.33290000  0.56010000  1.0 0.1108299682
H  H159  1  0.38980000  0.26550000  0.58540000  1.0 0.1387735177
H  H160  1  0.44900000  0.33960000  0.65710000  1.0 0.1287675577
H  H161  1  0.42850000  0.40730000  0.62870000  1.0 0.0925555635
H  H162  1  0.42040000  0.15080000  0.58840000  1.0 0.1287675577
H  H163  1  0.40260000  0.07630000  0.57180000  1.0 0.1108299682
H  H164  1  0.39740000  0.01950000  0.64450000  1.0 0.0992907755
H  H165  1  0.43100000  0.08760000  0.66770000  1.0 0.1287675577
H  H166  1  0.52660000  0.15470000  0.72070000  1.0 0.1287675577
H  H167  1  0.56270000  0.16440000  0.77310000  1.0 0.0992907755
H  H168  1  0.52940000  0.29880000  0.76560000  1.0 0.1108299682
H  H169  1  0.48680000  0.29000000  0.71760000  1.0 0.1287675577
H  H170  1  0.07460000  0.43890000  0.76510000  1.0 0.1194196914
H  H171  1  0.12680000  0.43500000  0.81290000  1.0 0.1194196914
H  H172  1  0.01720000  0.43450000  0.85070000  1.0 0.0992907755
H  H173  1  0.85550000  0.43780000  0.84070000  1.0 0.1194196914
H  H174  1  0.80330000  0.44160000  0.79280000  1.0 0.0925555635
H  H175  1  0.04950000  0.54240000  0.95680000  1.0 0.0992907755
H  H176  1  0.14810000  0.56790000  0.99550000  1.0 0.1287675577
H  H177  1  0.89740000  0.59830000  0.03470000  1.0 0.1387735177
H  H178  1  0.82910000  0.60770000  0.99230000  1.0 0.1194196914
H  H179  1  0.33190000  0.54720000  0.03530000  1.0 0.1387735177
H  H180  1  0.48830000  0.52820000  0.04140000  1.0 0.1194196914
H  H181  1  0.49880000  0.57960000  0.11780000  1.0 0.1108299682
H  H182  1  0.34560000  0.60270000  0.11710000  1.0 0.1287675577
H  H183  1  0.15280000  0.67940000  0.13880000  1.0 0.1387735177
H  H184  1  0.06860000  0.70440000  0.17670000  1.0 0.1194196914
H  H185  1  0.83250000  0.67600000  0.14070000  1.0 0.1108299682
H  H186  1  0.91180000  0.63540000  0.10370000  1.0 0.1387735177
H  H187  1  0.12860000  0.83290000  0.43990000  1.0 0.1108299682
H  H188  1  0.11020000  0.76550000  0.41460000  1.0 0.1387735177
H  H189  1  0.05100000  0.83960000  0.34290000  1.0 0.1287675577
H  H190  1  0.07150000  0.90730000  0.37130000  1.0 0.0925555635
H  H191  1  0.07960000  0.65080000  0.41160000  1.0 0.1287675577
H  H192  1  0.09740000  0.57630000  0.42820000  1.0 0.1108299682
H  H193  1  0.10260000  0.51950000  0.35550000  1.0 0.0992907755
H  H194  1  0.06900000  0.58760000  0.33230000  1.0 0.1287675577
H  H195  1  0.97340000  0.65470000  0.27930000  1.0 0.1287675577
H  H196  1  0.93730000  0.66440000  0.22690000  1.0 0.0992907755
H  H197  1  0.97060000  0.79880000  0.23440000  1.0 0.1108299682
H  H198  1  0.01320000  0.79000000  0.28240000  1.0 0.1287675577
H  H199  1  0.42540000  0.93890000  0.23490000  1.0 0.1194196914
H  H200  1  0.37320000  0.93500000  0.18710000  1.0 0.1194196914
H  H201  1  0.48280000  0.93450000  0.14930000  1.0 0.0992907755
H  H202  1  0.64450000  0.93780000  0.15930000  1.0 0.1194196914
H  H203  1  0.69670000  0.94160000  0.20720000  1.0 0.0925555635
H  H204  1  0.95050000  0.95760000  0.45680000  1.0 0.0992907755
H  H205  1  0.85190000  0.93210000  0.49550000  1.0 0.1287675577
H  H206  1  0.10260000  0.90170000  0.53470000  1.0 0.1387735177
H  H207  1  0.17090000  0.89230000  0.49230000  1.0 0.1194196914
H  H208  1  0.66810000  0.95280000  0.53530000  1.0 0.1387735177
H  H209  1  0.51170000  0.97180000  0.54140000  1.0 0.1194196914
H  H210  1  0.50120000  0.92040000  0.61780000  1.0 0.1108299682
H  H211  1  0.65440000  0.89730000  0.61710000  1.0 0.1287675577
H  H212  1  0.84720000  0.82060000  0.63880000  1.0 0.1387735177
H  H213  1  0.93140000  0.79560000  0.67670000  1.0 0.1194196914
H  H214  1  0.16750000  0.82400000  0.64070000  1.0 0.1108299682
H  H215  1  0.08820000  0.86460000  0.60370000  1.0 0.1387735177
H  H216  1  0.87140000  0.66710000  0.93990000  1.0 0.1108299682
H  H217  1  0.88980000  0.73450000  0.91460000  1.0 0.1387735177
H  H218  1  0.94900000  0.66040000  0.84290000  1.0 0.1287675577
H  H219  1  0.92850000  0.59270000  0.87130000  1.0 0.0925555635
H  H220  1  0.92040000  0.84920000  0.91160000  1.0 0.1287675577
H  H221  1  0.90260000  0.92370000  0.92820000  1.0 0.1108299682
H  H222  1  0.89740000  0.98050000  0.85550000  1.0 0.0992907755
H  H223  1  0.93100000  0.91240000  0.83230000  1.0 0.1287675577
H  H224  1  0.02660000  0.84530000  0.77930000  1.0 0.1287675577
H  H225  1  0.06270000  0.83560000  0.72690000  1.0 0.0992907755
H  H226  1  0.02940000  0.70120000  0.73440000  1.0 0.1108299682
H  H227  1  0.98680000  0.71000000  0.78240000  1.0 0.1287675577
H  H228  1  0.57460000  0.56110000  0.73490000  1.0 0.1194196914
H  H229  1  0.62680000  0.56500000  0.68710000  1.0 0.1194196914
H  H230  1  0.51720000  0.56550000  0.64930000  1.0 0.0992907755
H  H231  1  0.35550000  0.56220000  0.65930000  1.0 0.1194196914
H  H232  1  0.30330000  0.55840000  0.70720000  1.0 0.0925555635
C  C1  1  0.47850000  0.55960000  0.47160000  1.0 0.0992907755
C  C2  1  0.41760000  0.57180000  0.49570000  1.0 -0.1676983114
C  C3  1  0.46930000  0.59070000  0.52040000  1.0 0.0599617613
C  C4  1  0.56720000  0.59460000  0.51780000  1.0 -0.1292165646
C  C5  1  0.61160000  0.59360000  0.49380000  1.0 0.0182713374
C  C6  1  0.40970000  0.60030000  0.54650000  1.0 0.3470793952
C  C7  1  0.27860000  0.59970000  0.57180000  1.0 0.3439119224
C  C8  1  0.40730000  0.62940000  0.59290000  1.0 0.3629154254
C  C9  1  0.17310000  0.58720000  0.57630000  1.0 0.0599617613
C  C10  1  0.13320000  0.55600000  0.55160000  1.0 -0.1396279297
C  C11  1  0.04340000  0.54330000  0.55640000  1.0 0.0599617613
C  C12  1  0.03660000  0.57340000  0.60110000  1.0 0.0794418002
C  C13  1  0.12670000  0.58990000  0.60060000  1.0 -0.1592154309
C  C14  1  0.45720000  0.65420000  0.61620000  1.0 0.049410779
C  C15  1  0.41310000  0.67640000  0.63870000  1.0 -0.1832415517
C  C16  1  0.46450000  0.69370000  0.66060000  1.0 0.0794418002
C  C17  1  0.60130000  0.67540000  0.64030000  1.0 0.0599617613
C  C18  1  0.55400000  0.65200000  0.61750000  1.0 -0.1292165646
C  C19  1  0.38560000  0.83420000  0.92020000  1.0 0.0925555635
C  C20  1  0.39730000  0.79380000  0.90530000  1.0 -0.1676983114
C  C21  1  0.42040000  0.79610000  0.87600000  1.0 0.0599617613
C  C22  1  0.43270000  0.83780000  0.86250000  1.0 -0.1396279297
C  C23  1  0.41940000  0.87830000  0.87960000  1.0 0.071636577
C  C24  1  0.43460000  0.75150000  0.85900000  1.0 0.3629154254
C  C25  1  0.43740000  0.67480000  0.85550000  1.0 0.3470793952
C  C26  1  0.46700000  0.72000000  0.81640000  1.0 0.3784974653
C  C27  1  0.42620000  0.62900000  0.86720000  1.0 0.049410779
C  C28  1  0.41720000  0.62560000  0.89910000  1.0 -0.1676983114
C  C29  1  0.40350000  0.58030000  0.90810000  1.0 0.0925555635
C  C30  1  0.40250000  0.54640000  0.86650000  1.0 0.0794418002
C  C31  1  0.42140000  0.58780000  0.85230000  1.0 -0.1676983114
C  C32  1  0.49660000  0.72220000  0.78360000  1.0 0.049410779
C  C33  1  0.52430000  0.68330000  0.77010000  1.0 -0.1518142197
C  C34  1  0.55200000  0.69030000  0.73840000  1.0 0.1108299682
C  C35  1  0.53030000  0.76960000  0.74280000  1.0 0.0599617613
C  C36  1  0.50210000  0.76400000  0.77140000  1.0 -0.1223250117
C  C37  1  0.93400000  0.94060000  0.72580000  1.0 0.0412589536
C  C38  1  0.03100000  0.93860000  0.71980000  1.0 -0.1114217045
C  C39  1  0.06200000  0.93630000  0.69110000  1.0 -0.0793537469
C  C40  1  0.99600000  0.93600000  0.66850000  1.0 -0.071893968
C  C41  1  0.89900000  0.93800000  0.67450000  1.0 -0.098741092
C  C42  1  0.86800000  0.94030000  0.70320000  1.0 -0.1396279297
C  C43  1  0.52150000  0.94040000  0.97160000  1.0 0.0992907755
C  C44  1  0.58240000  0.92820000  0.99570000  1.0 -0.1676983114
C  C45  1  0.53070000  0.90930000  0.02040000  1.0 0.0599617613
C  C46  1  0.43280000  0.90540000  0.01780000  1.0 -0.1292165646
C  C47  1  0.38840000  0.90640000  0.99380000  1.0 0.0182713374
C  C48  1  0.59030000  0.89970000  0.04650000  1.0 0.3470793952
C  C49  1  0.72140000  0.90030000  0.07180000  1.0 0.3439119224
C  C50  1  0.59270000  0.87060000  0.09290000  1.0 0.3629154254
C  C51  1  0.82690000  0.91280000  0.07630000  1.0 0.0599617613
C  C52  1  0.86680000  0.94400000  0.05160000  1.0 -0.1396279297
C  C53  1  0.95660000  0.95670000  0.05640000  1.0 0.0599617613
C  C54  1  0.96340000  0.92660000  0.10110000  1.0 0.0794418002
C  C55  1  0.87330000  0.91010000  0.10060000  1.0 -0.1592154309
C  C56  1  0.54280000  0.84580000  0.11620000  1.0 0.049410779
C  C57  1  0.58690000  0.82360000  0.13870000  1.0 -0.1832415517
C  C58  1  0.53550000  0.80630000  0.16060000  1.0 0.0794418002
C  C59  1  0.39870000  0.82460000  0.14030000  1.0 0.0599617613
C  C60  1  0.44600000  0.84800000  0.11750000  1.0 -0.1292165646
C  C61  1  0.61440000  0.66580000  0.42020000  1.0 0.0925555635
C  C62  1  0.60270000  0.70620000  0.40530000  1.0 -0.1676983114
C  C63  1  0.57960000  0.70390000  0.37600000  1.0 0.0599617613
C  C64  1  0.56730000  0.66220000  0.36250000  1.0 -0.1396279297
C  C65  1  0.58060000  0.62170000  0.37960000  1.0 0.071636577
C  C66  1  0.56540000  0.74850000  0.35900000  1.0 0.3629154254
C  C67  1  0.56260000  0.82520000  0.35550000  1.0 0.3470793952
C  C68  1  0.53300000  0.78000000  0.31640000  1.0 0.3784974653
C  C69  1  0.57380000  0.87100000  0.36720000  1.0 0.049410779
C  C70  1  0.58280000  0.87440000  0.39910000  1.0 -0.1676983114
C  C71  1  0.59650000  0.91970000  0.40810000  1.0 0.0925555635
C  C72  1  0.59750000  0.95360000  0.36650000  1.0 0.0794418002
C  C73  1  0.57860000  0.91220000  0.35230000  1.0 -0.1676983114
C  C74  1  0.50340000  0.77780000  0.28360000  1.0 0.049410779
C  C75  1  0.47570000  0.81670000  0.27010000  1.0 -0.1518142197
C  C76  1  0.44800000  0.80970000  0.23840000  1.0 0.1108299682
C  C77  1  0.46970000  0.73040000  0.24280000  1.0 0.0599617613
C  C78  1  0.49790000  0.73600000  0.27140000  1.0 -0.1223250117
C  C79  1  0.06600000  0.55940000  0.22580000  1.0 0.0412589536
C  C80  1  0.96900000  0.56140000  0.21980000  1.0 -0.1114217045
C  C81  1  0.93800000  0.56370000  0.19110000  1.0 -0.0793537469
C  C82  1  0.00400000  0.56400000  0.16850000  1.0 -0.071893968
C  C83  1  0.10100000  0.56200000  0.17450000  1.0 -0.098741092
C  C84  1  0.13200000  0.55970000  0.20320000  1.0 -0.1396279297
C  C85  1  0.97850000  0.44040000  0.02840000  1.0 0.0992907755
C  C86  1  0.91760000  0.42820000  0.00430000  1.0 -0.1676983114
C  C87  1  0.96930000  0.40930000  0.97960000  1.0 0.0599617613
C  C88  1  0.06720000  0.40540000  0.98220000  1.0 -0.1292165646
C  C89  1  0.11160000  0.40640000  0.00620000  1.0 0.0182713374
C  C90  1  0.90970000  0.39970000  0.95350000  1.0 0.3470793952
C  C91  1  0.77860000  0.40030000  0.92820000  1.0 0.3439119224
C  C92  1  0.90730000  0.37060000  0.90710000  1.0 0.3629154254
C  C93  1  0.67310000  0.41280000  0.92370000  1.0 0.0599617613
C  C94  1  0.63320000  0.44400000  0.94840000  1.0 -0.1396279297
C  C95  1  0.54340000  0.45670000  0.94360000  1.0 0.0599617613
C  C96  1  0.53660000  0.42660000  0.89890000  1.0 0.0794418002
C  C97  1  0.62670000  0.41010000  0.89940000  1.0 -0.1592154309
C  C98  1  0.95720000  0.34580000  0.88380000  1.0 0.049410779
C  C99  1  0.91310000  0.32360000  0.86130000  1.0 -0.1832415517
C  C100  1  0.96450000  0.30630000  0.83940000  1.0 0.0794418002
C  C101  1  0.10130000  0.32460000  0.85970000  1.0 0.0599617613
C  C102  1  0.05400000  0.34800000  0.88250000  1.0 -0.1292165646
C  C103  1  0.88560000  0.16580000  0.57980000  1.0 0.0925555635
C  C104  1  0.89730000  0.20620000  0.59470000  1.0 -0.1676983114
C  C105  1  0.92040000  0.20390000  0.62400000  1.0 0.0599617613
C  C106  1  0.93270000  0.16220000  0.63750000  1.0 -0.1396279297
C  C107  1  0.91940000  0.12170000  0.62040000  1.0 0.071636577
C  C108  1  0.93460000  0.24850000  0.64100000  1.0 0.3629154254
C  C109  1  0.93740000  0.32520000  0.64450000  1.0 0.3470793952
C  C110  1  0.96700000  0.28000000  0.68360000  1.0 0.3784974653
C  C111  1  0.92620000  0.37100000  0.63280000  1.0 0.049410779
C  C112  1  0.91720000  0.37440000  0.60090000  1.0 -0.1676983114
C  C113  1  0.90350000  0.41970000  0.59190000  1.0 0.0925555635
C  C114  1  0.90250000  0.45360000  0.63350000  1.0 0.0794418002
C  C115  1  0.92140000  0.41220000  0.64770000  1.0 -0.1676983114
C  C116  1  0.99660000  0.27780000  0.71640000  1.0 0.049410779
C  C117  1  0.02430000  0.31670000  0.72990000  1.0 -0.1518142197
C  C118  1  0.05200000  0.30970000  0.76160000  1.0 0.1108299682
C  C119  1  0.03030000  0.23040000  0.75720000  1.0 0.0599617613
C  C120  1  0.00210000  0.23600000  0.72860000  1.0 -0.1223250117
C  C121  1  0.43400000  0.05940000  0.77420000  1.0 0.0412589536
C  C122  1  0.53100000  0.06140000  0.78020000  1.0 -0.1114217045
C  C123  1  0.56200000  0.06370000  0.80890000  1.0 -0.0793537469
C  C124  1  0.49600000  0.06400000  0.83150000  1.0 -0.071893968
C  C125  1  0.39900000  0.06200000  0.82550000  1.0 -0.098741092
C  C126  1  0.36800000  0.05970000  0.79680000  1.0 -0.1396279297
C  C127  1  0.02150000  0.05960000  0.52840000  1.0 0.0992907755
C  C128  1  0.08240000  0.07180000  0.50430000  1.0 -0.1676983114
C  C129  1  0.03070000  0.09070000  0.47960000  1.0 0.0599617613
C  C130  1  0.93280000  0.09460000  0.48220000  1.0 -0.1292165646
C  C131  1  0.88840000  0.09360000  0.50620000  1.0 0.0182713374
C  C132  1  0.09030000  0.10030000  0.45350000  1.0 0.3470793952
C  C133  1  0.22140000  0.09970000  0.42820000  1.0 0.3439119224
C  C134  1  0.09270000  0.12940000  0.40710000  1.0 0.3629154254
C  C135  1  0.32690000  0.08720000  0.42370000  1.0 0.0599617613
C  C136  1  0.36680000  0.05600000  0.44840000  1.0 -0.1396279297
C  C137  1  0.45660000  0.04330000  0.44360000  1.0 0.0599617613
C  C138  1  0.46340000  0.07340000  0.39890000  1.0 0.0794418002
C  C139  1  0.37330000  0.08990000  0.39940000  1.0 -0.1592154309
C  C140  1  0.04280000  0.15420000  0.38380000  1.0 0.049410779
C  C141  1  0.08690000  0.17640000  0.36130000  1.0 -0.1832415517
C  C142  1  0.03550000  0.19370000  0.33940000  1.0 0.0794418002
C  C143  1  0.89870000  0.17540000  0.35970000  1.0 0.0599617613
C  C144  1  0.94600000  0.15200000  0.38250000  1.0 -0.1292165646
C  C145  1  0.11440000  0.33420000  0.07980000  1.0 0.0925555635
C  C146  1  0.10270000  0.29380000  0.09470000  1.0 -0.1676983114
C  C147  1  0.07960000  0.29610000  0.12400000  1.0 0.0599617613
C  C148  1  0.06730000  0.33780000  0.13750000  1.0 -0.1396279297
C  C149  1  0.08060000  0.37830000  0.12040000  1.0 0.071636577
C  C150  1  0.06540000  0.25150000  0.14100000  1.0 0.3629154254
C  C151  1  0.06260000  0.17480000  0.14450000  1.0 0.3470793952
C  C152  1  0.03300000  0.22000000  0.18360000  1.0 0.3784974653
C  C153  1  0.07380000  0.12900000  0.13280000  1.0 0.049410779
C  C154  1  0.08280000  0.12560000  0.10090000  1.0 -0.1676983114
C  C155  1  0.09650000  0.08030000  0.09190000  1.0 0.0925555635
C  C156  1  0.09750000  0.04640000  0.13350000  1.0 0.0794418002
C  C157  1  0.07860000  0.08780000  0.14770000  1.0 -0.1676983114
C  C158  1  0.00340000  0.22220000  0.21640000  1.0 0.049410779
C  C159  1  0.97570000  0.18330000  0.22990000  1.0 -0.1518142197
C  C160  1  0.94800000  0.19030000  0.26160000  1.0 0.1108299682
C  C161  1  0.96970000  0.26960000  0.25720000  1.0 0.0599617613
C  C162  1  0.99790000  0.26400000  0.22860000  1.0 -0.1223250117
C  C163  1  0.56600000  0.44060000  0.27420000  1.0 0.0412589536
C  C164  1  0.46900000  0.43860000  0.28020000  1.0 -0.1114217045
C  C165  1  0.43800000  0.43630000  0.30890000  1.0 -0.0793537469
C  C166  1  0.50400000  0.43600000  0.33150000  1.0 -0.071893968
C  C167  1  0.60100000  0.43800000  0.32550000  1.0 -0.098741092
C  C168  1  0.63200000  0.44030000  0.29680000  1.0 -0.1396279297
C  C169  1  0.52150000  0.44040000  0.52840000  1.0 0.0992907755
C  C170  1  0.58240000  0.42820000  0.50430000  1.0 -0.1676983114
C  C171  1  0.53070000  0.40930000  0.47960000  1.0 0.0599617613
C  C172  1  0.43280000  0.40540000  0.48220000  1.0 -0.1292165646
C  C173  1  0.38840000  0.40640000  0.50620000  1.0 0.0182713374
C  C174  1  0.59030000  0.39970000  0.45350000  1.0 0.3470793952
C  C175  1  0.72140000  0.40030000  0.42820000  1.0 0.3439119224
C  C176  1  0.59270000  0.37060000  0.40710000  1.0 0.3629154254
C  C177  1  0.82690000  0.41280000  0.42370000  1.0 0.0599617613
C  C178  1  0.86680000  0.44400000  0.44840000  1.0 -0.1396279297
C  C179  1  0.95660000  0.45670000  0.44360000  1.0 0.0599617613
C  C180  1  0.96340000  0.42660000  0.39890000  1.0 0.0794418002
C  C181  1  0.87330000  0.41010000  0.39940000  1.0 -0.1592154309
C  C182  1  0.54280000  0.34580000  0.38380000  1.0 0.049410779
C  C183  1  0.58690000  0.32360000  0.36130000  1.0 -0.1832415517
C  C184  1  0.53550000  0.30630000  0.33940000  1.0 0.0794418002
C  C185  1  0.39870000  0.32460000  0.35970000  1.0 0.0599617613
C  C186  1  0.44600000  0.34800000  0.38250000  1.0 -0.1292165646
C  C187  1  0.61440000  0.16580000  0.07980000  1.0 0.0925555635
C  C188  1  0.60270000  0.20620000  0.09470000  1.0 -0.1676983114
C  C189  1  0.57960000  0.20390000  0.12400000  1.0 0.0599617613
C  C190  1  0.56730000  0.16220000  0.13750000  1.0 -0.1396279297
C  C191  1  0.58060000  0.12170000  0.12040000  1.0 0.071636577
C  C192  1  0.56540000  0.24850000  0.14100000  1.0 0.3629154254
C  C193  1  0.56260000  0.32520000  0.14450000  1.0 0.3470793952
C  C194  1  0.53300000  0.28000000  0.18360000  1.0 0.3784974653
C  C195  1  0.57380000  0.37100000  0.13280000  1.0 0.049410779
C  C196  1  0.58280000  0.37440000  0.10090000  1.0 -0.1676983114
C  C197  1  0.59650000  0.41970000  0.09190000  1.0 0.0925555635
C  C198  1  0.59750000  0.45360000  0.13350000  1.0 0.0794418002
C  C199  1  0.57860000  0.41220000  0.14770000  1.0 -0.1676983114
C  C200  1  0.50340000  0.27780000  0.21640000  1.0 0.049410779
C  C201  1  0.47570000  0.31670000  0.22990000  1.0 -0.1518142197
C  C202  1  0.44800000  0.30970000  0.26160000  1.0 0.1108299682
C  C203  1  0.46970000  0.23040000  0.25720000  1.0 0.0599617613
C  C204  1  0.49790000  0.23600000  0.22860000  1.0 -0.1223250117
C  C205  1  0.06600000  0.05940000  0.27420000  1.0 0.0412589536
C  C206  1  0.96900000  0.06140000  0.28020000  1.0 -0.1114217045
C  C207  1  0.93800000  0.06370000  0.30890000  1.0 -0.0793537469
C  C208  1  0.00400000  0.06400000  0.33150000  1.0 -0.071893968
C  C209  1  0.10100000  0.06200000  0.32550000  1.0 -0.098741092
C  C210  1  0.13200000  0.05970000  0.29680000  1.0 -0.1396279297
C  C211  1  0.47850000  0.05960000  0.02840000  1.0 0.0992907755
C  C212  1  0.41760000  0.07180000  0.00430000  1.0 -0.1676983114
C  C213  1  0.46930000  0.09070000  0.97960000  1.0 0.0599617613
C  C214  1  0.56720000  0.09460000  0.98220000  1.0 -0.1292165646
C  C215  1  0.61160000  0.09360000  0.00620000  1.0 0.0182713374
C  C216  1  0.40970000  0.10030000  0.95350000  1.0 0.3470793952
C  C217  1  0.27860000  0.09970000  0.92820000  1.0 0.3439119224
C  C218  1  0.40730000  0.12940000  0.90710000  1.0 0.3629154254
C  C219  1  0.17310000  0.08720000  0.92370000  1.0 0.0599617613
C  C220  1  0.13320000  0.05600000  0.94840000  1.0 -0.1396279297
C  C221  1  0.04340000  0.04330000  0.94360000  1.0 0.0599617613
C  C222  1  0.03660000  0.07340000  0.89890000  1.0 0.0794418002
C  C223  1  0.12670000  0.08990000  0.89940000  1.0 -0.1592154309
C  C224  1  0.45720000  0.15420000  0.88380000  1.0 0.049410779
C  C225  1  0.41310000  0.17640000  0.86130000  1.0 -0.1832415517
C  C226  1  0.46450000  0.19370000  0.83940000  1.0 0.0794418002
C  C227  1  0.60130000  0.17540000  0.85970000  1.0 0.0599617613
C  C228  1  0.55400000  0.15200000  0.88250000  1.0 -0.1292165646
C  C229  1  0.38560000  0.33420000  0.57980000  1.0 0.0925555635
C  C230  1  0.39730000  0.29380000  0.59470000  1.0 -0.1676983114
C  C231  1  0.42040000  0.29610000  0.62400000  1.0 0.0599617613
C  C232  1  0.43270000  0.33780000  0.63750000  1.0 -0.1396279297
C  C233  1  0.41940000  0.37830000  0.62040000  1.0 0.071636577
C  C234  1  0.43460000  0.25150000  0.64100000  1.0 0.3629154254
C  C235  1  0.43740000  0.17480000  0.64450000  1.0 0.3470793952
C  C236  1  0.46700000  0.22000000  0.68360000  1.0 0.3784974653
C  C237  1  0.42620000  0.12900000  0.63280000  1.0 0.049410779
C  C238  1  0.41720000  0.12560000  0.60090000  1.0 -0.1676983114
C  C239  1  0.40350000  0.08030000  0.59190000  1.0 0.0925555635
C  C240  1  0.40250000  0.04640000  0.63350000  1.0 0.0794418002
C  C241  1  0.42140000  0.08780000  0.64770000  1.0 -0.1676983114
C  C242  1  0.49660000  0.22220000  0.71640000  1.0 0.049410779
C  C243  1  0.52430000  0.18330000  0.72990000  1.0 -0.1518142197
C  C244  1  0.55200000  0.19030000  0.76160000  1.0 0.1108299682
C  C245  1  0.53030000  0.26960000  0.75720000  1.0 0.0599617613
C  C246  1  0.50210000  0.26400000  0.72860000  1.0 -0.1223250117
C  C247  1  0.93400000  0.44060000  0.77420000  1.0 0.0412589536
C  C248  1  0.03100000  0.43860000  0.78020000  1.0 -0.1114217045
C  C249  1  0.06200000  0.43630000  0.80890000  1.0 -0.0793537469
C  C250  1  0.99600000  0.43600000  0.83150000  1.0 -0.071893968
C  C251  1  0.89900000  0.43800000  0.82550000  1.0 -0.098741092
C  C252  1  0.86800000  0.44030000  0.79680000  1.0 -0.1396279297
C  C253  1  0.02150000  0.55960000  0.97160000  1.0 0.0992907755
C  C254  1  0.08240000  0.57180000  0.99570000  1.0 -0.1676983114
C  C255  1  0.03070000  0.59070000  0.02040000  1.0 0.0599617613
C  C256  1  0.93280000  0.59460000  0.01780000  1.0 -0.1292165646
C  C257  1  0.88840000  0.59360000  0.99380000  1.0 0.0182713374
C  C258  1  0.09030000  0.60030000  0.04650000  1.0 0.3470793952
C  C259  1  0.22140000  0.59970000  0.07180000  1.0 0.3439119224
C  C260  1  0.09270000  0.62940000  0.09290000  1.0 0.3629154254
C  C261  1  0.32690000  0.58720000  0.07630000  1.0 0.0599617613
C  C262  1  0.36680000  0.55600000  0.05160000  1.0 -0.1396279297
C  C263  1  0.45660000  0.54330000  0.05640000  1.0 0.0599617613
C  C264  1  0.46340000  0.57340000  0.10110000  1.0 0.0794418002
C  C265  1  0.37330000  0.58990000  0.10060000  1.0 -0.1592154309
C  C266  1  0.04280000  0.65420000  0.11620000  1.0 0.049410779
C  C267  1  0.08690000  0.67640000  0.13870000  1.0 -0.1832415517
C  C268  1  0.03550000  0.69370000  0.16060000  1.0 0.0794418002
C  C269  1  0.89870000  0.67540000  0.14030000  1.0 0.0599617613
C  C270  1  0.94600000  0.65200000  0.11750000  1.0 -0.1292165646
C  C271  1  0.11440000  0.83420000  0.42020000  1.0 0.0925555635
C  C272  1  0.10270000  0.79380000  0.40530000  1.0 -0.1676983114
C  C273  1  0.07960000  0.79610000  0.37600000  1.0 0.0599617613
C  C274  1  0.06730000  0.83780000  0.36250000  1.0 -0.1396279297
C  C275  1  0.08060000  0.87830000  0.37960000  1.0 0.071636577
C  C276  1  0.06540000  0.75150000  0.35900000  1.0 0.3629154254
C  C277  1  0.06260000  0.67480000  0.35550000  1.0 0.3470793952
C  C278  1  0.03300000  0.72000000  0.31640000  1.0 0.3784974653
C  C279  1  0.07380000  0.62900000  0.36720000  1.0 0.049410779
C  C280  1  0.08280000  0.62560000  0.39910000  1.0 -0.1676983114
C  C281  1  0.09650000  0.58030000  0.40810000  1.0 0.0925555635
C  C282  1  0.09750000  0.54640000  0.36650000  1.0 0.0794418002
C  C283  1  0.07860000  0.58780000  0.35230000  1.0 -0.1676983114
C  C284  1  0.00340000  0.72220000  0.28360000  1.0 0.049410779
C  C285  1  0.97570000  0.68330000  0.27010000  1.0 -0.1518142197
C  C286  1  0.94800000  0.69030000  0.23840000  1.0 0.1108299682
C  C287  1  0.96970000  0.76960000  0.24280000  1.0 0.0599617613
C  C288  1  0.99790000  0.76400000  0.27140000  1.0 -0.1223250117
C  C289  1  0.56600000  0.94060000  0.22580000  1.0 0.0412589536
C  C290  1  0.46900000  0.93860000  0.21980000  1.0 -0.1114217045
C  C291  1  0.43800000  0.93630000  0.19110000  1.0 -0.0793537469
C  C292  1  0.50400000  0.93600000  0.16850000  1.0 -0.071893968
C  C293  1  0.60100000  0.93800000  0.17450000  1.0 -0.098741092
C  C294  1  0.63200000  0.94030000  0.20320000  1.0 -0.1396279297
C  C295  1  0.97850000  0.94040000  0.47160000  1.0 0.0992907755
C  C296  1  0.91760000  0.92820000  0.49570000  1.0 -0.1676983114
C  C297  1  0.96930000  0.90930000  0.52040000  1.0 0.0599617613
C  C298  1  0.06720000  0.90540000  0.51780000  1.0 -0.1292165646
C  C299  1  0.11160000  0.90640000  0.49380000  1.0 0.0182713374
C  C300  1  0.90970000  0.89970000  0.54650000  1.0 0.3470793952
C  C301  1  0.77860000  0.90030000  0.57180000  1.0 0.3439119224
C  C302  1  0.90730000  0.87060000  0.59290000  1.0 0.3629154254
C  C303  1  0.67310000  0.91280000  0.57630000  1.0 0.0599617613
C  C304  1  0.63320000  0.94400000  0.55160000  1.0 -0.1396279297
C  C305  1  0.54340000  0.95670000  0.55640000  1.0 0.0599617613
C  C306  1  0.53660000  0.92660000  0.60110000  1.0 0.0794418002
C  C307  1  0.62670000  0.91010000  0.60060000  1.0 -0.1592154309
C  C308  1  0.95720000  0.84580000  0.61620000  1.0 0.049410779
C  C309  1  0.91310000  0.82360000  0.63870000  1.0 -0.1832415517
C  C310  1  0.96450000  0.80630000  0.66060000  1.0 0.0794418002
C  C311  1  0.10130000  0.82460000  0.64030000  1.0 0.0599617613
C  C312  1  0.05400000  0.84800000  0.61750000  1.0 -0.1292165646
C  C313  1  0.88560000  0.66580000  0.92020000  1.0 0.0925555635
C  C314  1  0.89730000  0.70620000  0.90530000  1.0 -0.1676983114
C  C315  1  0.92040000  0.70390000  0.87600000  1.0 0.0599617613
C  C316  1  0.93270000  0.66220000  0.86250000  1.0 -0.1396279297
C  C317  1  0.91940000  0.62170000  0.87960000  1.0 0.071636577
C  C318  1  0.93460000  0.74850000  0.85900000  1.0 0.3629154254
C  C319  1  0.93740000  0.82520000  0.85550000  1.0 0.3470793952
C  C320  1  0.96700000  0.78000000  0.81640000  1.0 0.3784974653
C  C321  1  0.92620000  0.87100000  0.86720000  1.0 0.049410779
C  C322  1  0.91720000  0.87440000  0.89910000  1.0 -0.1676983114
C  C323  1  0.90350000  0.91970000  0.90810000  1.0 0.0925555635
C  C324  1  0.90250000  0.95360000  0.86650000  1.0 0.0794418002
C  C325  1  0.92140000  0.91220000  0.85230000  1.0 -0.1676983114
C  C326  1  0.99660000  0.77780000  0.78360000  1.0 0.049410779
C  C327  1  0.02430000  0.81670000  0.77010000  1.0 -0.1518142197
C  C328  1  0.05200000  0.80970000  0.73840000  1.0 0.1108299682
C  C329  1  0.03030000  0.73040000  0.74280000  1.0 0.0599617613
C  C330  1  0.00210000  0.73600000  0.77140000  1.0 -0.1223250117
C  C331  1  0.43400000  0.55940000  0.72580000  1.0 0.0412589536
C  C332  1  0.53100000  0.56140000  0.71980000  1.0 -0.1114217045
C  C333  1  0.56200000  0.56370000  0.69110000  1.0 -0.0793537469
C  C334  1  0.49600000  0.56400000  0.66850000  1.0 -0.071893968
C  C335  1  0.39900000  0.56200000  0.67450000  1.0 -0.098741092
C  C336  1  0.36800000  0.55970000  0.70320000  1.0 -0.1396279297
I  I1  1  0.55778000  0.49818000  0.40297000  1.0 -0.3016261917
I  I2  1  0.81822000  0.56960000  0.44103000  1.0 -0.3923648421
I  I3  1  0.76780000  0.56611000  0.62522000  1.0 -0.4540523805
I  I4  1  0.78925000  0.50409000  0.53642000  1.0 -0.4540523805
I  I5  1  0.79594000  0.70330000  0.69503000  1.0 -0.4716853399
I  I6  1  0.62308000  0.82304000  0.67192000  1.0 -0.2801437762
I  I7  1  0.83200000  0.54770000  0.37040000  1.0 0.0182713374
I  I8  1  0.85400000  0.55860000  0.30990000  1.0 0.0297675485
I  I9  1  0.74160000  0.87230000  0.71798000  1.0 -0.0793537469
I  I10  1  0.84750000  0.92100000  0.76030000  1.0 0.4292814869
I  I11  1  0.72260000  0.49480000  0.36090000  1.0 0.0412589536
I  I12  1  0.87600000  0.49180000  0.32180000  1.0 0.0182713374
I  I13  1  0.44222000  0.00182000  0.90297000  1.0 -0.3016261917
I  I14  1  0.18178000  0.93040000  0.94103000  1.0 -0.3923648421
I  I15  1  0.23220000  0.93389000  0.12522000  1.0 -0.4540523805
I  I16  1  0.21075000  0.99591000  0.03642000  1.0 -0.4540523805
I  I17  1  0.20406000  0.79670000  0.19503000  1.0 -0.4716853399
I  I18  1  0.37692000  0.67696000  0.17192000  1.0 -0.2801437762
I  I19  1  0.16800000  0.95230000  0.87040000  1.0 0.0182713374
I  I20  1  0.14600000  0.94140000  0.80990000  1.0 0.0297675485
I  I21  1  0.25840000  0.62770000  0.21798000  1.0 -0.0793537469
I  I22  1  0.15250000  0.57900000  0.26030000  1.0 0.4292814869
I  I23  1  0.27740000  0.00520000  0.86090000  1.0 0.0412589536
I  I24  1  0.12400000  0.00820000  0.82180000  1.0 0.0182713374
I  I25  1  0.05778000  0.50182000  0.09703000  1.0 -0.3016261917
I  I26  1  0.31822000  0.43040000  0.05897000  1.0 -0.3923648421
I  I27  1  0.26780000  0.43389000  0.87478000  1.0 -0.4540523805
I  I28  1  0.28925000  0.49591000  0.96358000  1.0 -0.4540523805
I  I29  1  0.29594000  0.29670000  0.80497000  1.0 -0.4716853399
I  I30  1  0.12308000  0.17696000  0.82808000  1.0 -0.2801437762
I  I31  1  0.33200000  0.45230000  0.12960000  1.0 0.0182713374
I  I32  1  0.35400000  0.44140000  0.19010000  1.0 0.0297675485
I  I33  1  0.24160000  0.12770000  0.78202000  1.0 -0.071893968
I  I34  1  0.34750000  0.07900000  0.73970000  1.0 0.4292814869
I  I35  1  0.22260000  0.50520000  0.13910000  1.0 0.0412589536
I  I36  1  0.37600000  0.50820000  0.17820000  1.0 0.0182713374
I  I37  1  0.94222000  0.99818000  0.59703000  1.0 -0.3016261917
I  I38  1  0.68178000  0.06960000  0.55897000  1.0 -0.3923648421
I  I39  1  0.73220000  0.06611000  0.37478000  1.0 -0.4540523805
I  I40  1  0.71075000  0.00409000  0.46358000  1.0 -0.4540523805
I  I41  1  0.70406000  0.20330000  0.30497000  1.0 -0.4716853399
I  I42  1  0.87692000  0.32304000  0.32808000  1.0 -0.2801437762
I  I43  1  0.66800000  0.04770000  0.62960000  1.0 0.0182713374
I  I44  1  0.64600000  0.05860000  0.69010000  1.0 0.0297675485
I  I45  1  0.75840000  0.37230000  0.28202000  1.0 -0.0793537469
I  I46  1  0.65250000  0.42100000  0.23970000  1.0 0.4292814869
I  I47  1  0.77740000  0.99480000  0.63910000  1.0 0.0412589536
I  I48  1  0.62400000  0.99180000  0.67820000  1.0 0.0182713374
I  I49  1  0.44222000  0.50182000  0.59703000  1.0 -0.3016261917
I  I50  1  0.18178000  0.43040000  0.55897000  1.0 -0.3923648421
I  I51  1  0.23220000  0.43389000  0.37478000  1.0 -0.4540523805
I  I52  1  0.21075000  0.49591000  0.46358000  1.0 -0.4540523805
I  I53  1  0.20406000  0.29670000  0.30497000  1.0 -0.4716853399
I  I54  1  0.37692000  0.17696000  0.32808000  1.0 -0.2801437762
I  I55  1  0.16800000  0.45230000  0.62960000  1.0 0.0182713374
I  I56  1  0.14600000  0.44140000  0.69010000  1.0 0.0297675485
I  I57  1  0.25840000  0.12770000  0.28202000  1.0 -0.0793537469
I  I58  1  0.15250000  0.07900000  0.23970000  1.0 0.4292814869
I  I59  1  0.27740000  0.50520000  0.63910000  1.0 0.0412589536
I  I60  1  0.12400000  0.50820000  0.67820000  1.0 0.0182713374
I  I61  1  0.55778000  0.99818000  0.09703000  1.0 -0.3016261917
I  I62  1  0.81822000  0.06960000  0.05897000  1.0 -0.3923648421
I  I63  1  0.76780000  0.06611000  0.87478000  1.0 -0.4540523805
I  I64  1  0.78925000  0.00409000  0.96358000  1.0 -0.4540523805
I  I65  1  0.79594000  0.20330000  0.80497000  1.0 -0.4716853399
I  I66  1  0.62308000  0.32304000  0.82808000  1.0 -0.2801437762
I  I67  1  0.83200000  0.04770000  0.12960000  1.0 0.0182713374
I  I68  1  0.85400000  0.05860000  0.19010000  1.0 0.0297675485
I  I69  1  0.74160000  0.37230000  0.78202000  1.0 -0.0793537469
I  I70  1  0.84750000  0.42100000  0.73970000  1.0 0.4292814869
I  I71  1  0.72260000  0.99480000  0.13910000  1.0 0.0412589536
I  I72  1  0.87600000  0.99180000  0.17820000  1.0 0.0182713374
I  I73  1  0.94222000  0.49818000  0.90297000  1.0 -0.3016261917
I  I74  1  0.68178000  0.56960000  0.94103000  1.0 -0.3923648421
I  I75  1  0.73220000  0.56611000  0.12522000  1.0 -0.4540523805
I  I76  1  0.71075000  0.50409000  0.03642000  1.0 -0.4540523805
I  I77  1  0.70406000  0.70330000  0.19503000  1.0 -0.4716853399
I  I78  1  0.87692000  0.82304000  0.17192000  1.0 -0.2801437762
I  I79  1  0.66800000  0.54770000  0.87040000  1.0 0.0182713374
I  I80  1  0.64600000  0.55860000  0.80990000  1.0 0.0297675485
I  I81  1  0.75840000  0.87230000  0.21798000  1.0 -0.0793537469
I  I82  1  0.65250000  0.92100000  0.26030000  1.0 0.4292814869
I  I83  1  0.77740000  0.49480000  0.86090000  1.0 0.0412589536
I  I84  1  0.62400000  0.49180000  0.82180000  1.0 0.0182713374
I  I85  1  0.05778000  0.00182000  0.40297000  1.0 -0.3016261917
I  I86  1  0.31822000  0.93040000  0.44103000  1.0 -0.3923648421
I  I87  1  0.26780000  0.93389000  0.62522000  1.0 -0.4540523805
I  I88  1  0.28925000  0.99591000  0.53642000  1.0 -0.4540523805
I  I89  1  0.29594000  0.79670000  0.69503000  1.0 -0.4716853399
I  I90  1  0.12308000  0.67696000  0.67192000  1.0 -0.2801437762
I  I91  1  0.33200000  0.95230000  0.37040000  1.0 0.0182713374
I  I92  1  0.35400000  0.94140000  0.30990000  1.0 0.0297675485
I  I93  1  0.24160000  0.62770000  0.71798000  1.0 -0.0793537469
I  I94  1  0.34750000  0.57900000  0.76030000  1.0 0.4292814869
I  I95  1  0.22260000  0.00520000  0.36090000  1.0 0.0412589536
I  I96  1  0.37600000  0.00820000  0.32180000  1.0 0.0182713374
N  N1  1  0.57060000  0.57030000  0.46800000  1.0 -0.2218004178
N  N2  1  0.32390000  0.58850000  0.54750000  1.0 -0.3623223018
N  N3  1  0.31830000  0.62130000  0.59610000  1.0 -0.3740052257
N  N4  1  0.45940000  0.62170000  0.56850000  1.0 -0.4123492178
N  N5  1  0.99520000  0.55050000  0.58120000  1.0 -0.1870951187
N  N6  1  0.55200000  0.69680000  0.66120000  1.0 -0.1832415517
N  N7  1  0.39360000  0.87480000  0.90790000  1.0 -0.1832415517
N  N8  1  0.42090000  0.71260000  0.87240000  1.0 -0.3996565986
N  N9  1  0.45920000  0.67600000  0.82660000  1.0 -0.417656475
N  N10  1  0.45730000  0.75740000  0.83010000  1.0 -0.3996565986
N  N11  1  0.39200000  0.54380000  0.89390000  1.0 -0.1832415517
N  N12  1  0.56020000  0.73160000  0.72650000  1.0 -0.1963416945
N  N13  1  0.90400000  0.94280000  0.75310000  1.0 0.1108299682
N  N14  1  0.42940000  0.92970000  0.96800000  1.0 -0.2218004178
N  N15  1  0.67610000  0.91150000  0.04750000  1.0 -0.3623223018
N  N16  1  0.68170000  0.87870000  0.09610000  1.0 -0.3740052257
N  N17  1  0.54060000  0.87830000  0.06850000  1.0 -0.4123492178
N  N18  1  0.00480000  0.94950000  0.08120000  1.0 -0.1870951187
N  N19  1  0.44800000  0.80320000  0.16120000  1.0 -0.1832415517
N  N20  1  0.60640000  0.62520000  0.40790000  1.0 -0.1832415517
N  N21  1  0.57910000  0.78740000  0.37240000  1.0 -0.3996565986
N  N22  1  0.54080000  0.82400000  0.32660000  1.0 -0.417656475
N  N23  1  0.54270000  0.74260000  0.33010000  1.0 -0.3996565986
N  N24  1  0.60800000  0.95620000  0.39390000  1.0 -0.1832415517
N  N25  1  0.43980000  0.76840000  0.22650000  1.0 -0.1963416945
N  N26  1  0.09600000  0.55720000  0.25310000  1.0 0.1108299682
N  N27  1  0.07060000  0.42970000  0.03200000  1.0 -0.2218004178
N  N28  1  0.82390000  0.41150000  0.95250000  1.0 -0.3623223018
N  N29  1  0.81830000  0.37870000  0.90390000  1.0 -0.3740052257
N  N30  1  0.95940000  0.37830000  0.93150000  1.0 -0.4123492178
N  N31  1  0.49520000  0.44950000  0.91880000  1.0 -0.1870951187
N  N32  1  0.05200000  0.30320000  0.83880000  1.0 -0.1832415517
N  N33  1  0.89360000  0.12520000  0.59210000  1.0 -0.1832415517
N  N34  1  0.92090000  0.28740000  0.62760000  1.0 -0.3996565986
N  N35  1  0.95920000  0.32400000  0.67340000  1.0 -0.417656475
N  N36  1  0.95730000  0.24260000  0.66990000  1.0 -0.3996565986
N  N37  1  0.89200000  0.45620000  0.60610000  1.0 -0.1832415517
N  N38  1  0.06020000  0.26840000  0.77350000  1.0 -0.1963416945
N  N39  1  0.40400000  0.05720000  0.74690000  1.0 0.1108299682
N  N40  1  0.92940000  0.07030000  0.53200000  1.0 -0.2218004178
N  N41  1  0.17610000  0.08850000  0.45250000  1.0 -0.3623223018
N  N42  1  0.18170000  0.12130000  0.40390000  1.0 -0.3740052257
N  N43  1  0.04060000  0.12170000  0.43150000  1.0 -0.4123492178
N  N44  1  0.50480000  0.05050000  0.41880000  1.0 -0.1870951187
N  N45  1  0.94800000  0.19680000  0.33880000  1.0 -0.1832415517
N  N46  1  0.10640000  0.37480000  0.09210000  1.0 -0.1870951187
N  N47  1  0.07910000  0.21260000  0.12760000  1.0 -0.3996565986
N  N48  1  0.04080000  0.17600000  0.17340000  1.0 -0.417656475
N  N49  1  0.04270000  0.25740000  0.16990000  1.0 -0.3996565986
N  N50  1  0.10800000  0.04380000  0.10610000  1.0 -0.1832415517
N  N51  1  0.93980000  0.23160000  0.27350000  1.0 -0.1963416945
N  N52  1  0.59600000  0.44280000  0.24690000  1.0 0.1108299682
N  N53  1  0.42940000  0.42970000  0.53200000  1.0 -0.2218004178
N  N54  1  0.67610000  0.41150000  0.45250000  1.0 -0.3623223018
N  N55  1  0.68170000  0.37870000  0.40390000  1.0 -0.3740052257
N  N56  1  0.54060000  0.37830000  0.43150000  1.0 -0.4123492178
N  N57  1  0.00480000  0.44950000  0.41880000  1.0 -0.1870951187
N  N58  1  0.44800000  0.30320000  0.33880000  1.0 -0.1832415517
N  N59  1  0.60640000  0.12520000  0.09210000  1.0 -0.1870951187
N  N60  1  0.57910000  0.28740000  0.12760000  1.0 -0.3996565986
N  N61  1  0.54080000  0.32400000  0.17340000  1.0 -0.417656475
N  N62  1  0.54270000  0.24260000  0.16990000  1.0 -0.3996565986
N  N63  1  0.60800000  0.45620000  0.10610000  1.0 -0.1832415517
N  N64  1  0.43980000  0.26840000  0.27350000  1.0 -0.1963416945
N  N65  1  0.09600000  0.05720000  0.24690000  1.0 0.1108299682
N  N66  1  0.57060000  0.07030000  0.03200000  1.0 -0.2218004178
N  N67  1  0.32390000  0.08850000  0.95250000  1.0 -0.3623223018
N  N68  1  0.31830000  0.12130000  0.90390000  1.0 -0.3740052257
N  N69  1  0.45940000  0.12170000  0.93150000  1.0 -0.4123492178
N  N70  1  0.99520000  0.05050000  0.91880000  1.0 -0.1870951187
N  N71  1  0.55200000  0.19680000  0.83880000  1.0 -0.1832415517
N  N72  1  0.39360000  0.37480000  0.59210000  1.0 -0.1832415517
N  N73  1  0.42090000  0.21260000  0.62760000  1.0 -0.3996565986
N  N74  1  0.45920000  0.17600000  0.67340000  1.0 -0.417656475
N  N75  1  0.45730000  0.25740000  0.66990000  1.0 -0.3996565986
N  N76  1  0.39200000  0.04380000  0.60610000  1.0 -0.1832415517
N  N77  1  0.56020000  0.23160000  0.77350000  1.0 -0.1963416945
N  N78  1  0.90400000  0.44280000  0.74690000  1.0 0.1108299682
N  N79  1  0.92940000  0.57030000  0.96800000  1.0 -0.2218004178
N  N80  1  0.17610000  0.58850000  0.04750000  1.0 -0.3623223018
N  N81  1  0.18170000  0.62130000  0.09610000  1.0 -0.3740052257
N  N82  1  0.04060000  0.62170000  0.06850000  1.0 -0.4123492178
N  N83  1  0.50480000  0.55050000  0.08120000  1.0 -0.1870951187
N  N84  1  0.94800000  0.69680000  0.16120000  1.0 -0.1832415517
N  N85  1  0.10640000  0.87480000  0.40790000  1.0 -0.1832415517
N  N86  1  0.07910000  0.71260000  0.37240000  1.0 -0.3996565986
N  N87  1  0.04080000  0.67600000  0.32660000  1.0 -0.417656475
N  N88  1  0.04270000  0.75740000  0.33010000  1.0 -0.3996565986
N  N89  1  0.10800000  0.54380000  0.39390000  1.0 -0.1832415517
N  N90  1  0.93980000  0.73160000  0.22650000  1.0 -0.1963416945
N  N91  1  0.59600000  0.94280000  0.25310000  1.0 0.1108299682
N  N92  1  0.07060000  0.92970000  0.46800000  1.0 -0.2218004178
N  N93  1  0.82390000  0.91150000  0.54750000  1.0 -0.3623223018
N  N94  1  0.81830000  0.87870000  0.59610000  1.0 -0.3740052257
N  N95  1  0.95940000  0.87830000  0.56850000  1.0 -0.4123492178
N  N96  1  0.49520000  0.94950000  0.58120000  1.0 -0.1870951187
N  N97  1  0.05200000  0.80320000  0.66120000  1.0 -0.1832415517
N  N98  1  0.89360000  0.62520000  0.90790000  1.0 -0.1832415517
N  N99  1  0.92090000  0.78740000  0.87240000  1.0 -0.3996565986
N  N100  1  0.95920000  0.82400000  0.82660000  1.0 -0.417656475
N  N101  1  0.95730000  0.74260000  0.83010000  1.0 -0.3996565986
N  N102  1  0.89200000  0.95620000  0.89390000  1.0 -0.1832415517
N  N103  1  0.06020000  0.76840000  0.72650000  1.0 -0.1963416945
N  N104  1  0.40400000  0.55720000  0.75310000  1.0 0.1108299682
O  O1  1  0.81500000  0.94460000  0.75840000  1.0 -0.2722537976
O  O2  1  0.96700000  0.94310000  0.77350000  1.0 -0.3016261917
O  O3  1  0.18500000  0.55540000  0.25840000  1.0 -0.2722537976
O  O4  1  0.03300000  0.55690000  0.27350000  1.0 -0.3016261917
O  O5  1  0.31500000  0.05540000  0.74160000  1.0 -0.2722537976
O  O6  1  0.46700000  0.05690000  0.72650000  1.0 -0.3016261917
O  O7  1  0.68500000  0.44460000  0.24160000  1.0 -0.2722537976
O  O8  1  0.53300000  0.44310000  0.22650000  1.0 -0.3016261917
O  O9  1  0.18500000  0.05540000  0.24160000  1.0 -0.2722537976
O  O10  1  0.03300000  0.05690000  0.22650000  1.0 -0.3016261917
O  O11  1  0.81500000  0.44460000  0.74160000  1.0 -0.2722537976
O  O12  1  0.96700000  0.44310000  0.72650000  1.0 -0.3016261917
O  O13  1  0.68500000  0.94460000  0.25840000  1.0 -0.2722537976
O  O14  1  0.53300000  0.94310000  0.27350000  1.0 -0.3016261917
O  O15  1  0.31500000  0.55540000  0.75840000  1.0 -0.2722537976
O  O16  1  0.46700000  0.55690000  0.77350000  1.0 -0.3016261917
