# DDEC6 charges by PACMAN v1.1 (https://github.com/mtap-research/PACMAN-charge/)
data_KEVWUG_ASR_pacman
_symmetry_space_group_name_H-M   'P 1'
_cell_length_a   14.06280000
_cell_length_b   29.17900000
_cell_length_c   46.11400000
_cell_angle_alpha   90.00000000
_cell_angle_beta   90.00000000
_cell_angle_gamma   90.00000000
_symmetry_Int_Tables_number   1
_chemical_formula_structural   Zn3H29C42I12N13O2
_chemical_formula_sum   'Zn24 H232 C336 I96 N104 O16'
_cell_volume   18922.34687750
_cell_formula_units_Z   8
loop_
 _symmetry_equiv_pos_site_id
 _symmetry_equiv_pos_as_xyz
  1  'x, y, z'
loop_
 _atom_site_type_symbol
 _atom_site_label
 _atom_site_symmetry_multiplicity
 _atom_site_fract_x
 _atom_site_fract_y
 _atom_site_fract_z
 _atom_site_occupancy
 _atom_site_charge
Zn  Zn1  1  0.63780000  0.56322000  0.43028000  1.0 0.4423896164
Zn  Zn2  1  0.85807000  0.51960000  0.58680000  1.0 0.4423896164
Zn  Zn3  1  0.63053000  0.73925000  0.68880000  1.0 0.4571748819
Zn  Zn4  1  0.36220000  0.93678000  0.93028000  1.0 0.4423896164
Zn  Zn5  1  0.14193000  0.98040000  0.08680000  1.0 0.4423896164
Zn  Zn6  1  0.36947000  0.76075000  0.18880000  1.0 0.4571748819
Zn  Zn7  1  0.13780000  0.43678000  0.06972000  1.0 0.4423896164
Zn  Zn8  1  0.35807000  0.48040000  0.91320000  1.0 0.4423896164
Zn  Zn9  1  0.13053000  0.26075000  0.81120000  1.0 0.4571748819
Zn  Zn10  1  0.86220000  0.06322000  0.56972000  1.0 0.4423896164
Zn  Zn11  1  0.64193000  0.01960000  0.41320000  1.0 0.4423896164
Zn  Zn12  1  0.86947000  0.23925000  0.31120000  1.0 0.4571748819
Zn  Zn13  1  0.36220000  0.43678000  0.56972000  1.0 0.4423896164
Zn  Zn14  1  0.14193000  0.48040000  0.41320000  1.0 0.4423896164
Zn  Zn15  1  0.36947000  0.26075000  0.31120000  1.0 0.4571748819
Zn  Zn16  1  0.63780000  0.06322000  0.06972000  1.0 0.4423896164
Zn  Zn17  1  0.85807000  0.01960000  0.91320000  1.0 0.4423896164
Zn  Zn18  1  0.63053000  0.23925000  0.81120000  1.0 0.4571748819
Zn  Zn19  1  0.86220000  0.56322000  0.93028000  1.0 0.4423896164
Zn  Zn20  1  0.64193000  0.51960000  0.08680000  1.0 0.4423896164
Zn  Zn21  1  0.86947000  0.73925000  0.18880000  1.0 0.4571748819
Zn  Zn22  1  0.13780000  0.93678000  0.43028000  1.0 0.4423896164
Zn  Zn23  1  0.35807000  0.98040000  0.58680000  1.0 0.4423896164
Zn  Zn24  1  0.13053000  0.76075000  0.68880000  1.0 0.4571748819
H  H1  1  0.44950000  0.54510000  0.45630000  1.0 0.099036789
H  H2  1  0.35430000  0.56460000  0.49600000  1.0 0.1298402515
H  H3  1  0.60310000  0.59990000  0.53490000  1.0 0.1384956713
H  H4  1  0.67050000  0.60500000  0.49200000  1.0 0.1114018856
H  H5  1  0.16830000  0.54610000  0.53610000  1.0 0.1384956713
H  H6  1  0.01270000  0.52560000  0.54180000  1.0 0.1114018856
H  H7  1  0.00010000  0.57870000  0.61770000  1.0 0.1114018856
H  H8  1  0.15700000  0.60010000  0.61690000  1.0 0.1298402515
H  H9  1  0.34710000  0.67740000  0.63960000  1.0 0.1384956713
H  H10  1  0.43020000  0.70460000  0.67630000  1.0 0.1199303269
H  H11  1  0.66770000  0.67650000  0.64000000  1.0 0.1114018856
H  H12  1  0.58700000  0.63780000  0.60370000  1.0 0.1384956713
H  H13  1  0.37710000  0.83470000  0.94040000  1.0 0.099036789
H  H14  1  0.39230000  0.76490000  0.91480000  1.0 0.1298402515
H  H15  1  0.45170000  0.83970000  0.84320000  1.0 0.1298402515
H  H16  1  0.43250000  0.90580000  0.87150000  1.0 0.099036789
H  H17  1  0.42650000  0.64960000  0.91160000  1.0 0.1298402515
H  H18  1  0.39460000  0.57660000  0.92810000  1.0 0.1114018856
H  H19  1  0.40000000  0.51820000  0.85610000  1.0 0.099036789
H  H20  1  0.43330000  0.58860000  0.83270000  1.0 0.1298402515
H  H21  1  0.52170000  0.65530000  0.77840000  1.0 0.1298402515
H  H22  1  0.57070000  0.66550000  0.72760000  1.0 0.099036789
H  H23  1  0.52970000  0.79850000  0.73410000  1.0 0.1114018856
H  H24  1  0.48380000  0.79020000  0.78230000  1.0 0.1298402515
H  H25  1  0.07170000  0.93250000  0.73330000  1.0 0.1199303269
H  H26  1  0.11870000  0.93110000  0.68510000  1.0 0.1199303269
H  H27  1  0.00620000  0.93780000  0.64860000  1.0 0.099036789
H  H28  1  0.84660000  0.94590000  0.66020000  1.0 0.1114018856
H  H29  1  0.79950000  0.94720000  0.70840000  1.0 0.090606006
H  H30  1  0.55050000  0.95490000  0.95630000  1.0 0.099036789
H  H31  1  0.64570000  0.93540000  0.99600000  1.0 0.1298402515
H  H32  1  0.39690000  0.90010000  0.03490000  1.0 0.1384956713
H  H33  1  0.32950000  0.89500000  0.99200000  1.0 0.1114018856
H  H34  1  0.83170000  0.95390000  0.03610000  1.0 0.1384956713
H  H35  1  0.98730000  0.97440000  0.04180000  1.0 0.1114018856
H  H36  1  0.99990000  0.92130000  0.11770000  1.0 0.1114018856
H  H37  1  0.84300000  0.89990000  0.11690000  1.0 0.1298402515
H  H38  1  0.65290000  0.82260000  0.13960000  1.0 0.1384956713
H  H39  1  0.56980000  0.79540000  0.17630000  1.0 0.1114018856
H  H40  1  0.33230000  0.82350000  0.14000000  1.0 0.1114018856
H  H41  1  0.41300000  0.86220000  0.10370000  1.0 0.1384956713
H  H42  1  0.62290000  0.66530000  0.44040000  1.0 0.099036789
H  H43  1  0.60770000  0.73510000  0.41480000  1.0 0.1298402515
H  H44  1  0.54830000  0.66030000  0.34320000  1.0 0.1298402515
H  H45  1  0.56750000  0.59420000  0.37150000  1.0 0.099036789
H  H46  1  0.57350000  0.85040000  0.41160000  1.0 0.1298402515
H  H47  1  0.60540000  0.92340000  0.42810000  1.0 0.1114018856
H  H48  1  0.60000000  0.98180000  0.35610000  1.0 0.099036789
H  H49  1  0.56670000  0.91140000  0.33270000  1.0 0.1298402515
H  H50  1  0.47830000  0.84470000  0.27840000  1.0 0.1298402515
H  H51  1  0.42930000  0.83450000  0.22760000  1.0 0.099036789
H  H52  1  0.47030000  0.70150000  0.23410000  1.0 0.1114018856
H  H53  1  0.51620000  0.70980000  0.28230000  1.0 0.1298402515
H  H54  1  0.92830000  0.56750000  0.23330000  1.0 0.1199303269
H  H55  1  0.88130000  0.56890000  0.18510000  1.0 0.1199303269
H  H56  1  0.99380000  0.56220000  0.14860000  1.0 0.099036789
H  H57  1  0.15340000  0.55410000  0.16020000  1.0 0.1114018856
H  H58  1  0.20050000  0.55280000  0.20840000  1.0 0.090606006
H  H59  1  0.94950000  0.45490000  0.04370000  1.0 0.099036789
H  H60  1  0.85430000  0.43540000  0.00400000  1.0 0.1298402515
H  H61  1  0.10310000  0.40010000  0.96510000  1.0 0.1384956713
H  H62  1  0.17050000  0.39500000  0.00800000  1.0 0.1114018856
H  H63  1  0.66830000  0.45390000  0.96390000  1.0 0.1384956713
H  H64  1  0.51270000  0.47440000  0.95820000  1.0 0.1114018856
H  H65  1  0.50010000  0.42130000  0.88230000  1.0 0.1114018856
H  H66  1  0.65700000  0.39990000  0.88310000  1.0 0.1298402515
H  H67  1  0.84710000  0.32260000  0.86040000  1.0 0.1384956713
H  H68  1  0.93020000  0.29540000  0.82370000  1.0 0.1114018856
H  H69  1  0.16770000  0.32350000  0.86000000  1.0 0.1114018856
H  H70  1  0.08700000  0.36220000  0.89630000  1.0 0.1384956713
H  H71  1  0.87710000  0.16530000  0.55960000  1.0 0.099036789
H  H72  1  0.89230000  0.23510000  0.58520000  1.0 0.1298402515
H  H73  1  0.95170000  0.16030000  0.65680000  1.0 0.1298402515
H  H74  1  0.93250000  0.09420000  0.62850000  1.0 0.099036789
H  H75  1  0.92650000  0.35040000  0.58840000  1.0 0.1298402515
H  H76  1  0.89460000  0.42340000  0.57190000  1.0 0.1114018856
H  H77  1  0.90000000  0.48180000  0.64390000  1.0 0.099036789
H  H78  1  0.93330000  0.41140000  0.66730000  1.0 0.1298402515
H  H79  1  0.02170000  0.34470000  0.72160000  1.0 0.1298402515
H  H80  1  0.07070000  0.33450000  0.77240000  1.0 0.099036789
H  H81  1  0.02970000  0.20150000  0.76590000  1.0 0.1114018856
H  H82  1  0.98380000  0.20980000  0.71770000  1.0 0.1298402515
H  H83  1  0.57170000  0.06750000  0.76670000  1.0 0.1199303269
H  H84  1  0.61870000  0.06890000  0.81490000  1.0 0.1199303269
H  H85  1  0.50620000  0.06220000  0.85140000  1.0 0.099036789
H  H86  1  0.34660000  0.05410000  0.83980000  1.0 0.1114018856
H  H87  1  0.29950000  0.05280000  0.79160000  1.0 0.090606006
H  H88  1  0.05050000  0.04510000  0.54370000  1.0 0.099036789
H  H89  1  0.14570000  0.06460000  0.50400000  1.0 0.1298402515
H  H90  1  0.89690000  0.09990000  0.46510000  1.0 0.1384956713
H  H91  1  0.82950000  0.10500000  0.50800000  1.0 0.1114018856
H  H92  1  0.33170000  0.04610000  0.46390000  1.0 0.1384956713
H  H93  1  0.48730000  0.02560000  0.45820000  1.0 0.1114018856
H  H94  1  0.49990000  0.07870000  0.38230000  1.0 0.1114018856
H  H95  1  0.34300000  0.10010000  0.38310000  1.0 0.1298402515
H  H96  1  0.15290000  0.17740000  0.36040000  1.0 0.1384956713
H  H97  1  0.06980000  0.20460000  0.32370000  1.0 0.1199303269
H  H98  1  0.83230000  0.17650000  0.36000000  1.0 0.1114018856
H  H99  1  0.91300000  0.13780000  0.39630000  1.0 0.1384956713
H  H100  1  0.12290000  0.33470000  0.05960000  1.0 0.099036789
H  H101  1  0.10770000  0.26490000  0.08520000  1.0 0.1298402515
H  H102  1  0.04830000  0.33970000  0.15680000  1.0 0.1298402515
H  H103  1  0.06750000  0.40580000  0.12850000  1.0 0.099036789
H  H104  1  0.07350000  0.14960000  0.08840000  1.0 0.1298402515
H  H105  1  0.10540000  0.07660000  0.07190000  1.0 0.1114018856
H  H106  1  0.10000000  0.01820000  0.14390000  1.0 0.099036789
H  H107  1  0.06670000  0.08860000  0.16730000  1.0 0.1298402515
H  H108  1  0.97830000  0.15530000  0.22160000  1.0 0.1298402515
H  H109  1  0.92930000  0.16550000  0.27240000  1.0 0.099036789
H  H110  1  0.97030000  0.29850000  0.26590000  1.0 0.1114018856
H  H111  1  0.01620000  0.29020000  0.21770000  1.0 0.1298402515
H  H112  1  0.42830000  0.43250000  0.26670000  1.0 0.1199303269
H  H113  1  0.38130000  0.43110000  0.31490000  1.0 0.1199303269
H  H114  1  0.49380000  0.43780000  0.35140000  1.0 0.099036789
H  H115  1  0.65340000  0.44590000  0.33980000  1.0 0.1114018856
H  H116  1  0.70050000  0.44720000  0.29160000  1.0 0.090606006
H  H117  1  0.55050000  0.45490000  0.54370000  1.0 0.099036789
H  H118  1  0.64570000  0.43540000  0.50400000  1.0 0.1298402515
H  H119  1  0.39690000  0.40010000  0.46510000  1.0 0.1384956713
H  H120  1  0.32950000  0.39500000  0.50800000  1.0 0.1114018856
H  H121  1  0.83170000  0.45390000  0.46390000  1.0 0.1384956713
H  H122  1  0.98730000  0.47440000  0.45820000  1.0 0.1114018856
H  H123  1  0.99990000  0.42130000  0.38230000  1.0 0.1114018856
H  H124  1  0.84300000  0.39990000  0.38310000  1.0 0.1298402515
H  H125  1  0.65290000  0.32260000  0.36040000  1.0 0.1384956713
H  H126  1  0.56980000  0.29540000  0.32370000  1.0 0.1199303269
H  H127  1  0.33230000  0.32350000  0.36000000  1.0 0.1114018856
H  H128  1  0.41300000  0.36220000  0.39630000  1.0 0.1384956713
H  H129  1  0.62290000  0.16530000  0.05960000  1.0 0.099036789
H  H130  1  0.60770000  0.23510000  0.08520000  1.0 0.1298402515
H  H131  1  0.54830000  0.16030000  0.15680000  1.0 0.1298402515
H  H132  1  0.56750000  0.09420000  0.12850000  1.0 0.099036789
H  H133  1  0.57350000  0.35040000  0.08840000  1.0 0.1298402515
H  H134  1  0.60540000  0.42340000  0.07190000  1.0 0.1114018856
H  H135  1  0.60000000  0.48180000  0.14390000  1.0 0.099036789
H  H136  1  0.56670000  0.41140000  0.16730000  1.0 0.1298402515
H  H137  1  0.47830000  0.34470000  0.22160000  1.0 0.1298402515
H  H138  1  0.42930000  0.33450000  0.27240000  1.0 0.099036789
H  H139  1  0.47030000  0.20150000  0.26590000  1.0 0.1114018856
H  H140  1  0.51620000  0.20980000  0.21770000  1.0 0.1298402515
H  H141  1  0.92830000  0.06750000  0.26670000  1.0 0.1199303269
H  H142  1  0.88130000  0.06890000  0.31490000  1.0 0.1199303269
H  H143  1  0.99380000  0.06220000  0.35140000  1.0 0.099036789
H  H144  1  0.15340000  0.05410000  0.33980000  1.0 0.1114018856
H  H145  1  0.20050000  0.05280000  0.29160000  1.0 0.090606006
H  H146  1  0.44950000  0.04510000  0.04370000  1.0 0.099036789
H  H147  1  0.35430000  0.06460000  0.00400000  1.0 0.1298402515
H  H148  1  0.60310000  0.09990000  0.96510000  1.0 0.1384956713
H  H149  1  0.67050000  0.10500000  0.00800000  1.0 0.1114018856
H  H150  1  0.16830000  0.04610000  0.96390000  1.0 0.1384956713
H  H151  1  0.01270000  0.02560000  0.95820000  1.0 0.1114018856
H  H152  1  0.00010000  0.07870000  0.88230000  1.0 0.1114018856
H  H153  1  0.15700000  0.10010000  0.88310000  1.0 0.1298402515
H  H154  1  0.34710000  0.17740000  0.86040000  1.0 0.1384956713
H  H155  1  0.43020000  0.20460000  0.82370000  1.0 0.1114018856
H  H156  1  0.66770000  0.17650000  0.86000000  1.0 0.1114018856
H  H157  1  0.58700000  0.13780000  0.89630000  1.0 0.1384956713
H  H158  1  0.37710000  0.33470000  0.55960000  1.0 0.099036789
H  H159  1  0.39230000  0.26490000  0.58520000  1.0 0.1298402515
H  H160  1  0.45170000  0.33970000  0.65680000  1.0 0.1298402515
H  H161  1  0.43250000  0.40580000  0.62850000  1.0 0.099036789
H  H162  1  0.42650000  0.14960000  0.58840000  1.0 0.1298402515
H  H163  1  0.39460000  0.07660000  0.57190000  1.0 0.1114018856
H  H164  1  0.40000000  0.01820000  0.64390000  1.0 0.099036789
H  H165  1  0.43330000  0.08860000  0.66730000  1.0 0.1298402515
H  H166  1  0.52170000  0.15530000  0.72160000  1.0 0.1298402515
H  H167  1  0.57070000  0.16550000  0.77240000  1.0 0.099036789
H  H168  1  0.52970000  0.29850000  0.76590000  1.0 0.1114018856
H  H169  1  0.48380000  0.29020000  0.71770000  1.0 0.1298402515
H  H170  1  0.07170000  0.43250000  0.76670000  1.0 0.1199303269
H  H171  1  0.11870000  0.43110000  0.81490000  1.0 0.1199303269
H  H172  1  0.00620000  0.43780000  0.85140000  1.0 0.099036789
H  H173  1  0.84660000  0.44590000  0.83980000  1.0 0.1114018856
H  H174  1  0.79950000  0.44720000  0.79160000  1.0 0.090606006
H  H175  1  0.05050000  0.54510000  0.95630000  1.0 0.099036789
H  H176  1  0.14570000  0.56460000  0.99600000  1.0 0.1298402515
H  H177  1  0.89690000  0.59990000  0.03490000  1.0 0.1384956713
H  H178  1  0.82950000  0.60500000  0.99200000  1.0 0.1114018856
H  H179  1  0.33170000  0.54610000  0.03610000  1.0 0.1384956713
H  H180  1  0.48730000  0.52560000  0.04180000  1.0 0.1114018856
H  H181  1  0.49990000  0.57870000  0.11770000  1.0 0.1114018856
H  H182  1  0.34300000  0.60010000  0.11690000  1.0 0.1298402515
H  H183  1  0.15290000  0.67740000  0.13960000  1.0 0.1384956713
H  H184  1  0.06980000  0.70460000  0.17630000  1.0 0.1114018856
H  H185  1  0.83230000  0.67650000  0.14000000  1.0 0.1114018856
H  H186  1  0.91300000  0.63780000  0.10370000  1.0 0.1384956713
H  H187  1  0.12290000  0.83470000  0.44040000  1.0 0.099036789
H  H188  1  0.10770000  0.76490000  0.41480000  1.0 0.1298402515
H  H189  1  0.04830000  0.83970000  0.34320000  1.0 0.1298402515
H  H190  1  0.06750000  0.90580000  0.37150000  1.0 0.099036789
H  H191  1  0.07350000  0.64960000  0.41160000  1.0 0.1298402515
H  H192  1  0.10540000  0.57660000  0.42810000  1.0 0.1114018856
H  H193  1  0.10000000  0.51820000  0.35610000  1.0 0.099036789
H  H194  1  0.06670000  0.58860000  0.33270000  1.0 0.1298402515
H  H195  1  0.97830000  0.65530000  0.27840000  1.0 0.1298402515
H  H196  1  0.92930000  0.66550000  0.22760000  1.0 0.099036789
H  H197  1  0.97030000  0.79850000  0.23410000  1.0 0.1114018856
H  H198  1  0.01620000  0.79020000  0.28230000  1.0 0.1298402515
H  H199  1  0.42830000  0.93250000  0.23330000  1.0 0.1199303269
H  H200  1  0.38130000  0.93110000  0.18510000  1.0 0.1199303269
H  H201  1  0.49380000  0.93780000  0.14860000  1.0 0.099036789
H  H202  1  0.65340000  0.94590000  0.16020000  1.0 0.1114018856
H  H203  1  0.70050000  0.94720000  0.20840000  1.0 0.090606006
H  H204  1  0.94950000  0.95490000  0.45630000  1.0 0.099036789
H  H205  1  0.85430000  0.93540000  0.49600000  1.0 0.1298402515
H  H206  1  0.10310000  0.90010000  0.53490000  1.0 0.1384956713
H  H207  1  0.17050000  0.89500000  0.49200000  1.0 0.1114018856
H  H208  1  0.66830000  0.95390000  0.53610000  1.0 0.1384956713
H  H209  1  0.51270000  0.97440000  0.54180000  1.0 0.1114018856
H  H210  1  0.50010000  0.92130000  0.61770000  1.0 0.1114018856
H  H211  1  0.65700000  0.89990000  0.61690000  1.0 0.1298402515
H  H212  1  0.84710000  0.82260000  0.63960000  1.0 0.1384956713
H  H213  1  0.93020000  0.79540000  0.67630000  1.0 0.1199303269
H  H214  1  0.16770000  0.82350000  0.64000000  1.0 0.1114018856
H  H215  1  0.08700000  0.86220000  0.60370000  1.0 0.1384956713
H  H216  1  0.87710000  0.66530000  0.94040000  1.0 0.099036789
H  H217  1  0.89230000  0.73510000  0.91480000  1.0 0.1298402515
H  H218  1  0.95170000  0.66030000  0.84320000  1.0 0.1298402515
H  H219  1  0.93250000  0.59420000  0.87150000  1.0 0.099036789
H  H220  1  0.92650000  0.85040000  0.91160000  1.0 0.1298402515
H  H221  1  0.89460000  0.92340000  0.92810000  1.0 0.1114018856
H  H222  1  0.90000000  0.98180000  0.85610000  1.0 0.099036789
H  H223  1  0.93330000  0.91140000  0.83270000  1.0 0.1298402515
H  H224  1  0.02170000  0.84470000  0.77840000  1.0 0.1298402515
H  H225  1  0.07070000  0.83450000  0.72760000  1.0 0.099036789
H  H226  1  0.02970000  0.70150000  0.73410000  1.0 0.1114018856
H  H227  1  0.98380000  0.70980000  0.78230000  1.0 0.1298402515
H  H228  1  0.57170000  0.56750000  0.73330000  1.0 0.1199303269
H  H229  1  0.61870000  0.56890000  0.68510000  1.0 0.1199303269
H  H230  1  0.50620000  0.56220000  0.64860000  1.0 0.099036789
H  H231  1  0.34660000  0.55410000  0.66020000  1.0 0.1114018856
H  H232  1  0.29950000  0.55280000  0.70840000  1.0 0.090606006
C  C1  1  0.47850000  0.56050000  0.47160000  1.0 0.099036789
C  C2  1  0.41930000  0.57060000  0.49590000  1.0 -0.1595283287
C  C3  1  0.46820000  0.59090000  0.52040000  1.0 0.0508948681
C  C4  1  0.56740000  0.59500000  0.51820000  1.0 -0.1389151724
C  C5  1  0.61010000  0.59220000  0.49350000  1.0 0.0287073204
C  C6  1  0.40970000  0.59970000  0.54630000  1.0 0.3527318627
C  C7  1  0.27860000  0.59950000  0.57250000  1.0 0.3633687572
C  C8  1  0.40710000  0.62860000  0.59270000  1.0 0.3678266887
C  C9  1  0.17280000  0.58560000  0.57650000  1.0 0.0678608502
C  C10  1  0.13300000  0.55480000  0.55230000  1.0 -0.1389151724
C  C11  1  0.04350000  0.54170000  0.55650000  1.0 0.0591025572
C  C12  1  0.03550000  0.57250000  0.60110000  1.0 0.099036789
C  C13  1  0.12810000  0.58810000  0.60040000  1.0 -0.1595283287
C  C14  1  0.45570000  0.65370000  0.61620000  1.0 0.0508948681
C  C15  1  0.41310000  0.67530000  0.63900000  1.0 -0.1935684635
C  C16  1  0.46360000  0.69340000  0.66040000  1.0 0.0763326228
C  C17  1  0.60160000  0.67590000  0.63980000  1.0 0.0591025572
C  C18  1  0.55250000  0.65340000  0.61780000  1.0 -0.1389151724
C  C19  1  0.38810000  0.83550000  0.92050000  1.0 0.1114018856
C  C20  1  0.39870000  0.79300000  0.90550000  1.0 -0.1716946671
C  C21  1  0.41930000  0.79650000  0.87600000  1.0 0.0678608502
C  C22  1  0.43410000  0.83780000  0.86260000  1.0 -0.1389151724
C  C23  1  0.42130000  0.87720000  0.87970000  1.0 0.0591025572
C  C24  1  0.43540000  0.75080000  0.85920000  1.0 0.3633687572
C  C25  1  0.43650000  0.67480000  0.85560000  1.0 0.3527318627
C  C26  1  0.46610000  0.71990000  0.81690000  1.0 0.3764916841
C  C27  1  0.42510000  0.62880000  0.86770000  1.0 0.0508948681
C  C28  1  0.41910000  0.62500000  0.89900000  1.0 -0.1716946671
C  C29  1  0.40120000  0.58020000  0.90820000  1.0 0.099036789
C  C30  1  0.40380000  0.54510000  0.86690000  1.0 0.099036789
C  C31  1  0.42260000  0.58830000  0.85260000  1.0 -0.1595283287
C  C32  1  0.49890000  0.72160000  0.78400000  1.0 0.0591025572
C  C33  1  0.52350000  0.68410000  0.76980000  1.0 -0.1595283287
C  C34  1  0.55500000  0.69120000  0.73860000  1.0 0.1298402515
C  C35  1  0.53040000  0.76970000  0.74280000  1.0 0.0508948681
C  C36  1  0.50140000  0.76460000  0.77150000  1.0 -0.1196517911
C  C37  1  0.93100000  0.94000000  0.72570000  1.0 0.0508948681
C  C38  1  0.02700000  0.93510000  0.71870000  1.0 -0.1116553399
C  C39  1  0.05500000  0.93430000  0.68980000  1.0 -0.0769988656
C  C40  1  0.98700000  0.93830000  0.66790000  1.0 -0.0740880709
C  C41  1  0.89200000  0.94320000  0.67490000  1.0 -0.0890001658
C  C42  1  0.86400000  0.94400000  0.70380000  1.0 -0.1491886284
C  C43  1  0.52150000  0.93950000  0.97160000  1.0 0.099036789
C  C44  1  0.58070000  0.92940000  0.99590000  1.0 -0.1595283287
C  C45  1  0.53180000  0.90910000  0.02040000  1.0 0.0508948681
C  C46  1  0.43260000  0.90500000  0.01820000  1.0 -0.1389151724
C  C47  1  0.38990000  0.90780000  0.99350000  1.0 0.0287073204
C  C48  1  0.59030000  0.90030000  0.04630000  1.0 0.3527318627
C  C49  1  0.72140000  0.90050000  0.07250000  1.0 0.3633687572
C  C50  1  0.59290000  0.87140000  0.09270000  1.0 0.3678266887
C  C51  1  0.82720000  0.91440000  0.07650000  1.0 0.0678608502
C  C52  1  0.86700000  0.94520000  0.05230000  1.0 -0.1389151724
C  C53  1  0.95650000  0.95830000  0.05650000  1.0 0.0591025572
C  C54  1  0.96450000  0.92750000  0.10110000  1.0 0.099036789
C  C55  1  0.87190000  0.91190000  0.10040000  1.0 -0.1595283287
C  C56  1  0.54430000  0.84630000  0.11620000  1.0 0.0508948681
C  C57  1  0.58690000  0.82470000  0.13900000  1.0 -0.1935684635
C  C58  1  0.53640000  0.80660000  0.16040000  1.0 0.0763326228
C  C59  1  0.39840000  0.82410000  0.13980000  1.0 0.0591025572
C  C60  1  0.44750000  0.84660000  0.11780000  1.0 -0.1389151724
C  C61  1  0.61190000  0.66450000  0.42050000  1.0 0.1199303269
C  C62  1  0.60130000  0.70700000  0.40550000  1.0 -0.1716946671
C  C63  1  0.58070000  0.70350000  0.37600000  1.0 0.0678608502
C  C64  1  0.56590000  0.66220000  0.36260000  1.0 -0.1491886284
C  C65  1  0.57870000  0.62280000  0.37970000  1.0 0.0591025572
C  C66  1  0.56460000  0.74920000  0.35920000  1.0 0.3633687572
C  C67  1  0.56350000  0.82520000  0.35560000  1.0 0.3527318627
C  C68  1  0.53390000  0.78010000  0.31690000  1.0 0.3764916841
C  C69  1  0.57490000  0.87120000  0.36770000  1.0 0.0508948681
C  C70  1  0.58090000  0.87500000  0.39900000  1.0 -0.1716946671
C  C71  1  0.59880000  0.91980000  0.40820000  1.0 0.099036789
C  C72  1  0.59620000  0.95490000  0.36690000  1.0 0.099036789
C  C73  1  0.57740000  0.91170000  0.35260000  1.0 -0.1595283287
C  C74  1  0.50110000  0.77840000  0.28400000  1.0 0.0591025572
C  C75  1  0.47650000  0.81590000  0.26980000  1.0 -0.1595283287
C  C76  1  0.44500000  0.80880000  0.23860000  1.0 0.1298402515
C  C77  1  0.46960000  0.73030000  0.24280000  1.0 0.0508948681
C  C78  1  0.49860000  0.73540000  0.27150000  1.0 -0.1196517911
C  C79  1  0.06900000  0.56000000  0.22570000  1.0 0.0508948681
C  C80  1  0.97300000  0.56490000  0.21870000  1.0 -0.1116553399
C  C81  1  0.94500000  0.56570000  0.18980000  1.0 -0.0769988656
C  C82  1  0.01300000  0.56170000  0.16790000  1.0 -0.0740880709
C  C83  1  0.10800000  0.55680000  0.17490000  1.0 -0.0890001658
C  C84  1  0.13600000  0.55600000  0.20380000  1.0 -0.1491886284
C  C85  1  0.97850000  0.43950000  0.02840000  1.0 0.099036789
C  C86  1  0.91930000  0.42940000  0.00410000  1.0 -0.1595283287
C  C87  1  0.96820000  0.40910000  0.97960000  1.0 0.0508948681
C  C88  1  0.06740000  0.40500000  0.98180000  1.0 -0.1389151724
C  C89  1  0.11010000  0.40780000  0.00650000  1.0 0.0287073204
C  C90  1  0.90970000  0.40030000  0.95370000  1.0 0.3527318627
C  C91  1  0.77860000  0.40050000  0.92750000  1.0 0.3633687572
C  C92  1  0.90710000  0.37140000  0.90730000  1.0 0.3678266887
C  C93  1  0.67280000  0.41440000  0.92350000  1.0 0.0678608502
C  C94  1  0.63300000  0.44520000  0.94770000  1.0 -0.1389151724
C  C95  1  0.54350000  0.45830000  0.94350000  1.0 0.0591025572
C  C96  1  0.53550000  0.42750000  0.89890000  1.0 0.090606006
C  C97  1  0.62810000  0.41190000  0.89960000  1.0 -0.1595283287
C  C98  1  0.95570000  0.34630000  0.88380000  1.0 0.0508948681
C  C99  1  0.91310000  0.32470000  0.86100000  1.0 -0.1935684635
C  C100  1  0.96360000  0.30660000  0.83960000  1.0 0.0763326228
C  C101  1  0.10160000  0.32410000  0.86020000  1.0 0.0591025572
C  C102  1  0.05250000  0.34660000  0.88220000  1.0 -0.1389151724
C  C103  1  0.88810000  0.16450000  0.57950000  1.0 0.1199303269
C  C104  1  0.89870000  0.20700000  0.59450000  1.0 -0.1716946671
C  C105  1  0.91930000  0.20350000  0.62400000  1.0 0.0678608502
C  C106  1  0.93410000  0.16220000  0.63740000  1.0 -0.1491886284
C  C107  1  0.92130000  0.12280000  0.62030000  1.0 0.0591025572
C  C108  1  0.93540000  0.24920000  0.64080000  1.0 0.3633687572
C  C109  1  0.93650000  0.32520000  0.64440000  1.0 0.3527318627
C  C110  1  0.96610000  0.28010000  0.68310000  1.0 0.3764916841
C  C111  1  0.92510000  0.37120000  0.63230000  1.0 0.0508948681
C  C112  1  0.91910000  0.37500000  0.60100000  1.0 -0.1716946671
C  C113  1  0.90120000  0.41980000  0.59180000  1.0 0.099036789
C  C114  1  0.90380000  0.45490000  0.63310000  1.0 0.099036789
C  C115  1  0.92260000  0.41170000  0.64740000  1.0 -0.1595283287
C  C116  1  0.99890000  0.27840000  0.71600000  1.0 0.0591025572
C  C117  1  0.02350000  0.31590000  0.73020000  1.0 -0.1595283287
C  C118  1  0.05500000  0.30880000  0.76140000  1.0 0.1384956713
C  C119  1  0.03040000  0.23030000  0.75720000  1.0 0.0508948681
C  C120  1  0.00140000  0.23540000  0.72850000  1.0 -0.1196517911
C  C121  1  0.43100000  0.06000000  0.77430000  1.0 0.0508948681
C  C122  1  0.52700000  0.06490000  0.78130000  1.0 -0.1116553399
C  C123  1  0.55500000  0.06570000  0.81020000  1.0 -0.0769988656
C  C124  1  0.48700000  0.06170000  0.83210000  1.0 -0.0740880709
C  C125  1  0.39200000  0.05680000  0.82510000  1.0 -0.0890001658
C  C126  1  0.36400000  0.05600000  0.79620000  1.0 -0.1595283287
C  C127  1  0.02150000  0.06050000  0.52840000  1.0 0.099036789
C  C128  1  0.08070000  0.07060000  0.50410000  1.0 -0.1595283287
C  C129  1  0.03180000  0.09090000  0.47960000  1.0 0.0508948681
C  C130  1  0.93260000  0.09500000  0.48180000  1.0 -0.1389151724
C  C131  1  0.88990000  0.09220000  0.50650000  1.0 0.0287073204
C  C132  1  0.09030000  0.09970000  0.45370000  1.0 0.3527318627
C  C133  1  0.22140000  0.09950000  0.42750000  1.0 0.3633687572
C  C134  1  0.09290000  0.12860000  0.40730000  1.0 0.3678266887
C  C135  1  0.32720000  0.08560000  0.42350000  1.0 0.0678608502
C  C136  1  0.36700000  0.05480000  0.44770000  1.0 -0.1347498264
C  C137  1  0.45650000  0.04170000  0.44350000  1.0 0.0591025572
C  C138  1  0.46450000  0.07250000  0.39890000  1.0 0.090606006
C  C139  1  0.37190000  0.08810000  0.39960000  1.0 -0.1595283287
C  C140  1  0.04430000  0.15370000  0.38380000  1.0 0.0508948681
C  C141  1  0.08690000  0.17530000  0.36100000  1.0 -0.1935684635
C  C142  1  0.03640000  0.19340000  0.33960000  1.0 0.0763326228
C  C143  1  0.89840000  0.17590000  0.36020000  1.0 0.0591025572
C  C144  1  0.94750000  0.15340000  0.38220000  1.0 -0.1389151724
C  C145  1  0.11190000  0.33550000  0.07950000  1.0 0.1114018856
C  C146  1  0.10130000  0.29300000  0.09450000  1.0 -0.1716946671
C  C147  1  0.08070000  0.29650000  0.12400000  1.0 0.0678608502
C  C148  1  0.06590000  0.33780000  0.13740000  1.0 -0.1389151724
C  C149  1  0.07870000  0.37720000  0.12030000  1.0 0.0591025572
C  C150  1  0.06460000  0.25080000  0.14080000  1.0 0.3678266887
C  C151  1  0.06350000  0.17480000  0.14440000  1.0 0.3527318627
C  C152  1  0.03390000  0.21990000  0.18310000  1.0 0.3764916841
C  C153  1  0.07490000  0.12880000  0.13230000  1.0 0.0508948681
C  C154  1  0.08090000  0.12500000  0.10100000  1.0 -0.1716946671
C  C155  1  0.09880000  0.08020000  0.09180000  1.0 0.099036789
C  C156  1  0.09620000  0.04510000  0.13310000  1.0 0.099036789
C  C157  1  0.07740000  0.08830000  0.14740000  1.0 -0.1595283287
C  C158  1  0.00110000  0.22160000  0.21600000  1.0 0.0591025572
C  C159  1  0.97650000  0.18410000  0.23020000  1.0 -0.1595283287
C  C160  1  0.94500000  0.19120000  0.26140000  1.0 0.1384956713
C  C161  1  0.96960000  0.26970000  0.25720000  1.0 0.0508948681
C  C162  1  0.99860000  0.26460000  0.22850000  1.0 -0.1196517911
C  C163  1  0.56900000  0.44000000  0.27430000  1.0 0.0508948681
C  C164  1  0.47300000  0.43510000  0.28130000  1.0 -0.1116553399
C  C165  1  0.44500000  0.43430000  0.31020000  1.0 -0.0769988656
C  C166  1  0.51300000  0.43830000  0.33210000  1.0 -0.0740880709
C  C167  1  0.60800000  0.44320000  0.32510000  1.0 -0.0890001658
C  C168  1  0.63600000  0.44400000  0.29620000  1.0 -0.1595283287
C  C169  1  0.52150000  0.43950000  0.52840000  1.0 0.099036789
C  C170  1  0.58070000  0.42940000  0.50410000  1.0 -0.1595283287
C  C171  1  0.53180000  0.40910000  0.47960000  1.0 0.0508948681
C  C172  1  0.43260000  0.40500000  0.48180000  1.0 -0.1389151724
C  C173  1  0.38990000  0.40780000  0.50650000  1.0 0.0287073204
C  C174  1  0.59030000  0.40030000  0.45370000  1.0 0.3527318627
C  C175  1  0.72140000  0.40050000  0.42750000  1.0 0.3633687572
C  C176  1  0.59290000  0.37140000  0.40730000  1.0 0.3678266887
C  C177  1  0.82720000  0.41440000  0.42350000  1.0 0.0678608502
C  C178  1  0.86700000  0.44520000  0.44770000  1.0 -0.1347498264
C  C179  1  0.95650000  0.45830000  0.44350000  1.0 0.0591025572
C  C180  1  0.96450000  0.42750000  0.39890000  1.0 0.099036789
C  C181  1  0.87190000  0.41190000  0.39960000  1.0 -0.1595283287
C  C182  1  0.54430000  0.34630000  0.38380000  1.0 0.0591025572
C  C183  1  0.58690000  0.32470000  0.36100000  1.0 -0.1935684635
C  C184  1  0.53640000  0.30660000  0.33960000  1.0 0.0763326228
C  C185  1  0.39840000  0.32410000  0.36020000  1.0 0.0591025572
C  C186  1  0.44750000  0.34660000  0.38220000  1.0 -0.1389151724
C  C187  1  0.61190000  0.16450000  0.07950000  1.0 0.1199303269
C  C188  1  0.60130000  0.20700000  0.09450000  1.0 -0.1716946671
C  C189  1  0.58070000  0.20350000  0.12400000  1.0 0.0678608502
C  C190  1  0.56590000  0.16220000  0.13740000  1.0 -0.1389151724
C  C191  1  0.57870000  0.12280000  0.12030000  1.0 0.0591025572
C  C192  1  0.56460000  0.24920000  0.14080000  1.0 0.3633687572
C  C193  1  0.56350000  0.32520000  0.14440000  1.0 0.3527318627
C  C194  1  0.53390000  0.28010000  0.18310000  1.0 0.3764916841
C  C195  1  0.57490000  0.37120000  0.13230000  1.0 0.0508948681
C  C196  1  0.58090000  0.37500000  0.10100000  1.0 -0.1716946671
C  C197  1  0.59880000  0.41980000  0.09180000  1.0 0.099036789
C  C198  1  0.59620000  0.45490000  0.13310000  1.0 0.099036789
C  C199  1  0.57740000  0.41170000  0.14740000  1.0 -0.1595283287
C  C200  1  0.50110000  0.27840000  0.21600000  1.0 0.0591025572
C  C201  1  0.47650000  0.31590000  0.23020000  1.0 -0.1595283287
C  C202  1  0.44500000  0.30880000  0.26140000  1.0 0.1298402515
C  C203  1  0.46960000  0.23030000  0.25720000  1.0 0.0508948681
C  C204  1  0.49860000  0.23540000  0.22850000  1.0 -0.1196517911
C  C205  1  0.06900000  0.06000000  0.27430000  1.0 0.0508948681
C  C206  1  0.97300000  0.06490000  0.28130000  1.0 -0.1116553399
C  C207  1  0.94500000  0.06570000  0.31020000  1.0 -0.0769988656
C  C208  1  0.01300000  0.06170000  0.33210000  1.0 -0.0740880709
C  C209  1  0.10800000  0.05680000  0.32510000  1.0 -0.0890001658
C  C210  1  0.13600000  0.05600000  0.29620000  1.0 -0.1595283287
C  C211  1  0.47850000  0.06050000  0.02840000  1.0 0.099036789
C  C212  1  0.41930000  0.07060000  0.00410000  1.0 -0.1595283287
C  C213  1  0.46820000  0.09090000  0.97960000  1.0 0.0508948681
C  C214  1  0.56740000  0.09500000  0.98180000  1.0 -0.1389151724
C  C215  1  0.61010000  0.09220000  0.00650000  1.0 0.0287073204
C  C216  1  0.40970000  0.09970000  0.95370000  1.0 0.3527318627
C  C217  1  0.27860000  0.09950000  0.92750000  1.0 0.3633687572
C  C218  1  0.40710000  0.12860000  0.90730000  1.0 0.3678266887
C  C219  1  0.17280000  0.08560000  0.92350000  1.0 0.0678608502
C  C220  1  0.13300000  0.05480000  0.94770000  1.0 -0.1389151724
C  C221  1  0.04350000  0.04170000  0.94350000  1.0 0.0591025572
C  C222  1  0.03550000  0.07250000  0.89890000  1.0 0.090606006
C  C223  1  0.12810000  0.08810000  0.89960000  1.0 -0.1595283287
C  C224  1  0.45570000  0.15370000  0.88380000  1.0 0.0508948681
C  C225  1  0.41310000  0.17530000  0.86100000  1.0 -0.1935684635
C  C226  1  0.46360000  0.19340000  0.83960000  1.0 0.0763326228
C  C227  1  0.60160000  0.17590000  0.86020000  1.0 0.0591025572
C  C228  1  0.55250000  0.15340000  0.88220000  1.0 -0.1389151724
C  C229  1  0.38810000  0.33550000  0.57950000  1.0 0.1199303269
C  C230  1  0.39870000  0.29300000  0.59450000  1.0 -0.1716946671
C  C231  1  0.41930000  0.29650000  0.62400000  1.0 0.0678608502
C  C232  1  0.43410000  0.33780000  0.63740000  1.0 -0.1491886284
C  C233  1  0.42130000  0.37720000  0.62030000  1.0 0.0591025572
C  C234  1  0.43540000  0.25080000  0.64080000  1.0 0.3633687572
C  C235  1  0.43650000  0.17480000  0.64440000  1.0 0.3527318627
C  C236  1  0.46610000  0.21990000  0.68310000  1.0 0.3764916841
C  C237  1  0.42510000  0.12880000  0.63230000  1.0 0.0508948681
C  C238  1  0.41910000  0.12500000  0.60100000  1.0 -0.1716946671
C  C239  1  0.40120000  0.08020000  0.59180000  1.0 0.099036789
C  C240  1  0.40380000  0.04510000  0.63310000  1.0 0.099036789
C  C241  1  0.42260000  0.08830000  0.64740000  1.0 -0.1595283287
C  C242  1  0.49890000  0.22160000  0.71600000  1.0 0.0591025572
C  C243  1  0.52350000  0.18410000  0.73020000  1.0 -0.1595283287
C  C244  1  0.55500000  0.19120000  0.76140000  1.0 0.1384956713
C  C245  1  0.53040000  0.26970000  0.75720000  1.0 0.0508948681
C  C246  1  0.50140000  0.26460000  0.72850000  1.0 -0.1196517911
C  C247  1  0.93100000  0.44000000  0.77430000  1.0 0.0508948681
C  C248  1  0.02700000  0.43510000  0.78130000  1.0 -0.1116553399
C  C249  1  0.05500000  0.43430000  0.81020000  1.0 -0.0769988656
C  C250  1  0.98700000  0.43830000  0.83210000  1.0 -0.0740880709
C  C251  1  0.89200000  0.44320000  0.82510000  1.0 -0.0890001658
C  C252  1  0.86400000  0.44400000  0.79620000  1.0 -0.1491886284
C  C253  1  0.02150000  0.56050000  0.97160000  1.0 0.099036789
C  C254  1  0.08070000  0.57060000  0.99590000  1.0 -0.1595283287
C  C255  1  0.03180000  0.59090000  0.02040000  1.0 0.0508948681
C  C256  1  0.93260000  0.59500000  0.01820000  1.0 -0.1389151724
C  C257  1  0.88990000  0.59220000  0.99350000  1.0 0.0287073204
C  C258  1  0.09030000  0.59970000  0.04630000  1.0 0.3527318627
C  C259  1  0.22140000  0.59950000  0.07250000  1.0 0.3633687572
C  C260  1  0.09290000  0.62860000  0.09270000  1.0 0.3678266887
C  C261  1  0.32720000  0.58560000  0.07650000  1.0 0.0678608502
C  C262  1  0.36700000  0.55480000  0.05230000  1.0 -0.1389151724
C  C263  1  0.45650000  0.54170000  0.05650000  1.0 0.0591025572
C  C264  1  0.46450000  0.57250000  0.10110000  1.0 0.099036789
C  C265  1  0.37190000  0.58810000  0.10040000  1.0 -0.1595283287
C  C266  1  0.04430000  0.65370000  0.11620000  1.0 0.0508948681
C  C267  1  0.08690000  0.67530000  0.13900000  1.0 -0.1935684635
C  C268  1  0.03640000  0.69340000  0.16040000  1.0 0.0763326228
C  C269  1  0.89840000  0.67590000  0.13980000  1.0 0.0591025572
C  C270  1  0.94750000  0.65340000  0.11780000  1.0 -0.1389151724
C  C271  1  0.11190000  0.83550000  0.42050000  1.0 0.1199303269
C  C272  1  0.10130000  0.79300000  0.40550000  1.0 -0.1716946671
C  C273  1  0.08070000  0.79650000  0.37600000  1.0 0.0678608502
C  C274  1  0.06590000  0.83780000  0.36260000  1.0 -0.1491886284
C  C275  1  0.07870000  0.87720000  0.37970000  1.0 0.0591025572
C  C276  1  0.06460000  0.75080000  0.35920000  1.0 0.3678266887
C  C277  1  0.06350000  0.67480000  0.35560000  1.0 0.3527318627
C  C278  1  0.03390000  0.71990000  0.31690000  1.0 0.3764916841
C  C279  1  0.07490000  0.62880000  0.36770000  1.0 0.0508948681
C  C280  1  0.08090000  0.62500000  0.39900000  1.0 -0.1716946671
C  C281  1  0.09880000  0.58020000  0.40820000  1.0 0.099036789
C  C282  1  0.09620000  0.54510000  0.36690000  1.0 0.099036789
C  C283  1  0.07740000  0.58830000  0.35260000  1.0 -0.1595283287
C  C284  1  0.00110000  0.72160000  0.28400000  1.0 0.0591025572
C  C285  1  0.97650000  0.68410000  0.26980000  1.0 -0.1595283287
C  C286  1  0.94500000  0.69120000  0.23860000  1.0 0.1298402515
C  C287  1  0.96960000  0.76970000  0.24280000  1.0 0.0508948681
C  C288  1  0.99860000  0.76460000  0.27150000  1.0 -0.1196517911
C  C289  1  0.56900000  0.94000000  0.22570000  1.0 0.0508948681
C  C290  1  0.47300000  0.93510000  0.21870000  1.0 -0.1116553399
C  C291  1  0.44500000  0.93430000  0.18980000  1.0 -0.0769988656
C  C292  1  0.51300000  0.93830000  0.16790000  1.0 -0.0740880709
C  C293  1  0.60800000  0.94320000  0.17490000  1.0 -0.0890001658
C  C294  1  0.63600000  0.94400000  0.20380000  1.0 -0.1491886284
C  C295  1  0.97850000  0.93950000  0.47160000  1.0 0.099036789
C  C296  1  0.91930000  0.92940000  0.49590000  1.0 -0.1595283287
C  C297  1  0.96820000  0.90910000  0.52040000  1.0 0.0508948681
C  C298  1  0.06740000  0.90500000  0.51820000  1.0 -0.1389151724
C  C299  1  0.11010000  0.90780000  0.49350000  1.0 0.0287073204
C  C300  1  0.90970000  0.90030000  0.54630000  1.0 0.3527318627
C  C301  1  0.77860000  0.90050000  0.57250000  1.0 0.3633687572
C  C302  1  0.90710000  0.87140000  0.59270000  1.0 0.3678266887
C  C303  1  0.67280000  0.91440000  0.57650000  1.0 0.0678608502
C  C304  1  0.63300000  0.94520000  0.55230000  1.0 -0.1389151724
C  C305  1  0.54350000  0.95830000  0.55650000  1.0 0.0591025572
C  C306  1  0.53550000  0.92750000  0.60110000  1.0 0.099036789
C  C307  1  0.62810000  0.91190000  0.60040000  1.0 -0.1595283287
C  C308  1  0.95570000  0.84630000  0.61620000  1.0 0.0508948681
C  C309  1  0.91310000  0.82470000  0.63900000  1.0 -0.1935684635
C  C310  1  0.96360000  0.80660000  0.66040000  1.0 0.0763326228
C  C311  1  0.10160000  0.82410000  0.63980000  1.0 0.0591025572
C  C312  1  0.05250000  0.84660000  0.61780000  1.0 -0.1389151724
C  C313  1  0.88810000  0.66450000  0.92050000  1.0 0.1199303269
C  C314  1  0.89870000  0.70700000  0.90550000  1.0 -0.1716946671
C  C315  1  0.91930000  0.70350000  0.87600000  1.0 0.0678608502
C  C316  1  0.93410000  0.66220000  0.86260000  1.0 -0.1491886284
C  C317  1  0.92130000  0.62280000  0.87970000  1.0 0.0591025572
C  C318  1  0.93540000  0.74920000  0.85920000  1.0 0.3633687572
C  C319  1  0.93650000  0.82520000  0.85560000  1.0 0.3527318627
C  C320  1  0.96610000  0.78010000  0.81690000  1.0 0.3764916841
C  C321  1  0.92510000  0.87120000  0.86770000  1.0 0.0508948681
C  C322  1  0.91910000  0.87500000  0.89900000  1.0 -0.1716946671
C  C323  1  0.90120000  0.91980000  0.90820000  1.0 0.099036789
C  C324  1  0.90380000  0.95490000  0.86690000  1.0 0.099036789
C  C325  1  0.92260000  0.91170000  0.85260000  1.0 -0.1595283287
C  C326  1  0.99890000  0.77840000  0.78400000  1.0 0.0591025572
C  C327  1  0.02350000  0.81590000  0.76980000  1.0 -0.1595283287
C  C328  1  0.05500000  0.80880000  0.73860000  1.0 0.1298402515
C  C329  1  0.03040000  0.73030000  0.74280000  1.0 0.0449837443
C  C330  1  0.00140000  0.73540000  0.77150000  1.0 -0.1196517911
C  C331  1  0.43100000  0.56000000  0.72570000  1.0 0.0508948681
C  C332  1  0.52700000  0.56490000  0.71870000  1.0 -0.1116553399
C  C333  1  0.55500000  0.56570000  0.68980000  1.0 -0.0769988656
C  C334  1  0.48700000  0.56170000  0.66790000  1.0 -0.0740880709
C  C335  1  0.39200000  0.55680000  0.67490000  1.0 -0.0890001658
C  C336  1  0.36400000  0.55600000  0.70380000  1.0 -0.1491886284
I  I1  1  0.81720000  0.56916000  0.44089000  1.0 -0.3935159001
I  I2  1  0.76829000  0.56584000  0.62515000  1.0 -0.4514412939
I  I3  1  0.79003000  0.50388000  0.53635000  1.0 -0.4514412939
I  I4  1  0.79604000  0.70361000  0.69499000  1.0 -0.4624720741
I  I5  1  0.55681000  0.49846000  0.40291000  1.0 -0.3102575973
I  I6  1  0.62230000  0.82274000  0.67185000  1.0 -0.2704882122
I  I7  1  0.83160000  0.54800000  0.37020000  1.0 0.0103920015
I  I8  1  0.85580000  0.55930000  0.31000000  1.0 0.0103920015
I  I9  1  0.72110000  0.49520000  0.36080000  1.0 0.0508948681
I  I10  1  0.87400000  0.49220000  0.32160000  1.0 0.0103920015
I  I11  1  0.84740000  0.92070000  0.75990000  1.0 0.4289999872
I  I12  1  0.74110000  0.87200000  0.71770000  1.0 -0.1116553399
I  I13  1  0.18280000  0.93084000  0.94089000  1.0 -0.3935159001
I  I14  1  0.23171000  0.93416000  0.12515000  1.0 -0.4514412939
I  I15  1  0.20997000  0.99612000  0.03635000  1.0 -0.4514412939
I  I16  1  0.20396000  0.79639000  0.19499000  1.0 -0.4624720741
I  I17  1  0.44319000  0.00154000  0.90291000  1.0 -0.3102575973
I  I18  1  0.37770000  0.67726000  0.17185000  1.0 -0.2704882122
I  I19  1  0.16840000  0.95200000  0.87020000  1.0 0.0103920015
I  I20  1  0.14420000  0.94070000  0.81000000  1.0 0.0103920015
I  I21  1  0.27890000  0.00480000  0.86080000  1.0 0.0508948681
I  I22  1  0.12600000  0.00780000  0.82160000  1.0 0.0103920015
I  I23  1  0.15260000  0.57930000  0.25990000  1.0 0.4289999872
I  I24  1  0.25890000  0.62800000  0.21770000  1.0 -0.1008941144
I  I25  1  0.31720000  0.43084000  0.05911000  1.0 -0.3935159001
I  I26  1  0.26829000  0.43416000  0.87485000  1.0 -0.4514412939
I  I27  1  0.29003000  0.49612000  0.96365000  1.0 -0.4514412939
I  I28  1  0.29604000  0.29639000  0.80501000  1.0 -0.4624720741
I  I29  1  0.05681000  0.50154000  0.09709000  1.0 -0.3102575973
I  I30  1  0.12230000  0.17726000  0.82815000  1.0 -0.2704882122
I  I31  1  0.33160000  0.45200000  0.12980000  1.0 0.0103920015
I  I32  1  0.35580000  0.44070000  0.19000000  1.0 0.0103920015
I  I33  1  0.22110000  0.50480000  0.13920000  1.0 0.0508948681
I  I34  1  0.37400000  0.50780000  0.17840000  1.0 0.0103920015
I  I35  1  0.34740000  0.07930000  0.74010000  1.0 0.4289999872
I  I36  1  0.24110000  0.12800000  0.78230000  1.0 -0.1008941144
I  I37  1  0.68280000  0.06916000  0.55911000  1.0 -0.3935159001
I  I38  1  0.73171000  0.06584000  0.37485000  1.0 -0.4514412939
I  I39  1  0.70997000  0.00388000  0.46365000  1.0 -0.4514412939
I  I40  1  0.70396000  0.20361000  0.30501000  1.0 -0.4624720741
I  I41  1  0.94319000  0.99846000  0.59709000  1.0 -0.3102575973
I  I42  1  0.87770000  0.32274000  0.32815000  1.0 -0.2704882122
I  I43  1  0.66840000  0.04800000  0.62980000  1.0 0.0103920015
I  I44  1  0.64420000  0.05930000  0.69000000  1.0 0.0103920015
I  I45  1  0.77890000  0.99520000  0.63920000  1.0 0.0508948681
I  I46  1  0.62600000  0.99220000  0.67840000  1.0 0.0103920015
I  I47  1  0.65260000  0.42070000  0.24010000  1.0 0.4289999872
I  I48  1  0.75890000  0.37200000  0.28230000  1.0 -0.1116553399
I  I49  1  0.18280000  0.43084000  0.55911000  1.0 -0.3935159001
I  I50  1  0.23171000  0.43416000  0.37485000  1.0 -0.4514412939
I  I51  1  0.20997000  0.49612000  0.46365000  1.0 -0.4514412939
I  I52  1  0.20396000  0.29639000  0.30501000  1.0 -0.4624720741
I  I53  1  0.44319000  0.50154000  0.59709000  1.0 -0.3102575973
I  I54  1  0.37770000  0.17726000  0.32815000  1.0 -0.2704882122
I  I55  1  0.16840000  0.45200000  0.62980000  1.0 0.0103920015
I  I56  1  0.14420000  0.44070000  0.69000000  1.0 0.0103920015
I  I57  1  0.27890000  0.50480000  0.63920000  1.0 0.0508948681
I  I58  1  0.12600000  0.50780000  0.67840000  1.0 0.0103920015
I  I59  1  0.15260000  0.07930000  0.24010000  1.0 0.4289999872
I  I60  1  0.25890000  0.12800000  0.28230000  1.0 -0.1116553399
I  I61  1  0.81720000  0.06916000  0.05911000  1.0 -0.3935159001
I  I62  1  0.76829000  0.06584000  0.87485000  1.0 -0.4514412939
I  I63  1  0.79003000  0.00388000  0.96365000  1.0 -0.4514412939
I  I64  1  0.79604000  0.20361000  0.80501000  1.0 -0.4624720741
I  I65  1  0.55681000  0.99846000  0.09709000  1.0 -0.3102575973
I  I66  1  0.62230000  0.32274000  0.82815000  1.0 -0.2704882122
I  I67  1  0.83160000  0.04800000  0.12980000  1.0 0.0103920015
I  I68  1  0.85580000  0.05930000  0.19000000  1.0 0.0103920015
I  I69  1  0.72110000  0.99520000  0.13920000  1.0 0.0508948681
I  I70  1  0.87400000  0.99220000  0.17840000  1.0 0.0103920015
I  I71  1  0.84740000  0.42070000  0.74010000  1.0 0.4243412797
I  I72  1  0.74110000  0.37200000  0.78230000  1.0 -0.1008941144
I  I73  1  0.68280000  0.56916000  0.94089000  1.0 -0.3935159001
I  I74  1  0.73171000  0.56584000  0.12515000  1.0 -0.4514412939
I  I75  1  0.70997000  0.50388000  0.03635000  1.0 -0.4514412939
I  I76  1  0.70396000  0.70361000  0.19499000  1.0 -0.4624720741
I  I77  1  0.94319000  0.49846000  0.90291000  1.0 -0.3102575973
I  I78  1  0.87770000  0.82274000  0.17185000  1.0 -0.2704882122
I  I79  1  0.66840000  0.54800000  0.87020000  1.0 0.0103920015
I  I80  1  0.64420000  0.55930000  0.81000000  1.0 0.0103920015
I  I81  1  0.77890000  0.49520000  0.86080000  1.0 0.0508948681
I  I82  1  0.62600000  0.49220000  0.82160000  1.0 0.0103920015
I  I83  1  0.65260000  0.92070000  0.25990000  1.0 0.4289999872
I  I84  1  0.75890000  0.87200000  0.21770000  1.0 -0.1116553399
I  I85  1  0.31720000  0.93084000  0.44089000  1.0 -0.3935159001
I  I86  1  0.26829000  0.93416000  0.62515000  1.0 -0.4514412939
I  I87  1  0.29003000  0.99612000  0.53635000  1.0 -0.4514412939
I  I88  1  0.29604000  0.79639000  0.69499000  1.0 -0.4624720741
I  I89  1  0.05681000  0.00154000  0.40291000  1.0 -0.3102575973
I  I90  1  0.12230000  0.67726000  0.67185000  1.0 -0.2704882122
I  I91  1  0.33160000  0.95200000  0.37020000  1.0 0.0103920015
I  I92  1  0.35580000  0.94070000  0.31000000  1.0 0.0103920015
I  I93  1  0.22110000  0.00480000  0.36080000  1.0 0.0508948681
I  I94  1  0.37400000  0.00780000  0.32160000  1.0 0.0103920015
I  I95  1  0.34740000  0.57930000  0.75990000  1.0 0.4289999872
I  I96  1  0.24110000  0.62800000  0.71770000  1.0 -0.1008941144
N  N1  1  0.57020000  0.57030000  0.46820000  1.0 -0.2182234585
N  N2  1  0.32340000  0.58730000  0.54780000  1.0 -0.3695702221
N  N3  1  0.31760000  0.62000000  0.59620000  1.0 -0.3772081066
N  N4  1  0.45910000  0.62050000  0.56870000  1.0 -0.4103709606
N  N5  1  0.99540000  0.55080000  0.58120000  1.0 -0.1838277936
N  N6  1  0.55150000  0.69680000  0.66110000  1.0 -0.1838277936
N  N7  1  0.39270000  0.87450000  0.90820000  1.0 -0.1935684635
N  N8  1  0.42100000  0.71320000  0.87270000  1.0 -0.4039888795
N  N9  1  0.45820000  0.67660000  0.82690000  1.0 -0.4103709606
N  N10  1  0.45810000  0.75790000  0.83010000  1.0 -0.4103709606
N  N11  1  0.39260000  0.54430000  0.89370000  1.0 -0.1716946671
N  N12  1  0.56100000  0.73080000  0.72660000  1.0 -0.1935684635
N  N13  1  0.90400000  0.94070000  0.75310000  1.0 0.099036789
N  N14  1  0.42980000  0.92970000  0.96820000  1.0 -0.2182234585
N  N15  1  0.67660000  0.91270000  0.04780000  1.0 -0.3695702221
N  N16  1  0.68240000  0.88000000  0.09620000  1.0 -0.3772081066
N  N17  1  0.54090000  0.87950000  0.06870000  1.0 -0.4103709606
N  N18  1  0.00460000  0.94920000  0.08120000  1.0 -0.1838277936
N  N19  1  0.44850000  0.80320000  0.16110000  1.0 -0.1838277936
N  N20  1  0.60730000  0.62550000  0.40820000  1.0 -0.1935684635
N  N21  1  0.57900000  0.78680000  0.37270000  1.0 -0.4103709606
N  N22  1  0.54180000  0.82340000  0.32690000  1.0 -0.4103709606
N  N23  1  0.54190000  0.74210000  0.33010000  1.0 -0.4103709606
N  N24  1  0.60740000  0.95570000  0.39370000  1.0 -0.1716946671
N  N25  1  0.43900000  0.76920000  0.22660000  1.0 -0.1935684635
N  N26  1  0.09600000  0.55930000  0.25310000  1.0 0.099036789
N  N27  1  0.07020000  0.42970000  0.03180000  1.0 -0.2182234585
N  N28  1  0.82340000  0.41270000  0.95220000  1.0 -0.3695702221
N  N29  1  0.81760000  0.38000000  0.90380000  1.0 -0.3772081066
N  N30  1  0.95910000  0.37950000  0.93130000  1.0 -0.4103709606
N  N31  1  0.49540000  0.44920000  0.91880000  1.0 -0.1838277936
N  N32  1  0.05150000  0.30320000  0.83890000  1.0 -0.1838277936
N  N33  1  0.89270000  0.12550000  0.59180000  1.0 -0.1935684635
N  N34  1  0.92100000  0.28680000  0.62730000  1.0 -0.4039888795
N  N35  1  0.95820000  0.32340000  0.67310000  1.0 -0.4103709606
N  N36  1  0.95810000  0.24210000  0.66990000  1.0 -0.4103709606
N  N37  1  0.89260000  0.45570000  0.60630000  1.0 -0.1716946671
N  N38  1  0.06100000  0.26920000  0.77340000  1.0 -0.1935684635
N  N39  1  0.40400000  0.05930000  0.74690000  1.0 0.099036789
N  N40  1  0.92980000  0.07030000  0.53180000  1.0 -0.2182234585
N  N41  1  0.17660000  0.08730000  0.45220000  1.0 -0.3695702221
N  N42  1  0.18240000  0.12000000  0.40380000  1.0 -0.3772081066
N  N43  1  0.04090000  0.12050000  0.43130000  1.0 -0.4103709606
N  N44  1  0.50460000  0.05080000  0.41880000  1.0 -0.1838277936
N  N45  1  0.94850000  0.19680000  0.33890000  1.0 -0.1838277936
N  N46  1  0.10730000  0.37450000  0.09180000  1.0 -0.1935684635
N  N47  1  0.07900000  0.21320000  0.12730000  1.0 -0.4103709606
N  N48  1  0.04180000  0.17660000  0.17310000  1.0 -0.4103709606
N  N49  1  0.04190000  0.25790000  0.16990000  1.0 -0.4103709606
N  N50  1  0.10740000  0.04430000  0.10630000  1.0 -0.1716946671
N  N51  1  0.93900000  0.23080000  0.27340000  1.0 -0.1935684635
N  N52  1  0.59600000  0.44070000  0.24690000  1.0 0.099036789
N  N53  1  0.42980000  0.42970000  0.53180000  1.0 -0.2182234585
N  N54  1  0.67660000  0.41270000  0.45220000  1.0 -0.3695702221
N  N55  1  0.68240000  0.38000000  0.40380000  1.0 -0.3772081066
N  N56  1  0.54090000  0.37950000  0.43130000  1.0 -0.4103709606
N  N57  1  0.00460000  0.44920000  0.41880000  1.0 -0.1838277936
N  N58  1  0.44850000  0.30320000  0.33890000  1.0 -0.1838277936
N  N59  1  0.60730000  0.12550000  0.09180000  1.0 -0.1935684635
N  N60  1  0.57900000  0.28680000  0.12730000  1.0 -0.4103709606
N  N61  1  0.54180000  0.32340000  0.17310000  1.0 -0.4103709606
N  N62  1  0.54190000  0.24210000  0.16990000  1.0 -0.4103709606
N  N63  1  0.60740000  0.45570000  0.10630000  1.0 -0.1716946671
N  N64  1  0.43900000  0.26920000  0.27340000  1.0 -0.1935684635
N  N65  1  0.09600000  0.05930000  0.24690000  1.0 0.099036789
N  N66  1  0.57020000  0.07030000  0.03180000  1.0 -0.2182234585
N  N67  1  0.32340000  0.08730000  0.95220000  1.0 -0.3695702221
N  N68  1  0.31760000  0.12000000  0.90380000  1.0 -0.3772081066
N  N69  1  0.45910000  0.12050000  0.93130000  1.0 -0.4103709606
N  N70  1  0.99540000  0.05080000  0.91880000  1.0 -0.1838277936
N  N71  1  0.55150000  0.19680000  0.83890000  1.0 -0.1838277936
N  N72  1  0.39270000  0.37450000  0.59180000  1.0 -0.1935684635
N  N73  1  0.42100000  0.21320000  0.62730000  1.0 -0.4039888795
N  N74  1  0.45820000  0.17660000  0.67310000  1.0 -0.4103709606
N  N75  1  0.45810000  0.25790000  0.66990000  1.0 -0.4103709606
N  N76  1  0.39260000  0.04430000  0.60630000  1.0 -0.1716946671
N  N77  1  0.56100000  0.23080000  0.77340000  1.0 -0.1935684635
N  N78  1  0.90400000  0.44070000  0.74690000  1.0 0.099036789
N  N79  1  0.92980000  0.57030000  0.96820000  1.0 -0.2182234585
N  N80  1  0.17660000  0.58730000  0.04780000  1.0 -0.3695702221
N  N81  1  0.18240000  0.62000000  0.09620000  1.0 -0.3772081066
N  N82  1  0.04090000  0.62050000  0.06870000  1.0 -0.4103709606
N  N83  1  0.50460000  0.55080000  0.08120000  1.0 -0.1838277936
N  N84  1  0.94850000  0.69680000  0.16110000  1.0 -0.1838277936
N  N85  1  0.10730000  0.87450000  0.40820000  1.0 -0.1935684635
N  N86  1  0.07900000  0.71320000  0.37270000  1.0 -0.4103709606
N  N87  1  0.04180000  0.67660000  0.32690000  1.0 -0.4103709606
N  N88  1  0.04190000  0.75790000  0.33010000  1.0 -0.4103709606
N  N89  1  0.10740000  0.54430000  0.39370000  1.0 -0.1716946671
N  N90  1  0.93900000  0.73080000  0.22660000  1.0 -0.1935684635
N  N91  1  0.59600000  0.94070000  0.25310000  1.0 0.099036789
N  N92  1  0.07020000  0.92970000  0.46820000  1.0 -0.2182234585
N  N93  1  0.82340000  0.91270000  0.54780000  1.0 -0.3695702221
N  N94  1  0.81760000  0.88000000  0.59620000  1.0 -0.3772081066
N  N95  1  0.95910000  0.87950000  0.56870000  1.0 -0.4103709606
N  N96  1  0.49540000  0.94920000  0.58120000  1.0 -0.1838277936
N  N97  1  0.05150000  0.80320000  0.66110000  1.0 -0.1838277936
N  N98  1  0.89270000  0.62550000  0.90820000  1.0 -0.1935684635
N  N99  1  0.92100000  0.78680000  0.87270000  1.0 -0.4103709606
N  N100  1  0.95820000  0.82340000  0.82690000  1.0 -0.4103709606
N  N101  1  0.95810000  0.74210000  0.83010000  1.0 -0.4103709606
N  N102  1  0.89260000  0.95570000  0.89370000  1.0 -0.1716946671
N  N103  1  0.06100000  0.76920000  0.72660000  1.0 -0.1935684635
N  N104  1  0.40400000  0.55930000  0.75310000  1.0 0.099036789
O  O1  1  0.81600000  0.94520000  0.75930000  1.0 -0.2704882122
O  O2  1  0.96900000  0.93690000  0.77290000  1.0 -0.3102575973
O  O3  1  0.18400000  0.55480000  0.25930000  1.0 -0.2704882122
O  O4  1  0.03100000  0.56310000  0.27290000  1.0 -0.3102575973
O  O5  1  0.31600000  0.05480000  0.74070000  1.0 -0.2704882122
O  O6  1  0.46900000  0.06310000  0.72710000  1.0 -0.3102575973
O  O7  1  0.68400000  0.44520000  0.24070000  1.0 -0.2704882122
O  O8  1  0.53100000  0.43690000  0.22710000  1.0 -0.3102575973
O  O9  1  0.18400000  0.05480000  0.24070000  1.0 -0.2704882122
O  O10  1  0.03100000  0.06310000  0.22710000  1.0 -0.3102575973
O  O11  1  0.81600000  0.44520000  0.74070000  1.0 -0.2704882122
O  O12  1  0.96900000  0.43690000  0.72710000  1.0 -0.3102575973
O  O13  1  0.68400000  0.94520000  0.25930000  1.0 -0.2704882122
O  O14  1  0.53100000  0.93690000  0.27290000  1.0 -0.3102575973
O  O15  1  0.31600000  0.55480000  0.75930000  1.0 -0.2704882122
O  O16  1  0.46900000  0.56310000  0.77290000  1.0 -0.3102575973
