# DDEC6 charges by PACMAN v1.1 (https://github.com/mtap-research/PACMAN-charge/)
data_KEVWIU_ASR_pacman
_symmetry_space_group_name_H-M   'P 1'
_cell_length_a   13.91870000
_cell_length_b   28.53510000
_cell_length_c   45.83410000
_cell_angle_alpha   90.00000000
_cell_angle_beta   90.00000000
_cell_angle_gamma   90.00000000
_symmetry_Int_Tables_number   1
_chemical_formula_structural   Zn3H29C42I12N13O2
_chemical_formula_sum   'Zn24 H232 C336 I96 N104 O16'
_cell_volume   18203.99808177
_cell_formula_units_Z   8
loop_
 _symmetry_equiv_pos_site_id
 _symmetry_equiv_pos_as_xyz
  1  'x, y, z'
loop_
 _atom_site_type_symbol
 _atom_site_label
 _atom_site_symmetry_multiplicity
 _atom_site_fract_x
 _atom_site_fract_y
 _atom_site_fract_z
 _atom_site_occupancy
 _atom_site_charge
Zn  Zn1  1  0.64645000  0.56305000  0.43011000  1.0 0.4302548288
Zn  Zn2  1  0.85762000  0.52189000  0.58715000  1.0 0.4681341319
Zn  Zn3  1  0.63412000  0.74073000  0.68837000  1.0 0.4522116005
Zn  Zn4  1  0.35355000  0.93695000  0.93011000  1.0 0.4302548288
Zn  Zn5  1  0.14238000  0.97811000  0.08715000  1.0 0.4681341319
Zn  Zn6  1  0.36588000  0.75927000  0.18837000  1.0 0.4522116005
Zn  Zn7  1  0.14645000  0.43695000  0.06989000  1.0 0.4302548288
Zn  Zn8  1  0.35762000  0.47811000  0.91285000  1.0 0.4681341319
Zn  Zn9  1  0.13412000  0.25927000  0.81163000  1.0 0.4522116005
Zn  Zn10  1  0.85355000  0.06305000  0.56989000  1.0 0.4302548288
Zn  Zn11  1  0.64238000  0.02189000  0.41285000  1.0 0.4681341319
Zn  Zn12  1  0.86588000  0.24073000  0.31163000  1.0 0.4522116005
Zn  Zn13  1  0.35355000  0.43695000  0.56989000  1.0 0.4302548288
Zn  Zn14  1  0.14238000  0.47811000  0.41285000  1.0 0.4681341319
Zn  Zn15  1  0.36588000  0.25927000  0.31163000  1.0 0.4522116005
Zn  Zn16  1  0.64645000  0.06305000  0.06989000  1.0 0.4302548288
Zn  Zn17  1  0.85762000  0.02189000  0.91285000  1.0 0.4681341319
Zn  Zn18  1  0.63412000  0.24073000  0.81163000  1.0 0.4522116005
Zn  Zn19  1  0.85355000  0.56305000  0.93011000  1.0 0.4302548288
Zn  Zn20  1  0.64238000  0.52189000  0.08715000  1.0 0.4681341319
Zn  Zn21  1  0.86588000  0.74073000  0.18837000  1.0 0.4522116005
Zn  Zn22  1  0.14645000  0.93695000  0.43011000  1.0 0.4302548288
Zn  Zn23  1  0.35762000  0.97811000  0.58715000  1.0 0.4681341319
Zn  Zn24  1  0.13412000  0.75927000  0.68837000  1.0 0.4522116005
H  H1  1  0.44880000  0.54830000  0.45480000  1.0 0.110473551
H  H2  1  0.36130000  0.56230000  0.49660000  1.0 0.1305457008
H  H3  1  0.59240000  0.61810000  0.53210000  1.0 0.1381534396
H  H4  1  0.68140000  0.59410000  0.49300000  1.0 0.110473551
H  H5  1  0.16420000  0.55200000  0.53600000  1.0 0.1381534396
H  H6  1  0.00970000  0.52940000  0.54120000  1.0 0.110473551
H  H7  1  0.99900000  0.58130000  0.61830000  1.0 0.110473551
H  H8  1  0.14880000  0.61440000  0.61300000  1.0 0.1305457008
H  H9  1  0.34320000  0.67700000  0.63920000  1.0 0.1381534396
H  H10  1  0.42860000  0.71630000  0.67320000  1.0 0.110473551
H  H11  1  0.66920000  0.67240000  0.64030000  1.0 0.110473551
H  H12  1  0.59290000  0.63980000  0.60240000  1.0 0.1381534396
H  H13  1  0.36160000  0.83090000  0.93830000  1.0 0.110473551
H  H14  1  0.39110000  0.76580000  0.91400000  1.0 0.1381534396
H  H15  1  0.44720000  0.84270000  0.84320000  1.0 0.1381534396
H  H16  1  0.41860000  0.90730000  0.86980000  1.0 0.1022878288
H  H17  1  0.42280000  0.64960000  0.90990000  1.0 0.1305457008
H  H18  1  0.40020000  0.57780000  0.93000000  1.0 0.110473551
H  H19  1  0.39560000  0.51980000  0.85320000  1.0 0.110473551
H  H20  1  0.42700000  0.58870000  0.83130000  1.0 0.1234876427
H  H21  1  0.52800000  0.65500000  0.77640000  1.0 0.1305457008
H  H22  1  0.57410000  0.66440000  0.72880000  1.0 0.110473551
H  H23  1  0.52630000  0.79880000  0.73290000  1.0 0.1022878288
H  H24  1  0.47750000  0.79350000  0.78050000  1.0 0.1305457008
H  H25  1  0.05660000  0.93860000  0.74300000  1.0 0.110473551
H  H26  1  0.12610000  0.94090000  0.69700000  1.0 0.1305457008
H  H27  1  0.03060000  0.93430000  0.65570000  1.0 0.1022878288
H  H28  1  0.86570000  0.92530000  0.66040000  1.0 0.1022878288
H  H29  1  0.79620000  0.92300000  0.70640000  1.0 0.0807616127
H  H30  1  0.55120000  0.95170000  0.95480000  1.0 0.110473551
H  H31  1  0.63870000  0.93770000  0.99660000  1.0 0.1305457008
H  H32  1  0.40760000  0.88190000  0.03210000  1.0 0.1381534396
H  H33  1  0.31860000  0.90590000  0.99300000  1.0 0.110473551
H  H34  1  0.83580000  0.94800000  0.03600000  1.0 0.1381534396
H  H35  1  0.99030000  0.97060000  0.04120000  1.0 0.110473551
H  H36  1  0.00100000  0.91870000  0.11830000  1.0 0.110473551
H  H37  1  0.85120000  0.88560000  0.11300000  1.0 0.1305457008
H  H38  1  0.65680000  0.82300000  0.13920000  1.0 0.1381534396
H  H39  1  0.57140000  0.78370000  0.17320000  1.0 0.110473551
H  H40  1  0.33080000  0.82760000  0.14030000  1.0 0.110473551
H  H41  1  0.40710000  0.86020000  0.10240000  1.0 0.1381534396
H  H42  1  0.63840000  0.66910000  0.43830000  1.0 0.110473551
H  H43  1  0.60890000  0.73420000  0.41400000  1.0 0.1381534396
H  H44  1  0.55280000  0.65730000  0.34320000  1.0 0.1381534396
H  H45  1  0.58140000  0.59270000  0.36980000  1.0 0.1022878288
H  H46  1  0.57720000  0.85040000  0.40990000  1.0 0.1305457008
H  H47  1  0.59980000  0.92220000  0.43000000  1.0 0.110473551
H  H48  1  0.60440000  0.98020000  0.35320000  1.0 0.110473551
H  H49  1  0.57300000  0.91130000  0.33130000  1.0 0.1234876427
H  H50  1  0.47200000  0.84500000  0.27640000  1.0 0.1305457008
H  H51  1  0.42590000  0.83560000  0.22880000  1.0 0.110473551
H  H52  1  0.47370000  0.70120000  0.23290000  1.0 0.1022878288
H  H53  1  0.52250000  0.70650000  0.28050000  1.0 0.1305457008
H  H54  1  0.94340000  0.56140000  0.24300000  1.0 0.110473551
H  H55  1  0.87390000  0.55910000  0.19700000  1.0 0.1305457008
H  H56  1  0.96940000  0.56570000  0.15570000  1.0 0.110473551
H  H57  1  0.13430000  0.57470000  0.16040000  1.0 0.1022878288
H  H58  1  0.20380000  0.57700000  0.20640000  1.0 0.0807616127
H  H59  1  0.94880000  0.45170000  0.04520000  1.0 0.110473551
H  H60  1  0.86130000  0.43770000  0.00340000  1.0 0.1381534396
H  H61  1  0.09240000  0.38190000  0.96790000  1.0 0.1381534396
H  H62  1  0.18140000  0.40590000  0.00700000  1.0 0.110473551
H  H63  1  0.66420000  0.44800000  0.96400000  1.0 0.1381534396
H  H64  1  0.50970000  0.47060000  0.95880000  1.0 0.110473551
H  H65  1  0.49900000  0.41870000  0.88170000  1.0 0.110473551
H  H66  1  0.64880000  0.38560000  0.88700000  1.0 0.1305457008
H  H67  1  0.84320000  0.32300000  0.86080000  1.0 0.1381534396
H  H68  1  0.92860000  0.28370000  0.82680000  1.0 0.110473551
H  H69  1  0.16920000  0.32760000  0.85970000  1.0 0.110473551
H  H70  1  0.09290000  0.36020000  0.89760000  1.0 0.1381534396
H  H71  1  0.86160000  0.16910000  0.56170000  1.0 0.110473551
H  H72  1  0.89110000  0.23420000  0.58600000  1.0 0.1381534396
H  H73  1  0.94720000  0.15730000  0.65680000  1.0 0.1381534396
H  H74  1  0.91860000  0.09270000  0.63020000  1.0 0.1022878288
H  H75  1  0.92280000  0.35040000  0.59010000  1.0 0.1305457008
H  H76  1  0.90020000  0.42220000  0.57000000  1.0 0.110473551
H  H77  1  0.89560000  0.48020000  0.64680000  1.0 0.110473551
H  H78  1  0.92700000  0.41130000  0.66870000  1.0 0.1234876427
H  H79  1  0.02800000  0.34500000  0.72360000  1.0 0.1305457008
H  H80  1  0.07410000  0.33560000  0.77120000  1.0 0.110473551
H  H81  1  0.02630000  0.20120000  0.76710000  1.0 0.1022878288
H  H82  1  0.97750000  0.20650000  0.71950000  1.0 0.1305457008
H  H83  1  0.55660000  0.06140000  0.75700000  1.0 0.110473551
H  H84  1  0.62610000  0.05910000  0.80300000  1.0 0.1305457008
H  H85  1  0.53060000  0.06570000  0.84430000  1.0 0.1022878288
H  H86  1  0.36570000  0.07470000  0.83960000  1.0 0.1022878288
H  H87  1  0.29620000  0.07700000  0.79360000  1.0 0.0807616127
H  H88  1  0.05120000  0.04830000  0.54520000  1.0 0.110473551
H  H89  1  0.13870000  0.06230000  0.50340000  1.0 0.1305457008
H  H90  1  0.90760000  0.11810000  0.46790000  1.0 0.1381534396
H  H91  1  0.81860000  0.09410000  0.50700000  1.0 0.110473551
H  H92  1  0.33580000  0.05200000  0.46400000  1.0 0.1381534396
H  H93  1  0.49030000  0.02940000  0.45880000  1.0 0.110473551
H  H94  1  0.50100000  0.08130000  0.38170000  1.0 0.110473551
H  H95  1  0.35120000  0.11440000  0.38700000  1.0 0.1305457008
H  H96  1  0.15680000  0.17700000  0.36080000  1.0 0.1381534396
H  H97  1  0.07140000  0.21630000  0.32680000  1.0 0.110473551
H  H98  1  0.83080000  0.17240000  0.35970000  1.0 0.110473551
H  H99  1  0.90710000  0.13980000  0.39760000  1.0 0.1381534396
H  H100  1  0.13840000  0.33090000  0.06170000  1.0 0.110473551
H  H101  1  0.10890000  0.26580000  0.08600000  1.0 0.1381534396
H  H102  1  0.05280000  0.34270000  0.15680000  1.0 0.1381534396
H  H103  1  0.08140000  0.40730000  0.13020000  1.0 0.1022878288
H  H104  1  0.07720000  0.14960000  0.09010000  1.0 0.1305457008
H  H105  1  0.09980000  0.07780000  0.07000000  1.0 0.110473551
H  H106  1  0.10440000  0.01980000  0.14680000  1.0 0.110473551
H  H107  1  0.07300000  0.08870000  0.16870000  1.0 0.1234876427
H  H108  1  0.97200000  0.15500000  0.22360000  1.0 0.1305457008
H  H109  1  0.92590000  0.16440000  0.27120000  1.0 0.110473551
H  H110  1  0.97370000  0.29880000  0.26710000  1.0 0.1022878288
H  H111  1  0.02250000  0.29350000  0.21950000  1.0 0.1305457008
H  H112  1  0.44340000  0.43860000  0.25700000  1.0 0.110473551
H  H113  1  0.37390000  0.44090000  0.30300000  1.0 0.1305457008
H  H114  1  0.46940000  0.43430000  0.34430000  1.0 0.1022878288
H  H115  1  0.63430000  0.42530000  0.33960000  1.0 0.1022878288
H  H116  1  0.70380000  0.42300000  0.29360000  1.0 0.0807616127
H  H117  1  0.55120000  0.45170000  0.54520000  1.0 0.110473551
H  H118  1  0.63870000  0.43770000  0.50340000  1.0 0.1305457008
H  H119  1  0.40760000  0.38190000  0.46790000  1.0 0.1381534396
H  H120  1  0.31860000  0.40590000  0.50700000  1.0 0.110473551
H  H121  1  0.83580000  0.44800000  0.46400000  1.0 0.1381534396
H  H122  1  0.99030000  0.47060000  0.45880000  1.0 0.110473551
H  H123  1  0.00100000  0.41870000  0.38170000  1.0 0.110473551
H  H124  1  0.85120000  0.38560000  0.38700000  1.0 0.1305457008
H  H125  1  0.65680000  0.32300000  0.36080000  1.0 0.1381534396
H  H126  1  0.57140000  0.28370000  0.32680000  1.0 0.110473551
H  H127  1  0.33080000  0.32760000  0.35970000  1.0 0.110473551
H  H128  1  0.40710000  0.36020000  0.39760000  1.0 0.1381534396
H  H129  1  0.63840000  0.16910000  0.06170000  1.0 0.110473551
H  H130  1  0.60890000  0.23420000  0.08600000  1.0 0.1381534396
H  H131  1  0.55280000  0.15730000  0.15680000  1.0 0.1381534396
H  H132  1  0.58140000  0.09270000  0.13020000  1.0 0.1022878288
H  H133  1  0.57720000  0.35040000  0.09010000  1.0 0.1305457008
H  H134  1  0.59980000  0.42220000  0.07000000  1.0 0.110473551
H  H135  1  0.60440000  0.48020000  0.14680000  1.0 0.110473551
H  H136  1  0.57300000  0.41130000  0.16870000  1.0 0.1234876427
H  H137  1  0.47200000  0.34500000  0.22360000  1.0 0.1305457008
H  H138  1  0.42590000  0.33560000  0.27120000  1.0 0.110473551
H  H139  1  0.47370000  0.20120000  0.26710000  1.0 0.1022878288
H  H140  1  0.52250000  0.20650000  0.21950000  1.0 0.1305457008
H  H141  1  0.94340000  0.06140000  0.25700000  1.0 0.110473551
H  H142  1  0.87390000  0.05910000  0.30300000  1.0 0.1305457008
H  H143  1  0.96940000  0.06570000  0.34430000  1.0 0.110473551
H  H144  1  0.13430000  0.07470000  0.33960000  1.0 0.1022878288
H  H145  1  0.20380000  0.07700000  0.29360000  1.0 0.0807616127
H  H146  1  0.44880000  0.04830000  0.04520000  1.0 0.110473551
H  H147  1  0.36130000  0.06230000  0.00340000  1.0 0.1381534396
H  H148  1  0.59240000  0.11810000  0.96790000  1.0 0.1381534396
H  H149  1  0.68140000  0.09410000  0.00700000  1.0 0.110473551
H  H150  1  0.16420000  0.05200000  0.96400000  1.0 0.1381534396
H  H151  1  0.00970000  0.02940000  0.95880000  1.0 0.110473551
H  H152  1  0.99900000  0.08130000  0.88170000  1.0 0.110473551
H  H153  1  0.14880000  0.11440000  0.88700000  1.0 0.1305457008
H  H154  1  0.34320000  0.17700000  0.86080000  1.0 0.1381534396
H  H155  1  0.42860000  0.21630000  0.82680000  1.0 0.110473551
H  H156  1  0.66920000  0.17240000  0.85970000  1.0 0.110473551
H  H157  1  0.59290000  0.13980000  0.89760000  1.0 0.1381534396
H  H158  1  0.36160000  0.33090000  0.56170000  1.0 0.110473551
H  H159  1  0.39110000  0.26580000  0.58600000  1.0 0.1381534396
H  H160  1  0.44720000  0.34270000  0.65680000  1.0 0.1381534396
H  H161  1  0.41860000  0.40730000  0.63020000  1.0 0.1022878288
H  H162  1  0.42280000  0.14960000  0.59010000  1.0 0.1305457008
H  H163  1  0.40020000  0.07780000  0.57000000  1.0 0.110473551
H  H164  1  0.39560000  0.01980000  0.64680000  1.0 0.110473551
H  H165  1  0.42700000  0.08870000  0.66870000  1.0 0.1234876427
H  H166  1  0.52800000  0.15500000  0.72360000  1.0 0.1305457008
H  H167  1  0.57410000  0.16440000  0.77120000  1.0 0.110473551
H  H168  1  0.52630000  0.29880000  0.76710000  1.0 0.1022878288
H  H169  1  0.47750000  0.29350000  0.71950000  1.0 0.1305457008
H  H170  1  0.05660000  0.43860000  0.75700000  1.0 0.110473551
H  H171  1  0.12610000  0.44090000  0.80300000  1.0 0.1305457008
H  H172  1  0.03060000  0.43430000  0.84430000  1.0 0.1022878288
H  H173  1  0.86570000  0.42530000  0.83960000  1.0 0.1022878288
H  H174  1  0.79620000  0.42300000  0.79360000  1.0 0.0807616127
H  H175  1  0.05120000  0.54830000  0.95480000  1.0 0.110473551
H  H176  1  0.13870000  0.56230000  0.99660000  1.0 0.1305457008
H  H177  1  0.90760000  0.61810000  0.03210000  1.0 0.1381534396
H  H178  1  0.81860000  0.59410000  0.99300000  1.0 0.110473551
H  H179  1  0.33580000  0.55200000  0.03600000  1.0 0.1381534396
H  H180  1  0.49030000  0.52940000  0.04120000  1.0 0.110473551
H  H181  1  0.50100000  0.58130000  0.11830000  1.0 0.110473551
H  H182  1  0.35120000  0.61440000  0.11300000  1.0 0.1305457008
H  H183  1  0.15680000  0.67700000  0.13920000  1.0 0.1381534396
H  H184  1  0.07140000  0.71630000  0.17320000  1.0 0.110473551
H  H185  1  0.83080000  0.67240000  0.14030000  1.0 0.110473551
H  H186  1  0.90710000  0.63980000  0.10240000  1.0 0.1381534396
H  H187  1  0.13840000  0.83090000  0.43830000  1.0 0.110473551
H  H188  1  0.10890000  0.76580000  0.41400000  1.0 0.1381534396
H  H189  1  0.05280000  0.84270000  0.34320000  1.0 0.1381534396
H  H190  1  0.08140000  0.90730000  0.36980000  1.0 0.1022878288
H  H191  1  0.07720000  0.64960000  0.40990000  1.0 0.1305457008
H  H192  1  0.09980000  0.57780000  0.43000000  1.0 0.110473551
H  H193  1  0.10440000  0.51980000  0.35320000  1.0 0.110473551
H  H194  1  0.07300000  0.58870000  0.33130000  1.0 0.1234876427
H  H195  1  0.97200000  0.65500000  0.27640000  1.0 0.1305457008
H  H196  1  0.92590000  0.66440000  0.22880000  1.0 0.110473551
H  H197  1  0.97370000  0.79880000  0.23290000  1.0 0.1022878288
H  H198  1  0.02250000  0.79350000  0.28050000  1.0 0.1305457008
H  H199  1  0.44340000  0.93860000  0.24300000  1.0 0.110473551
H  H200  1  0.37390000  0.94090000  0.19700000  1.0 0.1305457008
H  H201  1  0.46940000  0.93430000  0.15570000  1.0 0.1022878288
H  H202  1  0.63430000  0.92530000  0.16040000  1.0 0.1022878288
H  H203  1  0.70380000  0.92300000  0.20640000  1.0 0.0807616127
H  H204  1  0.94880000  0.95170000  0.45480000  1.0 0.110473551
H  H205  1  0.86130000  0.93770000  0.49660000  1.0 0.1305457008
H  H206  1  0.09240000  0.88190000  0.53210000  1.0 0.1381534396
H  H207  1  0.18140000  0.90590000  0.49300000  1.0 0.110473551
H  H208  1  0.66420000  0.94800000  0.53600000  1.0 0.1381534396
H  H209  1  0.50970000  0.97060000  0.54120000  1.0 0.110473551
H  H210  1  0.49900000  0.91870000  0.61830000  1.0 0.110473551
H  H211  1  0.64880000  0.88560000  0.61300000  1.0 0.1305457008
H  H212  1  0.84320000  0.82300000  0.63920000  1.0 0.1381534396
H  H213  1  0.92860000  0.78370000  0.67320000  1.0 0.110473551
H  H214  1  0.16920000  0.82760000  0.64030000  1.0 0.110473551
H  H215  1  0.09290000  0.86020000  0.60240000  1.0 0.1381534396
H  H216  1  0.86160000  0.66910000  0.93830000  1.0 0.110473551
H  H217  1  0.89110000  0.73420000  0.91400000  1.0 0.1381534396
H  H218  1  0.94720000  0.65730000  0.84320000  1.0 0.1381534396
H  H219  1  0.91860000  0.59270000  0.86980000  1.0 0.1022878288
H  H220  1  0.92280000  0.85040000  0.90990000  1.0 0.1305457008
H  H221  1  0.90020000  0.92220000  0.93000000  1.0 0.110473551
H  H222  1  0.89560000  0.98020000  0.85320000  1.0 0.110473551
H  H223  1  0.92700000  0.91130000  0.83130000  1.0 0.1234876427
H  H224  1  0.02800000  0.84500000  0.77640000  1.0 0.1305457008
H  H225  1  0.07410000  0.83560000  0.72880000  1.0 0.110473551
H  H226  1  0.02630000  0.70120000  0.73290000  1.0 0.1022878288
H  H227  1  0.97750000  0.70650000  0.78050000  1.0 0.1305457008
H  H228  1  0.55660000  0.56140000  0.74300000  1.0 0.110473551
H  H229  1  0.62610000  0.55910000  0.69700000  1.0 0.1305457008
H  H230  1  0.53060000  0.56570000  0.65570000  1.0 0.1022878288
H  H231  1  0.36570000  0.57470000  0.66040000  1.0 0.1022878288
H  H232  1  0.29620000  0.57700000  0.70640000  1.0 0.0807616127
C  C1  1  0.47920000  0.56210000  0.47070000  1.0 0.0692476084
C  C2  1  0.42570000  0.57090000  0.49561000  1.0 -0.1398696612
C  C3  1  0.46980000  0.59270000  0.51904000  1.0 0.0437143773
C  C4  1  0.56220000  0.60250000  0.51689000  1.0 -0.1304286352
C  C5  1  0.61510000  0.59010000  0.49260000  1.0 0.0807616127
C  C6  1  0.41490000  0.60330000  0.54569000  1.0 0.3601482904
C  C7  1  0.27660000  0.60100000  0.57091000  1.0 0.3683225502
C  C8  1  0.40860000  0.63350000  0.59056000  1.0 0.3601482904
C  C9  1  0.17510000  0.58600000  0.57405000  1.0 0.0509779861
C  C10  1  0.13090000  0.55980000  0.55300000  1.0 -0.1503576932
C  C11  1  0.03950000  0.54510000  0.55650000  1.0 0.0807616127
C  C12  1  0.03250000  0.57650000  0.60100000  1.0 0.0692476084
C  C13  1  0.12350000  0.59550000  0.59840000  1.0 -0.1503576932
C  C14  1  0.45890000  0.65570000  0.61507000  1.0 0.0509779861
C  C15  1  0.40990000  0.67780000  0.63815000  1.0 -0.1503576932
C  C16  1  0.46160000  0.70010000  0.65876000  1.0 0.0692476084
C  C17  1  0.60280000  0.67550000  0.63900000  1.0 0.0692476084
C  C18  1  0.55750000  0.65480000  0.61679000  1.0 -0.1398696612
C  C19  1  0.38080000  0.83310000  0.91888000  1.0 0.0509779861
C  C20  1  0.39640000  0.79450000  0.90456000  1.0 -0.1503576932
C  C21  1  0.42090000  0.79590000  0.87532000  1.0 0.0509779861
C  C22  1  0.42990000  0.83990000  0.86274000  1.0 -0.1503576932
C  C23  1  0.41380000  0.87810000  0.87877000  1.0 0.0612178854
C  C24  1  0.43320000  0.75220000  0.85773000  1.0 0.3683225502
C  C25  1  0.43540000  0.67440000  0.85384000  1.0 0.3601482904
C  C26  1  0.46630000  0.71890000  0.81447000  1.0 0.3601482904
C  C27  1  0.42300000  0.62790000  0.86748000  1.0 0.0509779861
C  C28  1  0.41720000  0.62330000  0.89798000  1.0 -0.1398696612
C  C29  1  0.40320000  0.58050000  0.90980000  1.0 0.0692476084
C  C30  1  0.40180000  0.54640000  0.86470000  1.0 0.0509779861
C  C31  1  0.41850000  0.58760000  0.85140000  1.0 -0.1503576932
C  C32  1  0.49520000  0.72300000  0.78386000  1.0 0.0509779861
C  C33  1  0.52680000  0.68460000  0.76790000  1.0 -0.1398696612
C  C34  1  0.55610000  0.69040000  0.73965000  1.0 0.0612178854
C  C35  1  0.52770000  0.76970000  0.74215000  1.0 0.085484596
C  C36  1  0.49690000  0.76680000  0.77042000  1.0 -0.1398696612
C  C37  1  0.91950000  0.93060000  0.72920000  1.0 0.0272715843
C  C38  1  0.01840000  0.93600000  0.72640000  1.0 -0.1304286352
C  C39  1  0.06000000  0.93730000  0.69890000  1.0 -0.0731687837
C  C40  1  0.00300000  0.93330000  0.67410000  1.0 -0.0641308085
C  C41  1  0.90400000  0.92800000  0.67700000  1.0 -0.0991029677
C  C42  1  0.86230000  0.92660000  0.70450000  1.0 -0.1398696612
C  C43  1  0.52080000  0.93790000  0.97070000  1.0 0.0692476084
C  C44  1  0.57430000  0.92910000  0.99561000  1.0 -0.1398696612
C  C45  1  0.53020000  0.90730000  0.01904000  1.0 0.0509779861
C  C46  1  0.43780000  0.89750000  0.01689000  1.0 -0.1398696612
C  C47  1  0.38490000  0.90990000  0.99260000  1.0 0.0807616127
C  C48  1  0.58510000  0.89670000  0.04569000  1.0 0.3601482904
C  C49  1  0.72340000  0.89900000  0.07091000  1.0 0.3683225502
C  C50  1  0.59140000  0.86650000  0.09056000  1.0 0.3601482904
C  C51  1  0.82490000  0.91400000  0.07405000  1.0 0.0612178854
C  C52  1  0.86910000  0.94020000  0.05300000  1.0 -0.1503576932
C  C53  1  0.96050000  0.95490000  0.05650000  1.0 0.0807616127
C  C54  1  0.96750000  0.92350000  0.10100000  1.0 0.0692476084
C  C55  1  0.87650000  0.90450000  0.09840000  1.0 -0.1503576932
C  C56  1  0.54110000  0.84430000  0.11507000  1.0 0.0509779861
C  C57  1  0.59010000  0.82220000  0.13815000  1.0 -0.1503576932
C  C58  1  0.53840000  0.79990000  0.15876000  1.0 0.0692476084
C  C59  1  0.39720000  0.82450000  0.13900000  1.0 0.0692476084
C  C60  1  0.44250000  0.84520000  0.11679000  1.0 -0.1398696612
C  C61  1  0.61920000  0.66690000  0.41888000  1.0 0.0437143773
C  C62  1  0.60360000  0.70550000  0.40456000  1.0 -0.1503576932
C  C63  1  0.57910000  0.70410000  0.37532000  1.0 0.0509779861
C  C64  1  0.57010000  0.66010000  0.36274000  1.0 -0.1503576932
C  C65  1  0.58620000  0.62190000  0.37877000  1.0 0.0612178854
C  C66  1  0.56680000  0.74780000  0.35773000  1.0 0.3683225502
C  C67  1  0.56460000  0.82560000  0.35384000  1.0 0.3683225502
C  C68  1  0.53370000  0.78110000  0.31447000  1.0 0.3601482904
C  C69  1  0.57700000  0.87210000  0.36748000  1.0 0.0509779861
C  C70  1  0.58280000  0.87670000  0.39798000  1.0 -0.1398696612
C  C71  1  0.59680000  0.91950000  0.40980000  1.0 0.0692476084
C  C72  1  0.59820000  0.95360000  0.36470000  1.0 0.0509779861
C  C73  1  0.58150000  0.91240000  0.35140000  1.0 -0.1503576932
C  C74  1  0.50480000  0.77700000  0.28386000  1.0 0.0509779861
C  C75  1  0.47320000  0.81540000  0.26790000  1.0 -0.1398696612
C  C76  1  0.44390000  0.80960000  0.23965000  1.0 0.0612178854
C  C77  1  0.47230000  0.73030000  0.24215000  1.0 0.085484596
C  C78  1  0.50310000  0.73320000  0.27042000  1.0 -0.1398696612
C  C79  1  0.08050000  0.56940000  0.22920000  1.0 0.0272715843
C  C80  1  0.98160000  0.56400000  0.22640000  1.0 -0.1304286352
C  C81  1  0.94000000  0.56270000  0.19890000  1.0 -0.0731687837
C  C82  1  0.99700000  0.56670000  0.17410000  1.0 -0.0641308085
C  C83  1  0.09600000  0.57200000  0.17700000  1.0 -0.0991029677
C  C84  1  0.13770000  0.57340000  0.20450000  1.0 -0.1398696612
C  C85  1  0.97920000  0.43790000  0.02930000  1.0 0.0692476084
C  C86  1  0.92570000  0.42910000  0.00439000  1.0 -0.1398696612
C  C87  1  0.96980000  0.40730000  0.98096000  1.0 0.0437143773
C  C88  1  0.06220000  0.39750000  0.98311000  1.0 -0.1398696612
C  C89  1  0.11510000  0.40990000  0.00740000  1.0 0.0807616127
C  C90  1  0.91490000  0.39670000  0.95431000  1.0 0.3601482904
C  C91  1  0.77660000  0.39900000  0.92909000  1.0 0.3683225502
C  C92  1  0.90860000  0.36650000  0.90944000  1.0 0.3601482904
C  C93  1  0.67510000  0.41400000  0.92595000  1.0 0.0509779861
C  C94  1  0.63090000  0.44020000  0.94700000  1.0 -0.1503576932
C  C95  1  0.53950000  0.45490000  0.94350000  1.0 0.0692476084
C  C96  1  0.53250000  0.42350000  0.89900000  1.0 0.0692476084
C  C97  1  0.62350000  0.40450000  0.90160000  1.0 -0.1503576932
C  C98  1  0.95890000  0.34430000  0.88493000  1.0 0.0509779861
C  C99  1  0.90990000  0.32220000  0.86185000  1.0 -0.1503576932
C  C100  1  0.96160000  0.29990000  0.84124000  1.0 0.0692476084
C  C101  1  0.10280000  0.32450000  0.86100000  1.0 0.0692476084
C  C102  1  0.05750000  0.34520000  0.88321000  1.0 -0.1398696612
C  C103  1  0.88080000  0.16690000  0.58112000  1.0 0.0437143773
C  C104  1  0.89640000  0.20550000  0.59544000  1.0 -0.1503576932
C  C105  1  0.92090000  0.20410000  0.62468000  1.0 0.0612178854
C  C106  1  0.92990000  0.16010000  0.63726000  1.0 -0.1503576932
C  C107  1  0.91380000  0.12190000  0.62123000  1.0 0.0612178854
C  C108  1  0.93320000  0.24780000  0.64227000  1.0 0.3601482904
C  C109  1  0.93540000  0.32560000  0.64616000  1.0 0.3683225502
C  C110  1  0.96630000  0.28110000  0.68553000  1.0 0.3601482904
C  C111  1  0.92300000  0.37210000  0.63252000  1.0 0.0509779861
C  C112  1  0.91720000  0.37670000  0.60202000  1.0 -0.1398696612
C  C113  1  0.90320000  0.41950000  0.59020000  1.0 0.0692476084
C  C114  1  0.90180000  0.45360000  0.63530000  1.0 0.0509779861
C  C115  1  0.91850000  0.41240000  0.64860000  1.0 -0.1503576932
C  C116  1  0.99520000  0.27700000  0.71614000  1.0 0.0509779861
C  C117  1  0.02680000  0.31540000  0.73210000  1.0 -0.1398696612
C  C118  1  0.05610000  0.30960000  0.76035000  1.0 0.0612178854
C  C119  1  0.02770000  0.23030000  0.75785000  1.0 0.0807616127
C  C120  1  0.99690000  0.23320000  0.72958000  1.0 -0.1398696612
C  C121  1  0.41950000  0.06940000  0.77080000  1.0 0.0272715843
C  C122  1  0.51840000  0.06400000  0.77360000  1.0 -0.1304286352
C  C123  1  0.56000000  0.06270000  0.80110000  1.0 -0.0731687837
C  C124  1  0.50300000  0.06670000  0.82590000  1.0 -0.0641308085
C  C125  1  0.40400000  0.07200000  0.82300000  1.0 -0.0991029677
C  C126  1  0.36230000  0.07340000  0.79550000  1.0 -0.1503576932
C  C127  1  0.02080000  0.06210000  0.52930000  1.0 0.0692476084
C  C128  1  0.07430000  0.07090000  0.50439000  1.0 -0.1398696612
C  C129  1  0.03020000  0.09270000  0.48096000  1.0 0.0437143773
C  C130  1  0.93780000  0.10250000  0.48311000  1.0 -0.1304286352
C  C131  1  0.88490000  0.09010000  0.50740000  1.0 0.0807616127
C  C132  1  0.08510000  0.10330000  0.45431000  1.0 0.3601482904
C  C133  1  0.22340000  0.10100000  0.42909000  1.0 0.3683225502
C  C134  1  0.09140000  0.13350000  0.40944000  1.0 0.3601482904
C  C135  1  0.32490000  0.08600000  0.42595000  1.0 0.0509779861
C  C136  1  0.36910000  0.05980000  0.44700000  1.0 -0.1503576932
C  C137  1  0.46050000  0.04510000  0.44350000  1.0 0.0692476084
C  C138  1  0.46750000  0.07650000  0.39900000  1.0 0.0692476084
C  C139  1  0.37650000  0.09550000  0.40160000  1.0 -0.1503576932
C  C140  1  0.04110000  0.15570000  0.38493000  1.0 0.0509779861
C  C141  1  0.09010000  0.17780000  0.36185000  1.0 -0.1503576932
C  C142  1  0.03840000  0.20010000  0.34124000  1.0 0.0692476084
C  C143  1  0.89720000  0.17550000  0.36100000  1.0 0.0692476084
C  C144  1  0.94250000  0.15480000  0.38321000  1.0 -0.1398696612
C  C145  1  0.11920000  0.33310000  0.08112000  1.0 0.0437143773
C  C146  1  0.10360000  0.29450000  0.09544000  1.0 -0.1503576932
C  C147  1  0.07910000  0.29590000  0.12468000  1.0 0.0509779861
C  C148  1  0.07010000  0.33990000  0.13726000  1.0 -0.1503576932
C  C149  1  0.08620000  0.37810000  0.12123000  1.0 0.0612178854
C  C150  1  0.06680000  0.25220000  0.14227000  1.0 0.3683225502
C  C151  1  0.06460000  0.17440000  0.14616000  1.0 0.3683225502
C  C152  1  0.03370000  0.21890000  0.18553000  1.0 0.3601482904
C  C153  1  0.07700000  0.12790000  0.13252000  1.0 0.0509779861
C  C154  1  0.08280000  0.12330000  0.10202000  1.0 -0.1398696612
C  C155  1  0.09680000  0.08050000  0.09020000  1.0 0.0612178854
C  C156  1  0.09820000  0.04640000  0.13530000  1.0 0.0509779861
C  C157  1  0.08150000  0.08760000  0.14860000  1.0 -0.1503576932
C  C158  1  0.00480000  0.22300000  0.21614000  1.0 0.0509779861
C  C159  1  0.97320000  0.18460000  0.23210000  1.0 -0.1398696612
C  C160  1  0.94390000  0.19040000  0.26035000  1.0 0.0612178854
C  C161  1  0.97230000  0.26970000  0.25785000  1.0 0.085484596
C  C162  1  0.00310000  0.26680000  0.22958000  1.0 -0.1398696612
C  C163  1  0.58050000  0.43060000  0.27080000  1.0 0.0272715843
C  C164  1  0.48160000  0.43600000  0.27360000  1.0 -0.1304286352
C  C165  1  0.44000000  0.43730000  0.30110000  1.0 -0.0731687837
C  C166  1  0.49700000  0.43330000  0.32590000  1.0 -0.0641308085
C  C167  1  0.59600000  0.42800000  0.32300000  1.0 -0.0991029677
C  C168  1  0.63770000  0.42660000  0.29550000  1.0 -0.1398696612
C  C169  1  0.52080000  0.43790000  0.52930000  1.0 0.0692476084
C  C170  1  0.57430000  0.42910000  0.50439000  1.0 -0.1398696612
C  C171  1  0.53020000  0.40730000  0.48096000  1.0 0.0437143773
C  C172  1  0.43780000  0.39750000  0.48311000  1.0 -0.1398696612
C  C173  1  0.38490000  0.40990000  0.50740000  1.0 0.0807616127
C  C174  1  0.58510000  0.39670000  0.45431000  1.0 0.3601482904
C  C175  1  0.72340000  0.39900000  0.42909000  1.0 0.3683225502
C  C176  1  0.59140000  0.36650000  0.40944000  1.0 0.3601482904
C  C177  1  0.82490000  0.41400000  0.42595000  1.0 0.0509779861
C  C178  1  0.86910000  0.44020000  0.44700000  1.0 -0.1503576932
C  C179  1  0.96050000  0.45490000  0.44350000  1.0 0.0807616127
C  C180  1  0.96750000  0.42350000  0.39900000  1.0 0.0692476084
C  C181  1  0.87650000  0.40450000  0.40160000  1.0 -0.1503576932
C  C182  1  0.54110000  0.34430000  0.38493000  1.0 0.0509779861
C  C183  1  0.59010000  0.32220000  0.36185000  1.0 -0.1503576932
C  C184  1  0.53840000  0.29990000  0.34124000  1.0 0.0692476084
C  C185  1  0.39720000  0.32450000  0.36100000  1.0 0.0692476084
C  C186  1  0.44250000  0.34520000  0.38321000  1.0 -0.1398696612
C  C187  1  0.61920000  0.16690000  0.08112000  1.0 0.0437143773
C  C188  1  0.60360000  0.20550000  0.09544000  1.0 -0.1503576932
C  C189  1  0.57910000  0.20410000  0.12468000  1.0 0.0509779861
C  C190  1  0.57010000  0.16010000  0.13726000  1.0 -0.1503576932
C  C191  1  0.58620000  0.12190000  0.12123000  1.0 0.0612178854
C  C192  1  0.56680000  0.24780000  0.14227000  1.0 0.3683225502
C  C193  1  0.56460000  0.32560000  0.14616000  1.0 0.3683225502
C  C194  1  0.53370000  0.28110000  0.18553000  1.0 0.3601482904
C  C195  1  0.57700000  0.37210000  0.13252000  1.0 0.0509779861
C  C196  1  0.58280000  0.37670000  0.10202000  1.0 -0.1398696612
C  C197  1  0.59680000  0.41950000  0.09020000  1.0 0.0612178854
C  C198  1  0.59820000  0.45360000  0.13530000  1.0 0.0509779861
C  C199  1  0.58150000  0.41240000  0.14860000  1.0 -0.1503576932
C  C200  1  0.50480000  0.27700000  0.21614000  1.0 0.0509779861
C  C201  1  0.47320000  0.31540000  0.23210000  1.0 -0.1398696612
C  C202  1  0.44390000  0.30960000  0.26035000  1.0 0.0612178854
C  C203  1  0.47230000  0.23030000  0.25785000  1.0 0.085484596
C  C204  1  0.50310000  0.23320000  0.22958000  1.0 -0.1398696612
C  C205  1  0.08050000  0.06940000  0.27080000  1.0 0.0272715843
C  C206  1  0.98160000  0.06400000  0.27360000  1.0 -0.1304286352
C  C207  1  0.94000000  0.06270000  0.30110000  1.0 -0.0731687837
C  C208  1  0.99700000  0.06670000  0.32590000  1.0 -0.0641308085
C  C209  1  0.09600000  0.07200000  0.32300000  1.0 -0.0991029677
C  C210  1  0.13770000  0.07340000  0.29550000  1.0 -0.1398696612
C  C211  1  0.47920000  0.06210000  0.02930000  1.0 0.0692476084
C  C212  1  0.42570000  0.07090000  0.00439000  1.0 -0.1398696612
C  C213  1  0.46980000  0.09270000  0.98096000  1.0 0.0437143773
C  C214  1  0.56220000  0.10250000  0.98311000  1.0 -0.1304286352
C  C215  1  0.61510000  0.09010000  0.00740000  1.0 0.0807616127
C  C216  1  0.41490000  0.10330000  0.95431000  1.0 0.3601482904
C  C217  1  0.27660000  0.10100000  0.92909000  1.0 0.3683225502
C  C218  1  0.40860000  0.13350000  0.90944000  1.0 0.3601482904
C  C219  1  0.17510000  0.08600000  0.92595000  1.0 0.0509779861
C  C220  1  0.13090000  0.05980000  0.94700000  1.0 -0.1503576932
C  C221  1  0.03950000  0.04510000  0.94350000  1.0 0.0807616127
C  C222  1  0.03250000  0.07650000  0.89900000  1.0 0.0692476084
C  C223  1  0.12350000  0.09550000  0.90160000  1.0 -0.1503576932
C  C224  1  0.45890000  0.15570000  0.88493000  1.0 0.0509779861
C  C225  1  0.40990000  0.17780000  0.86185000  1.0 -0.1503576932
C  C226  1  0.46160000  0.20010000  0.84124000  1.0 0.0692476084
C  C227  1  0.60280000  0.17550000  0.86100000  1.0 0.0692476084
C  C228  1  0.55750000  0.15480000  0.88321000  1.0 -0.1398696612
C  C229  1  0.38080000  0.33310000  0.58112000  1.0 0.0509779861
C  C230  1  0.39640000  0.29450000  0.59544000  1.0 -0.1503576932
C  C231  1  0.42090000  0.29590000  0.62468000  1.0 0.0509779861
C  C232  1  0.42990000  0.33990000  0.63726000  1.0 -0.1503576932
C  C233  1  0.41380000  0.37810000  0.62123000  1.0 0.0612178854
C  C234  1  0.43320000  0.25220000  0.64227000  1.0 0.3683225502
C  C235  1  0.43540000  0.17440000  0.64616000  1.0 0.3601482904
C  C236  1  0.46630000  0.21890000  0.68553000  1.0 0.3601482904
C  C237  1  0.42300000  0.12790000  0.63252000  1.0 0.0509779861
C  C238  1  0.41720000  0.12330000  0.60202000  1.0 -0.1398696612
C  C239  1  0.40320000  0.08050000  0.59020000  1.0 0.0612178854
C  C240  1  0.40180000  0.04640000  0.63530000  1.0 0.0509779861
C  C241  1  0.41850000  0.08760000  0.64860000  1.0 -0.1503576932
C  C242  1  0.49520000  0.22300000  0.71614000  1.0 0.0509779861
C  C243  1  0.52680000  0.18460000  0.73210000  1.0 -0.1398696612
C  C244  1  0.55610000  0.19040000  0.76035000  1.0 0.0612178854
C  C245  1  0.52770000  0.26970000  0.75785000  1.0 0.0807616127
C  C246  1  0.49690000  0.26680000  0.72958000  1.0 -0.1398696612
C  C247  1  0.91950000  0.43060000  0.77080000  1.0 0.0272715843
C  C248  1  0.01840000  0.43600000  0.77360000  1.0 -0.1304286352
C  C249  1  0.06000000  0.43730000  0.80110000  1.0 -0.0731687837
C  C250  1  0.00300000  0.43330000  0.82590000  1.0 -0.0641308085
C  C251  1  0.90400000  0.42800000  0.82300000  1.0 -0.0991029677
C  C252  1  0.86230000  0.42660000  0.79550000  1.0 -0.1398696612
C  C253  1  0.02080000  0.56210000  0.97070000  1.0 0.0692476084
C  C254  1  0.07430000  0.57090000  0.99561000  1.0 -0.1398696612
C  C255  1  0.03020000  0.59270000  0.01904000  1.0 0.0437143773
C  C256  1  0.93780000  0.60250000  0.01689000  1.0 -0.1304286352
C  C257  1  0.88490000  0.59010000  0.99260000  1.0 0.0807616127
C  C258  1  0.08510000  0.60330000  0.04569000  1.0 0.3601482904
C  C259  1  0.22340000  0.60100000  0.07091000  1.0 0.3683225502
C  C260  1  0.09140000  0.63350000  0.09056000  1.0 0.3601482904
C  C261  1  0.32490000  0.58600000  0.07405000  1.0 0.0509779861
C  C262  1  0.36910000  0.55980000  0.05300000  1.0 -0.1503576932
C  C263  1  0.46050000  0.54510000  0.05650000  1.0 0.0692476084
C  C264  1  0.46750000  0.57650000  0.10100000  1.0 0.0692476084
C  C265  1  0.37650000  0.59550000  0.09840000  1.0 -0.1551864178
C  C266  1  0.04110000  0.65570000  0.11507000  1.0 0.0509779861
C  C267  1  0.09010000  0.67780000  0.13815000  1.0 -0.1503576932
C  C268  1  0.03840000  0.70010000  0.15876000  1.0 0.0692476084
C  C269  1  0.89720000  0.67550000  0.13900000  1.0 0.0692476084
C  C270  1  0.94250000  0.65480000  0.11679000  1.0 -0.1398696612
C  C271  1  0.11920000  0.83310000  0.41888000  1.0 0.0437143773
C  C272  1  0.10360000  0.79450000  0.40456000  1.0 -0.1503576932
C  C273  1  0.07910000  0.79590000  0.37532000  1.0 0.0509779861
C  C274  1  0.07010000  0.83990000  0.36274000  1.0 -0.1503576932
C  C275  1  0.08620000  0.87810000  0.37877000  1.0 0.0612178854
C  C276  1  0.06680000  0.75220000  0.35773000  1.0 0.3683225502
C  C277  1  0.06460000  0.67440000  0.35384000  1.0 0.3683225502
C  C278  1  0.03370000  0.71890000  0.31447000  1.0 0.3601482904
C  C279  1  0.07700000  0.62790000  0.36748000  1.0 0.0509779861
C  C280  1  0.08280000  0.62330000  0.39798000  1.0 -0.1398696612
C  C281  1  0.09680000  0.58050000  0.40980000  1.0 0.0692476084
C  C282  1  0.09820000  0.54640000  0.36470000  1.0 0.0509779861
C  C283  1  0.08150000  0.58760000  0.35140000  1.0 -0.1503576932
C  C284  1  0.00480000  0.72300000  0.28386000  1.0 0.0509779861
C  C285  1  0.97320000  0.68460000  0.26790000  1.0 -0.1398696612
C  C286  1  0.94390000  0.69040000  0.23965000  1.0 0.0612178854
C  C287  1  0.97230000  0.76970000  0.24215000  1.0 0.085484596
C  C288  1  0.00310000  0.76680000  0.27042000  1.0 -0.1398696612
C  C289  1  0.58050000  0.93060000  0.22920000  1.0 0.0272715843
C  C290  1  0.48160000  0.93600000  0.22640000  1.0 -0.1304286352
C  C291  1  0.44000000  0.93730000  0.19890000  1.0 -0.0731687837
C  C292  1  0.49700000  0.93330000  0.17410000  1.0 -0.0641308085
C  C293  1  0.59600000  0.92800000  0.17700000  1.0 -0.0991029677
C  C294  1  0.63770000  0.92660000  0.20450000  1.0 -0.1398696612
C  C295  1  0.97920000  0.93790000  0.47070000  1.0 0.0692476084
C  C296  1  0.92570000  0.92910000  0.49561000  1.0 -0.1398696612
C  C297  1  0.96980000  0.90730000  0.51904000  1.0 0.0509779861
C  C298  1  0.06220000  0.89750000  0.51689000  1.0 -0.1398696612
C  C299  1  0.11510000  0.90990000  0.49260000  1.0 0.0807616127
C  C300  1  0.91490000  0.89670000  0.54569000  1.0 0.3601482904
C  C301  1  0.77660000  0.89900000  0.57091000  1.0 0.3683225502
C  C302  1  0.90860000  0.86650000  0.59056000  1.0 0.3601482904
C  C303  1  0.67510000  0.91400000  0.57405000  1.0 0.0509779861
C  C304  1  0.63090000  0.94020000  0.55300000  1.0 -0.1503576932
C  C305  1  0.53950000  0.95490000  0.55650000  1.0 0.0807616127
C  C306  1  0.53250000  0.92350000  0.60100000  1.0 0.0692476084
C  C307  1  0.62350000  0.90450000  0.59840000  1.0 -0.1503576932
C  C308  1  0.95890000  0.84430000  0.61507000  1.0 0.0509779861
C  C309  1  0.90990000  0.82220000  0.63815000  1.0 -0.1503576932
C  C310  1  0.96160000  0.79990000  0.65876000  1.0 0.0692476084
C  C311  1  0.10280000  0.82450000  0.63900000  1.0 0.0692476084
C  C312  1  0.05750000  0.84520000  0.61679000  1.0 -0.1398696612
C  C313  1  0.88080000  0.66690000  0.91888000  1.0 0.0509779861
C  C314  1  0.89640000  0.70550000  0.90456000  1.0 -0.1503576932
C  C315  1  0.92090000  0.70410000  0.87532000  1.0 0.0509779861
C  C316  1  0.92990000  0.66010000  0.86274000  1.0 -0.1503576932
C  C317  1  0.91380000  0.62190000  0.87877000  1.0 0.0612178854
C  C318  1  0.93320000  0.74780000  0.85773000  1.0 0.3683225502
C  C319  1  0.93540000  0.82560000  0.85384000  1.0 0.3683225502
C  C320  1  0.96630000  0.78110000  0.81447000  1.0 0.3601482904
C  C321  1  0.92300000  0.87210000  0.86748000  1.0 0.0509779861
C  C322  1  0.91720000  0.87670000  0.89798000  1.0 -0.1398696612
C  C323  1  0.90320000  0.91950000  0.90980000  1.0 0.0692476084
C  C324  1  0.90180000  0.95360000  0.86470000  1.0 0.0509779861
C  C325  1  0.91850000  0.91240000  0.85140000  1.0 -0.1503576932
C  C326  1  0.99520000  0.77700000  0.78386000  1.0 0.0509779861
C  C327  1  0.02680000  0.81540000  0.76790000  1.0 -0.1398696612
C  C328  1  0.05610000  0.80960000  0.73965000  1.0 0.0612178854
C  C329  1  0.02770000  0.73030000  0.74215000  1.0 0.085484596
C  C330  1  0.99690000  0.73320000  0.77042000  1.0 -0.1398696612
C  C331  1  0.41950000  0.56940000  0.72920000  1.0 0.0272715843
C  C332  1  0.51840000  0.56400000  0.72640000  1.0 -0.1304286352
C  C333  1  0.56000000  0.56270000  0.69890000  1.0 -0.0731687837
C  C334  1  0.50300000  0.56670000  0.67410000  1.0 -0.0641308085
C  C335  1  0.40400000  0.57200000  0.67700000  1.0 -0.0991029677
C  C336  1  0.36230000  0.57340000  0.70450000  1.0 -0.1503576932
I  I1  1  0.56612000  0.49656000  0.40293000  1.0 -0.3011471083
I  I2  1  0.82449000  0.57194000  0.44097000  1.0 -0.3864811355
I  I3  1  0.76853000  0.56778000  0.62581000  1.0 -0.4504004946
I  I4  1  0.78618000  0.50470000  0.53712000  1.0 -0.4693797187
I  I5  1  0.79624000  0.70122000  0.69512000  1.0 -0.4557403804
I  I6  1  0.63054000  0.82522000  0.67240000  1.0 -0.3120764152
I  I7  1  0.83300000  0.54880000  0.37070000  1.0 0.0509779861
I  I8  1  0.86400000  0.55820000  0.31020000  1.0 -0.0130217475
I  I9  1  0.74140000  0.87650000  0.71860000  1.0 0.0692476084
I  I10  1  0.84790000  0.92100000  0.76190000  1.0 0.3280641754
I  I11  1  0.73550000  0.49110000  0.36250000  1.0 0.0509779861
I  I12  1  0.89220000  0.48590000  0.32490000  1.0 0.0137642593
I  I13  1  0.43388000  0.00344000  0.90293000  1.0 -0.3011471083
I  I14  1  0.17551000  0.92806000  0.94097000  1.0 -0.3864811355
I  I15  1  0.23147000  0.93222000  0.12581000  1.0 -0.4436938048
I  I16  1  0.21382000  0.99530000  0.03712000  1.0 -0.4693797187
I  I17  1  0.20376000  0.79878000  0.19512000  1.0 -0.4504004946
I  I18  1  0.36946000  0.67478000  0.17240000  1.0 -0.3120764152
I  I19  1  0.16700000  0.95120000  0.87070000  1.0 0.0509779861
I  I20  1  0.13600000  0.94180000  0.81020000  1.0 -0.0130217475
I  I21  1  0.25860000  0.62350000  0.21860000  1.0 0.0692476084
I  I22  1  0.15210000  0.57900000  0.26190000  1.0 0.3280641754
I  I23  1  0.26450000  0.00890000  0.86250000  1.0 0.0509779861
I  I24  1  0.10780000  0.01410000  0.82490000  1.0 0.0137642593
I  I25  1  0.06612000  0.50344000  0.09707000  1.0 -0.3011471083
I  I26  1  0.32449000  0.42806000  0.05903000  1.0 -0.3864811355
I  I27  1  0.26853000  0.43222000  0.87419000  1.0 -0.4504004946
I  I28  1  0.28618000  0.49530000  0.96288000  1.0 -0.4693797187
I  I29  1  0.29624000  0.29878000  0.80488000  1.0 -0.4504004946
I  I30  1  0.13054000  0.17478000  0.82760000  1.0 -0.3120764152
I  I31  1  0.33300000  0.45120000  0.12930000  1.0 0.0509779861
I  I32  1  0.36400000  0.44180000  0.18980000  1.0 -0.0130217475
I  I33  1  0.24140000  0.12350000  0.78140000  1.0 0.0692476084
I  I34  1  0.34790000  0.07900000  0.73810000  1.0 0.3280641754
I  I35  1  0.23550000  0.50890000  0.13750000  1.0 0.0509779861
I  I36  1  0.39220000  0.51410000  0.17510000  1.0 0.0137642593
I  I37  1  0.93388000  0.99656000  0.59707000  1.0 -0.3011471083
I  I38  1  0.67551000  0.07194000  0.55903000  1.0 -0.3864811355
I  I39  1  0.73147000  0.06778000  0.37419000  1.0 -0.4504004946
I  I40  1  0.71382000  0.00470000  0.46288000  1.0 -0.4693797187
I  I41  1  0.70376000  0.20122000  0.30488000  1.0 -0.4504004946
I  I42  1  0.86946000  0.32522000  0.32760000  1.0 -0.3120764152
I  I43  1  0.66700000  0.04880000  0.62930000  1.0 0.0509779861
I  I44  1  0.63600000  0.05820000  0.68980000  1.0 -0.0177916436
I  I45  1  0.75860000  0.37650000  0.28140000  1.0 0.0807616127
I  I46  1  0.65210000  0.42100000  0.23810000  1.0 0.3180758326
I  I47  1  0.76450000  0.99110000  0.63750000  1.0 0.0509779861
I  I48  1  0.60780000  0.98590000  0.67510000  1.0 0.0137642593
I  I49  1  0.43388000  0.50344000  0.59707000  1.0 -0.3011471083
I  I50  1  0.17551000  0.42806000  0.55903000  1.0 -0.3864811355
I  I51  1  0.23147000  0.43222000  0.37419000  1.0 -0.4504004946
I  I52  1  0.21382000  0.49530000  0.46288000  1.0 -0.4693797187
I  I53  1  0.20376000  0.29878000  0.30488000  1.0 -0.4504004946
I  I54  1  0.36946000  0.17478000  0.32760000  1.0 -0.3120764152
I  I55  1  0.16700000  0.45120000  0.62930000  1.0 0.0509779861
I  I56  1  0.13600000  0.44180000  0.68980000  1.0 -0.0130217475
I  I57  1  0.25860000  0.12350000  0.28140000  1.0 0.0692476084
I  I58  1  0.15210000  0.07900000  0.23810000  1.0 0.3280641754
I  I59  1  0.26450000  0.50890000  0.63750000  1.0 0.0509779861
I  I60  1  0.10780000  0.51410000  0.67510000  1.0 0.0137642593
I  I61  1  0.56612000  0.99656000  0.09707000  1.0 -0.3011471083
I  I62  1  0.82449000  0.07194000  0.05903000  1.0 -0.3864811355
I  I63  1  0.76853000  0.06778000  0.87419000  1.0 -0.4504004946
I  I64  1  0.78618000  0.00470000  0.96288000  1.0 -0.4693797187
I  I65  1  0.79624000  0.20122000  0.80488000  1.0 -0.4504004946
I  I66  1  0.63054000  0.32522000  0.82760000  1.0 -0.3120764152
I  I67  1  0.83300000  0.04880000  0.12930000  1.0 0.0509779861
I  I68  1  0.86400000  0.05820000  0.18980000  1.0 -0.0177916436
I  I69  1  0.74140000  0.37650000  0.78140000  1.0 0.0692476084
I  I70  1  0.84790000  0.42100000  0.73810000  1.0 0.3180758326
I  I71  1  0.73550000  0.99110000  0.13750000  1.0 0.0509779861
I  I72  1  0.89220000  0.98590000  0.17510000  1.0 0.0137642593
I  I73  1  0.93388000  0.49656000  0.90293000  1.0 -0.3011471083
I  I74  1  0.67551000  0.57194000  0.94097000  1.0 -0.3864811355
I  I75  1  0.73147000  0.56778000  0.12581000  1.0 -0.4504004946
I  I76  1  0.71382000  0.50470000  0.03712000  1.0 -0.4693797187
I  I77  1  0.70376000  0.70122000  0.19512000  1.0 -0.4557403804
I  I78  1  0.86946000  0.82522000  0.17240000  1.0 -0.3120764152
I  I79  1  0.66700000  0.54880000  0.87070000  1.0 0.0509779861
I  I80  1  0.63600000  0.55820000  0.81020000  1.0 -0.0130217475
I  I81  1  0.75860000  0.87650000  0.21860000  1.0 0.0692476084
I  I82  1  0.65210000  0.92100000  0.26190000  1.0 0.3280641754
I  I83  1  0.76450000  0.49110000  0.86250000  1.0 0.0509779861
I  I84  1  0.60780000  0.48590000  0.82490000  1.0 0.0137642593
I  I85  1  0.06612000  0.00344000  0.40293000  1.0 -0.3011471083
I  I86  1  0.32449000  0.92806000  0.44097000  1.0 -0.3864811355
I  I87  1  0.26853000  0.93222000  0.62581000  1.0 -0.4436938048
I  I88  1  0.28618000  0.99530000  0.53712000  1.0 -0.4693797187
I  I89  1  0.29624000  0.79878000  0.69512000  1.0 -0.4504004946
I  I90  1  0.13054000  0.67478000  0.67240000  1.0 -0.3120764152
I  I91  1  0.33300000  0.95120000  0.37070000  1.0 0.0509779861
I  I92  1  0.36400000  0.94180000  0.31020000  1.0 -0.0130217475
I  I93  1  0.24140000  0.62350000  0.71860000  1.0 0.0692476084
I  I94  1  0.34790000  0.57900000  0.76190000  1.0 0.3280641754
I  I95  1  0.23550000  0.00890000  0.36250000  1.0 0.0509779861
I  I96  1  0.39220000  0.01410000  0.32490000  1.0 0.0137642593
N  N1  1  0.57440000  0.57270000  0.46853000  1.0 -0.186529347
N  N2  1  0.32260000  0.59100000  0.54616000  1.0 -0.3791068469
N  N3  1  0.31730000  0.62330000  0.59379000  1.0 -0.3791068469
N  N4  1  0.45980000  0.62350000  0.56760000  1.0 -0.3791068469
N  N5  1  0.99130000  0.55210000  0.58048000  1.0 -0.1805555007
N  N6  1  0.55750000  0.70040000  0.65957000  1.0 -0.186529347
N  N7  1  0.39090000  0.87650000  0.90708000  1.0 -0.1805555007
N  N8  1  0.42340000  0.71250000  0.87105000  1.0 -0.4016430141
N  N9  1  0.45730000  0.67560000  0.82611000  1.0 -0.3791068469
N  N10  1  0.45460000  0.75810000  0.82963000  1.0 -0.4016430141
N  N11  1  0.39350000  0.54140000  0.89350000  1.0 -0.1736466171
N  N12  1  0.55930000  0.73330000  0.72736000  1.0 -0.1805555007
N  N13  1  0.88040000  0.92930000  0.75550000  1.0 -0.0177916436
N  N14  1  0.42560000  0.92730000  0.96853000  1.0 -0.186529347
N  N15  1  0.67740000  0.90900000  0.04616000  1.0 -0.3791068469
N  N16  1  0.68270000  0.87670000  0.09379000  1.0 -0.3791068469
N  N17  1  0.54020000  0.87650000  0.06760000  1.0 -0.3791068469
N  N18  1  0.00870000  0.94790000  0.08048000  1.0 -0.1805555007
N  N19  1  0.44250000  0.79960000  0.15957000  1.0 -0.186529347
N  N20  1  0.60910000  0.62350000  0.40708000  1.0 -0.1805555007
N  N21  1  0.57660000  0.78750000  0.37105000  1.0 -0.4016430141
N  N22  1  0.54270000  0.82440000  0.32611000  1.0 -0.3791068469
N  N23  1  0.54540000  0.74190000  0.32963000  1.0 -0.4016430141
N  N24  1  0.60650000  0.95860000  0.39350000  1.0 -0.1736466171
N  N25  1  0.44070000  0.76670000  0.22736000  1.0 -0.1805555007
N  N26  1  0.11960000  0.57070000  0.25550000  1.0 -0.0269644766
N  N27  1  0.07440000  0.42730000  0.03147000  1.0 -0.186529347
N  N28  1  0.82260000  0.40900000  0.95384000  1.0 -0.3791068469
N  N29  1  0.81730000  0.37670000  0.90621000  1.0 -0.3791068469
N  N30  1  0.95980000  0.37650000  0.93240000  1.0 -0.3791068469
N  N31  1  0.49130000  0.44790000  0.91952000  1.0 -0.1805555007
N  N32  1  0.05750000  0.29960000  0.84043000  1.0 -0.186529347
N  N33  1  0.89090000  0.12350000  0.59292000  1.0 -0.1805555007
N  N34  1  0.92340000  0.28750000  0.62895000  1.0 -0.4016430141
N  N35  1  0.95730000  0.32440000  0.67389000  1.0 -0.3791068469
N  N36  1  0.95460000  0.24190000  0.67037000  1.0 -0.4016430141
N  N37  1  0.89350000  0.45860000  0.60650000  1.0 -0.1736466171
N  N38  1  0.05930000  0.26670000  0.77264000  1.0 -0.1805555007
N  N39  1  0.38040000  0.07070000  0.74450000  1.0 -0.0269644766
N  N40  1  0.92560000  0.07270000  0.53147000  1.0 -0.186529347
N  N41  1  0.17740000  0.09100000  0.45384000  1.0 -0.3791068469
N  N42  1  0.18270000  0.12330000  0.40621000  1.0 -0.3791068469
N  N43  1  0.04020000  0.12350000  0.43240000  1.0 -0.3791068469
N  N44  1  0.50870000  0.05210000  0.41952000  1.0 -0.1805555007
N  N45  1  0.94250000  0.20040000  0.34043000  1.0 -0.186529347
N  N46  1  0.10910000  0.37650000  0.09292000  1.0 -0.1805555007
N  N47  1  0.07660000  0.21250000  0.12895000  1.0 -0.4016430141
N  N48  1  0.04270000  0.17560000  0.17389000  1.0 -0.3791068469
N  N49  1  0.04540000  0.25810000  0.17037000  1.0 -0.4016430141
N  N50  1  0.10650000  0.04140000  0.10650000  1.0 -0.1736466171
N  N51  1  0.94070000  0.23330000  0.27264000  1.0 -0.1805555007
N  N52  1  0.61960000  0.42930000  0.24450000  1.0 -0.0130217475
N  N53  1  0.42560000  0.42730000  0.53147000  1.0 -0.186529347
N  N54  1  0.67740000  0.40900000  0.45384000  1.0 -0.3791068469
N  N55  1  0.68270000  0.37670000  0.40621000  1.0 -0.3791068469
N  N56  1  0.54020000  0.37650000  0.43240000  1.0 -0.3791068469
N  N57  1  0.00870000  0.44790000  0.41952000  1.0 -0.1805555007
N  N58  1  0.44250000  0.29960000  0.34043000  1.0 -0.186529347
N  N59  1  0.60910000  0.12350000  0.09292000  1.0 -0.1805555007
N  N60  1  0.57660000  0.28750000  0.12895000  1.0 -0.4016430141
N  N61  1  0.54270000  0.32440000  0.17389000  1.0 -0.3791068469
N  N62  1  0.54540000  0.24190000  0.17037000  1.0 -0.4051366032
N  N63  1  0.60650000  0.45860000  0.10650000  1.0 -0.1736466171
N  N64  1  0.44070000  0.26670000  0.27264000  1.0 -0.1805555007
N  N65  1  0.11960000  0.07070000  0.24450000  1.0 -0.0269644766
N  N66  1  0.57440000  0.07270000  0.03147000  1.0 -0.186529347
N  N67  1  0.32260000  0.09100000  0.95384000  1.0 -0.3791068469
N  N68  1  0.31730000  0.12330000  0.90621000  1.0 -0.3791068469
N  N69  1  0.45980000  0.12350000  0.93240000  1.0 -0.3791068469
N  N70  1  0.99130000  0.05210000  0.91952000  1.0 -0.1805555007
N  N71  1  0.55750000  0.20040000  0.84043000  1.0 -0.186529347
N  N72  1  0.39090000  0.37650000  0.59292000  1.0 -0.1805555007
N  N73  1  0.42340000  0.21250000  0.62895000  1.0 -0.4016430141
N  N74  1  0.45730000  0.17560000  0.67389000  1.0 -0.3791068469
N  N75  1  0.45460000  0.25810000  0.67037000  1.0 -0.4016430141
N  N76  1  0.39350000  0.04140000  0.60650000  1.0 -0.1736466171
N  N77  1  0.55930000  0.23330000  0.77264000  1.0 -0.1805555007
N  N78  1  0.88040000  0.42930000  0.74450000  1.0 -0.0130217475
N  N79  1  0.92560000  0.57270000  0.96853000  1.0 -0.186529347
N  N80  1  0.17740000  0.59100000  0.04616000  1.0 -0.3791068469
N  N81  1  0.18270000  0.62330000  0.09379000  1.0 -0.3791068469
N  N82  1  0.04020000  0.62350000  0.06760000  1.0 -0.3791068469
N  N83  1  0.50870000  0.55210000  0.08048000  1.0 -0.1805555007
N  N84  1  0.94250000  0.70040000  0.15957000  1.0 -0.186529347
N  N85  1  0.10910000  0.87650000  0.40708000  1.0 -0.1805555007
N  N86  1  0.07660000  0.71250000  0.37105000  1.0 -0.4016430141
N  N87  1  0.04270000  0.67560000  0.32611000  1.0 -0.3791068469
N  N88  1  0.04540000  0.75810000  0.32963000  1.0 -0.4016430141
N  N89  1  0.10650000  0.54140000  0.39350000  1.0 -0.1736466171
N  N90  1  0.94070000  0.73330000  0.22736000  1.0 -0.1805555007
N  N91  1  0.61960000  0.92930000  0.25550000  1.0 -0.0177916436
N  N92  1  0.07440000  0.92730000  0.46853000  1.0 -0.186529347
N  N93  1  0.82260000  0.90900000  0.54616000  1.0 -0.3791068469
N  N94  1  0.81730000  0.87670000  0.59379000  1.0 -0.3791068469
N  N95  1  0.95980000  0.87650000  0.56760000  1.0 -0.3791068469
N  N96  1  0.49130000  0.94790000  0.58048000  1.0 -0.1805555007
N  N97  1  0.05750000  0.79960000  0.65957000  1.0 -0.186529347
N  N98  1  0.89090000  0.62350000  0.90708000  1.0 -0.1805555007
N  N99  1  0.92340000  0.78750000  0.87105000  1.0 -0.4016430141
N  N100  1  0.95730000  0.82440000  0.82611000  1.0 -0.3791068469
N  N101  1  0.95460000  0.74190000  0.82963000  1.0 -0.4016430141
N  N102  1  0.89350000  0.95860000  0.89350000  1.0 -0.1736466171
N  N103  1  0.05930000  0.76670000  0.72736000  1.0 -0.1805555007
N  N104  1  0.38040000  0.57070000  0.75550000  1.0 -0.0269644766
O  O1  1  0.78920000  0.92440000  0.75830000  1.0 -0.263332154
O  O2  1  0.93640000  0.93320000  0.77790000  1.0 -0.3011471083
O  O3  1  0.21080000  0.57560000  0.25830000  1.0 -0.263332154
O  O4  1  0.06360000  0.56680000  0.27790000  1.0 -0.3011471083
O  O5  1  0.28920000  0.07560000  0.74170000  1.0 -0.263332154
O  O6  1  0.43640000  0.06680000  0.72210000  1.0 -0.3011471083
O  O7  1  0.71080000  0.42440000  0.24170000  1.0 -0.263332154
O  O8  1  0.56360000  0.43320000  0.22210000  1.0 -0.3011471083
O  O9  1  0.21080000  0.07560000  0.24170000  1.0 -0.263332154
O  O10  1  0.06360000  0.06680000  0.22210000  1.0 -0.3011471083
O  O11  1  0.78920000  0.42440000  0.74170000  1.0 -0.263332154
O  O12  1  0.93640000  0.43320000  0.72210000  1.0 -0.3011471083
O  O13  1  0.71080000  0.92440000  0.25830000  1.0 -0.263332154
O  O14  1  0.56360000  0.93320000  0.27790000  1.0 -0.3011471083
O  O15  1  0.28920000  0.57560000  0.75830000  1.0 -0.263332154
O  O16  1  0.43640000  0.56680000  0.77790000  1.0 -0.3011471083
