# DDEC6 charges by PACMAN v1.1 (https://github.com/mtap-research/PACMAN-charge/)
data_KEVWOA_FSR_pacman
_symmetry_space_group_name_H-M   'P 1'
_cell_length_a   13.91210000
_cell_length_b   28.52080000
_cell_length_c   45.79600000
_cell_angle_alpha   90.00000000
_cell_angle_beta   90.00000000
_cell_angle_gamma   90.00000000
_symmetry_Int_Tables_number   1
_chemical_formula_structural   Zn3H29C42I12N13O2
_chemical_formula_sum   'Zn24 H232 C336 I96 N104 O16'
_cell_volume   18171.13021606
_cell_formula_units_Z   8
loop_
 _symmetry_equiv_pos_site_id
 _symmetry_equiv_pos_as_xyz
  1  'x, y, z'
loop_
 _atom_site_type_symbol
 _atom_site_label
 _atom_site_symmetry_multiplicity
 _atom_site_fract_x
 _atom_site_fract_y
 _atom_site_fract_z
 _atom_site_occupancy
 _atom_site_charge
Zn  Zn1  1  0.64428000  0.56318000  0.43031000  1.0 0.4229329232
Zn  Zn2  1  0.85756000  0.52155000  0.58704000  1.0 0.4537257605
Zn  Zn3  1  0.63296000  0.74043000  0.68859000  1.0 0.4403940269
Zn  Zn4  1  0.35572000  0.93682000  0.93031000  1.0 0.4229329232
Zn  Zn5  1  0.14244000  0.97845000  0.08704000  1.0 0.4537257605
Zn  Zn6  1  0.36704000  0.75957000  0.18859000  1.0 0.4403940269
Zn  Zn7  1  0.14428000  0.43682000  0.06969000  1.0 0.4229329232
Zn  Zn8  1  0.35756000  0.47845000  0.91296000  1.0 0.4567111784
Zn  Zn9  1  0.13296000  0.25957000  0.81141000  1.0 0.4403940269
Zn  Zn10  1  0.85572000  0.06318000  0.56969000  1.0 0.4256308728
Zn  Zn11  1  0.64244000  0.02155000  0.41296000  1.0 0.4567111784
Zn  Zn12  1  0.86704000  0.24043000  0.31141000  1.0 0.4403940269
Zn  Zn13  1  0.35572000  0.43682000  0.56969000  1.0 0.4229329232
Zn  Zn14  1  0.14244000  0.47845000  0.41296000  1.0 0.4537257605
Zn  Zn15  1  0.36704000  0.25957000  0.31141000  1.0 0.4403940269
Zn  Zn16  1  0.64428000  0.06318000  0.06969000  1.0 0.4229329232
Zn  Zn17  1  0.85756000  0.02155000  0.91296000  1.0 0.4537257605
Zn  Zn18  1  0.63296000  0.24043000  0.81141000  1.0 0.4403940269
Zn  Zn19  1  0.85572000  0.56318000  0.93031000  1.0 0.4256308728
Zn  Zn20  1  0.64244000  0.52155000  0.08704000  1.0 0.4567111784
Zn  Zn21  1  0.86704000  0.74043000  0.18859000  1.0 0.4403940269
Zn  Zn22  1  0.14428000  0.93682000  0.43031000  1.0 0.4229329232
Zn  Zn23  1  0.35756000  0.97845000  0.58704000  1.0 0.4567111784
Zn  Zn24  1  0.13296000  0.75957000  0.68859000  1.0 0.4403940269
H  H1  1  0.44950000  0.54310000  0.45680000  1.0 0.1094588317
H  H2  1  0.35770000  0.56480000  0.49620000  1.0 0.1303683164
H  H3  1  0.59670000  0.61130000  0.53330000  1.0 0.1391848298
H  H4  1  0.67810000  0.59580000  0.49260000  1.0 0.1094588317
H  H5  1  0.16100000  0.55120000  0.53630000  1.0 0.1391848298
H  H6  1  0.01520000  0.52740000  0.54110000  1.0 0.1203466129
H  H7  1  0.99770000  0.57960000  0.61860000  1.0 0.1000067866
H  H8  1  0.14930000  0.61420000  0.61350000  1.0 0.1303683164
H  H9  1  0.34130000  0.67740000  0.63810000  1.0 0.1303683164
H  H10  1  0.42990000  0.71600000  0.67400000  1.0 0.1000067866
H  H11  1  0.66710000  0.67760000  0.63860000  1.0 0.1203466129
H  H12  1  0.59590000  0.63960000  0.60340000  1.0 0.1391848298
H  H13  1  0.35620000  0.83280000  0.93810000  1.0 0.1094588317
H  H14  1  0.39810000  0.76500000  0.91560000  1.0 0.1391848298
H  H15  1  0.44650000  0.84360000  0.84380000  1.0 0.1391848298
H  H16  1  0.41870000  0.90630000  0.87030000  1.0 0.1000067866
H  H17  1  0.41530000  0.64930000  0.90990000  1.0 0.1303683164
H  H18  1  0.40320000  0.57830000  0.92960000  1.0 0.1094588317
H  H19  1  0.39510000  0.51920000  0.85320000  1.0 0.1094588317
H  H20  1  0.43020000  0.58750000  0.83150000  1.0 0.1203466129
H  H21  1  0.52890000  0.65550000  0.77620000  1.0 0.1391848298
H  H22  1  0.57210000  0.66480000  0.73030000  1.0 0.1094588317
H  H23  1  0.52000000  0.79790000  0.73330000  1.0 0.1094588317
H  H24  1  0.48280000  0.79270000  0.78100000  1.0 0.1303683164
H  H25  1  0.06110000  0.93980000  0.74110000  1.0 0.1094588317
H  H26  1  0.12660000  0.93830000  0.69450000  1.0 0.1303683164
H  H27  1  0.02680000  0.93260000  0.65410000  1.0 0.1000067866
H  H28  1  0.86150000  0.92840000  0.66020000  1.0 0.1094588317
H  H29  1  0.79600000  0.93000000  0.70680000  1.0 0.0876953114
H  H30  1  0.55050000  0.95690000  0.95680000  1.0 0.1094588317
H  H31  1  0.64230000  0.93520000  0.99620000  1.0 0.1303683164
H  H32  1  0.40330000  0.88870000  0.03330000  1.0 0.1391848298
H  H33  1  0.32190000  0.90420000  0.99260000  1.0 0.1094588317
H  H34  1  0.83900000  0.94880000  0.03630000  1.0 0.1391848298
H  H35  1  0.98480000  0.97260000  0.04110000  1.0 0.1203466129
H  H36  1  0.00230000  0.92040000  0.11860000  1.0 0.1000067866
H  H37  1  0.85070000  0.88580000  0.11350000  1.0 0.1303683164
H  H38  1  0.65870000  0.82260000  0.13810000  1.0 0.1303683164
H  H39  1  0.57010000  0.78400000  0.17400000  1.0 0.1000067866
H  H40  1  0.33290000  0.82240000  0.13860000  1.0 0.1203466129
H  H41  1  0.40410000  0.86040000  0.10340000  1.0 0.1391848298
H  H42  1  0.64380000  0.66720000  0.43810000  1.0 0.1094588317
H  H43  1  0.60190000  0.73500000  0.41560000  1.0 0.1391848298
H  H44  1  0.55350000  0.65640000  0.34380000  1.0 0.1391848298
H  H45  1  0.58130000  0.59370000  0.37030000  1.0 0.1000067866
H  H46  1  0.58470000  0.85070000  0.40990000  1.0 0.1303683164
H  H47  1  0.59680000  0.92170000  0.42960000  1.0 0.1094588317
H  H48  1  0.60490000  0.98080000  0.35320000  1.0 0.1094588317
H  H49  1  0.56980000  0.91250000  0.33150000  1.0 0.1203466129
H  H50  1  0.47110000  0.84450000  0.27620000  1.0 0.1391848298
H  H51  1  0.42790000  0.83520000  0.23030000  1.0 0.1094588317
H  H52  1  0.48000000  0.70210000  0.23330000  1.0 0.1094588317
H  H53  1  0.51720000  0.70730000  0.28100000  1.0 0.1303683164
H  H54  1  0.93890000  0.56020000  0.24110000  1.0 0.1094588317
H  H55  1  0.87340000  0.56170000  0.19450000  1.0 0.1303683164
H  H56  1  0.97320000  0.56740000  0.15410000  1.0 0.1000067866
H  H57  1  0.13850000  0.57160000  0.16020000  1.0 0.1094588317
H  H58  1  0.20400000  0.57000000  0.20680000  1.0 0.0876953114
H  H59  1  0.94950000  0.45690000  0.04320000  1.0 0.1094588317
H  H60  1  0.85770000  0.43520000  0.00380000  1.0 0.1303683164
H  H61  1  0.09670000  0.38870000  0.96670000  1.0 0.1391848298
H  H62  1  0.17810000  0.40420000  0.00740000  1.0 0.1094588317
H  H63  1  0.66100000  0.44880000  0.96370000  1.0 0.1391848298
H  H64  1  0.51520000  0.47260000  0.95890000  1.0 0.1203466129
H  H65  1  0.49770000  0.42040000  0.88140000  1.0 0.1000067866
H  H66  1  0.64930000  0.38580000  0.88650000  1.0 0.1303683164
H  H67  1  0.84130000  0.32260000  0.86190000  1.0 0.1391848298
H  H68  1  0.92990000  0.28400000  0.82600000  1.0 0.1000067866
H  H69  1  0.16710000  0.32240000  0.86140000  1.0 0.1203466129
H  H70  1  0.09590000  0.36040000  0.89660000  1.0 0.1391848298
H  H71  1  0.85620000  0.16720000  0.56190000  1.0 0.1094588317
H  H72  1  0.89810000  0.23500000  0.58440000  1.0 0.1391848298
H  H73  1  0.94650000  0.15640000  0.65620000  1.0 0.1391848298
H  H74  1  0.91870000  0.09370000  0.62970000  1.0 0.1000067866
H  H75  1  0.91530000  0.35070000  0.59010000  1.0 0.1303683164
H  H76  1  0.90320000  0.42170000  0.57040000  1.0 0.1094588317
H  H77  1  0.89510000  0.48080000  0.64680000  1.0 0.1094588317
H  H78  1  0.93020000  0.41250000  0.66850000  1.0 0.1203466129
H  H79  1  0.02890000  0.34450000  0.72380000  1.0 0.1391848298
H  H80  1  0.07210000  0.33520000  0.76970000  1.0 0.1094588317
H  H81  1  0.02000000  0.20210000  0.76670000  1.0 0.1094588317
H  H82  1  0.98280000  0.20730000  0.71900000  1.0 0.1303683164
H  H83  1  0.56110000  0.06020000  0.75890000  1.0 0.1094588317
H  H84  1  0.62660000  0.06170000  0.80550000  1.0 0.1303683164
H  H85  1  0.52680000  0.06740000  0.84590000  1.0 0.1000067866
H  H86  1  0.36150000  0.07160000  0.83980000  1.0 0.1094588317
H  H87  1  0.29600000  0.07000000  0.79320000  1.0 0.0876953114
H  H88  1  0.05050000  0.04310000  0.54320000  1.0 0.1094588317
H  H89  1  0.14230000  0.06480000  0.50380000  1.0 0.1303683164
H  H90  1  0.90330000  0.11130000  0.46670000  1.0 0.1391848298
H  H91  1  0.82190000  0.09580000  0.50740000  1.0 0.1094588317
H  H92  1  0.33900000  0.05120000  0.46370000  1.0 0.1391848298
H  H93  1  0.48480000  0.02740000  0.45890000  1.0 0.1203466129
H  H94  1  0.50230000  0.07960000  0.38140000  1.0 0.1000067866
H  H95  1  0.35070000  0.11420000  0.38650000  1.0 0.1303683164
H  H96  1  0.15870000  0.17740000  0.36190000  1.0 0.1303683164
H  H97  1  0.07010000  0.21600000  0.32600000  1.0 0.1000067866
H  H98  1  0.83290000  0.17760000  0.36140000  1.0 0.1203466129
H  H99  1  0.90410000  0.13960000  0.39660000  1.0 0.1391848298
H  H100  1  0.14380000  0.33280000  0.06190000  1.0 0.1094588317
H  H101  1  0.10190000  0.26500000  0.08440000  1.0 0.1391848298
H  H102  1  0.05350000  0.34360000  0.15620000  1.0 0.1391848298
H  H103  1  0.08130000  0.40630000  0.12970000  1.0 0.1000067866
H  H104  1  0.08470000  0.14930000  0.09010000  1.0 0.1303683164
H  H105  1  0.09680000  0.07830000  0.07040000  1.0 0.1094588317
H  H106  1  0.10490000  0.01920000  0.14680000  1.0 0.1094588317
H  H107  1  0.06980000  0.08750000  0.16850000  1.0 0.1203466129
H  H108  1  0.97110000  0.15550000  0.22380000  1.0 0.1391848298
H  H109  1  0.92790000  0.16480000  0.26970000  1.0 0.1094588317
H  H110  1  0.98000000  0.29790000  0.26670000  1.0 0.1094588317
H  H111  1  0.01720000  0.29270000  0.21900000  1.0 0.1303683164
H  H112  1  0.43890000  0.43980000  0.25890000  1.0 0.1094588317
H  H113  1  0.37340000  0.43830000  0.30550000  1.0 0.1303683164
H  H114  1  0.47320000  0.43260000  0.34590000  1.0 0.1000067866
H  H115  1  0.63850000  0.42840000  0.33980000  1.0 0.1094588317
H  H116  1  0.70400000  0.43000000  0.29320000  1.0 0.0876953114
H  H117  1  0.55050000  0.45690000  0.54320000  1.0 0.1094588317
H  H118  1  0.64230000  0.43520000  0.50380000  1.0 0.1303683164
H  H119  1  0.40330000  0.38870000  0.46670000  1.0 0.1391848298
H  H120  1  0.32190000  0.40420000  0.50740000  1.0 0.1094588317
H  H121  1  0.83900000  0.44880000  0.46370000  1.0 0.1391848298
H  H122  1  0.98480000  0.47260000  0.45890000  1.0 0.1203466129
H  H123  1  0.00230000  0.42040000  0.38140000  1.0 0.1000067866
H  H124  1  0.85070000  0.38580000  0.38650000  1.0 0.1303683164
H  H125  1  0.65870000  0.32260000  0.36190000  1.0 0.1303683164
H  H126  1  0.57010000  0.28400000  0.32600000  1.0 0.1000067866
H  H127  1  0.33290000  0.32240000  0.36140000  1.0 0.1203466129
H  H128  1  0.40410000  0.36040000  0.39660000  1.0 0.1391848298
H  H129  1  0.64380000  0.16720000  0.06190000  1.0 0.1094588317
H  H130  1  0.60190000  0.23500000  0.08440000  1.0 0.1391848298
H  H131  1  0.55350000  0.15640000  0.15620000  1.0 0.1391848298
H  H132  1  0.58130000  0.09370000  0.12970000  1.0 0.1000067866
H  H133  1  0.58470000  0.35070000  0.09010000  1.0 0.1303683164
H  H134  1  0.59680000  0.42170000  0.07040000  1.0 0.1094588317
H  H135  1  0.60490000  0.48080000  0.14680000  1.0 0.1094588317
H  H136  1  0.56980000  0.41250000  0.16850000  1.0 0.1203466129
H  H137  1  0.47110000  0.34450000  0.22380000  1.0 0.1391848298
H  H138  1  0.42790000  0.33520000  0.26970000  1.0 0.1094588317
H  H139  1  0.48000000  0.20210000  0.26670000  1.0 0.1094588317
H  H140  1  0.51720000  0.20730000  0.21900000  1.0 0.1303683164
H  H141  1  0.93890000  0.06020000  0.25890000  1.0 0.1094588317
H  H142  1  0.87340000  0.06170000  0.30550000  1.0 0.1303683164
H  H143  1  0.97320000  0.06740000  0.34590000  1.0 0.1000067866
H  H144  1  0.13850000  0.07160000  0.33980000  1.0 0.1094588317
H  H145  1  0.20400000  0.07000000  0.29320000  1.0 0.0876953114
H  H146  1  0.44950000  0.04310000  0.04320000  1.0 0.1094588317
H  H147  1  0.35770000  0.06480000  0.00380000  1.0 0.1303683164
H  H148  1  0.59670000  0.11130000  0.96670000  1.0 0.1391848298
H  H149  1  0.67810000  0.09580000  0.00740000  1.0 0.1094588317
H  H150  1  0.16100000  0.05120000  0.96370000  1.0 0.1391848298
H  H151  1  0.01520000  0.02740000  0.95890000  1.0 0.1203466129
H  H152  1  0.99770000  0.07960000  0.88140000  1.0 0.1000067866
H  H153  1  0.14930000  0.11420000  0.88650000  1.0 0.1303683164
H  H154  1  0.34130000  0.17740000  0.86190000  1.0 0.1303683164
H  H155  1  0.42990000  0.21600000  0.82600000  1.0 0.1000067866
H  H156  1  0.66710000  0.17760000  0.86140000  1.0 0.1203466129
H  H157  1  0.59590000  0.13960000  0.89660000  1.0 0.1391848298
H  H158  1  0.35620000  0.33280000  0.56190000  1.0 0.1094588317
H  H159  1  0.39810000  0.26500000  0.58440000  1.0 0.1391848298
H  H160  1  0.44650000  0.34360000  0.65620000  1.0 0.1391848298
H  H161  1  0.41870000  0.40630000  0.62970000  1.0 0.1000067866
H  H162  1  0.41530000  0.14930000  0.59010000  1.0 0.1303683164
H  H163  1  0.40320000  0.07830000  0.57040000  1.0 0.1094588317
H  H164  1  0.39510000  0.01920000  0.64680000  1.0 0.1094588317
H  H165  1  0.43020000  0.08750000  0.66850000  1.0 0.1203466129
H  H166  1  0.52890000  0.15550000  0.72380000  1.0 0.1391848298
H  H167  1  0.57210000  0.16480000  0.76970000  1.0 0.1094588317
H  H168  1  0.52000000  0.29790000  0.76670000  1.0 0.1094588317
H  H169  1  0.48280000  0.29270000  0.71900000  1.0 0.1303683164
H  H170  1  0.06110000  0.43980000  0.75890000  1.0 0.1094588317
H  H171  1  0.12660000  0.43830000  0.80550000  1.0 0.1303683164
H  H172  1  0.02680000  0.43260000  0.84590000  1.0 0.1000067866
H  H173  1  0.86150000  0.42840000  0.83980000  1.0 0.1094588317
H  H174  1  0.79600000  0.43000000  0.79320000  1.0 0.0876953114
H  H175  1  0.05050000  0.54310000  0.95680000  1.0 0.1094588317
H  H176  1  0.14230000  0.56480000  0.99620000  1.0 0.1303683164
H  H177  1  0.90330000  0.61130000  0.03330000  1.0 0.1391848298
H  H178  1  0.82190000  0.59580000  0.99260000  1.0 0.1094588317
H  H179  1  0.33900000  0.55120000  0.03630000  1.0 0.1391848298
H  H180  1  0.48480000  0.52740000  0.04110000  1.0 0.1203466129
H  H181  1  0.50230000  0.57960000  0.11860000  1.0 0.1000067866
H  H182  1  0.35070000  0.61420000  0.11350000  1.0 0.1303683164
H  H183  1  0.15870000  0.67740000  0.13810000  1.0 0.1303683164
H  H184  1  0.07010000  0.71600000  0.17400000  1.0 0.1000067866
H  H185  1  0.83290000  0.67760000  0.13860000  1.0 0.1203466129
H  H186  1  0.90410000  0.63960000  0.10340000  1.0 0.1391848298
H  H187  1  0.14380000  0.83280000  0.43810000  1.0 0.1094588317
H  H188  1  0.10190000  0.76500000  0.41560000  1.0 0.1391848298
H  H189  1  0.05350000  0.84360000  0.34380000  1.0 0.1391848298
H  H190  1  0.08130000  0.90630000  0.37030000  1.0 0.1000067866
H  H191  1  0.08470000  0.64930000  0.40990000  1.0 0.1303683164
H  H192  1  0.09680000  0.57830000  0.42960000  1.0 0.1094588317
H  H193  1  0.10490000  0.51920000  0.35320000  1.0 0.1094588317
H  H194  1  0.06980000  0.58750000  0.33150000  1.0 0.1203466129
H  H195  1  0.97110000  0.65550000  0.27620000  1.0 0.1391848298
H  H196  1  0.92790000  0.66480000  0.23030000  1.0 0.1094588317
H  H197  1  0.98000000  0.79790000  0.23330000  1.0 0.1094588317
H  H198  1  0.01720000  0.79270000  0.28100000  1.0 0.1303683164
H  H199  1  0.43890000  0.93980000  0.24110000  1.0 0.1094588317
H  H200  1  0.37340000  0.93830000  0.19450000  1.0 0.1303683164
H  H201  1  0.47320000  0.93260000  0.15410000  1.0 0.1000067866
H  H202  1  0.63850000  0.92840000  0.16020000  1.0 0.1094588317
H  H203  1  0.70400000  0.93000000  0.20680000  1.0 0.0876953114
H  H204  1  0.94950000  0.95690000  0.45680000  1.0 0.1094588317
H  H205  1  0.85770000  0.93520000  0.49620000  1.0 0.1303683164
H  H206  1  0.09670000  0.88870000  0.53330000  1.0 0.1391848298
H  H207  1  0.17810000  0.90420000  0.49260000  1.0 0.1094588317
H  H208  1  0.66100000  0.94880000  0.53630000  1.0 0.1391848298
H  H209  1  0.51520000  0.97260000  0.54110000  1.0 0.1203466129
H  H210  1  0.49770000  0.92040000  0.61860000  1.0 0.1000067866
H  H211  1  0.64930000  0.88580000  0.61350000  1.0 0.1303683164
H  H212  1  0.84130000  0.82260000  0.63810000  1.0 0.1391848298
H  H213  1  0.92990000  0.78400000  0.67400000  1.0 0.1000067866
H  H214  1  0.16710000  0.82240000  0.63860000  1.0 0.1203466129
H  H215  1  0.09590000  0.86040000  0.60340000  1.0 0.1391848298
H  H216  1  0.85620000  0.66720000  0.93810000  1.0 0.1094588317
H  H217  1  0.89810000  0.73500000  0.91560000  1.0 0.1391848298
H  H218  1  0.94650000  0.65640000  0.84380000  1.0 0.1391848298
H  H219  1  0.91870000  0.59370000  0.87030000  1.0 0.1000067866
H  H220  1  0.91530000  0.85070000  0.90990000  1.0 0.1303683164
H  H221  1  0.90320000  0.92170000  0.92960000  1.0 0.1094588317
H  H222  1  0.89510000  0.98080000  0.85320000  1.0 0.1094588317
H  H223  1  0.93020000  0.91250000  0.83150000  1.0 0.1203466129
H  H224  1  0.02890000  0.84450000  0.77620000  1.0 0.1391848298
H  H225  1  0.07210000  0.83520000  0.73030000  1.0 0.1094588317
H  H226  1  0.02000000  0.70210000  0.73330000  1.0 0.1094588317
H  H227  1  0.98280000  0.70730000  0.78100000  1.0 0.1303683164
H  H228  1  0.56110000  0.56020000  0.74110000  1.0 0.1094588317
H  H229  1  0.62660000  0.56170000  0.69450000  1.0 0.1303683164
H  H230  1  0.52680000  0.56740000  0.65410000  1.0 0.1000067866
H  H231  1  0.36150000  0.57160000  0.66020000  1.0 0.1094588317
H  H232  1  0.29600000  0.57000000  0.70680000  1.0 0.0876953114
C  C1  1  0.47830000  0.56010000  0.47180000  1.0 0.0474845564
C  C2  1  0.42330000  0.57120000  0.49580000  1.0 -0.1305430649
C  C3  1  0.46860000  0.59240000  0.51950000  1.0 0.0402441729
C  C4  1  0.56350000  0.59940000  0.51730000  1.0 -0.1416214137
C  C5  1  0.61240000  0.58990000  0.49270000  1.0 0.0674743691
C  C6  1  0.41420000  0.60280000  0.54610000  1.0 0.3533731453
C  C7  1  0.27560000  0.60120000  0.57070000  1.0 0.3618702175
C  C8  1  0.40900000  0.63340000  0.59110000  1.0 0.3533731453
C  C9  1  0.17630000  0.58580000  0.57520000  1.0 0.0474845564
C  C10  1  0.12800000  0.55860000  0.55330000  1.0 -0.152293244
C  C11  1  0.04330000  0.54430000  0.55620000  1.0 0.0402441729
C  C12  1  0.03130000  0.57560000  0.60120000  1.0 0.1000067866
C  C13  1  0.12470000  0.59520000  0.59880000  1.0 -0.1588947029
C  C14  1  0.45890000  0.65450000  0.61550000  1.0 0.0402441729
C  C15  1  0.40810000  0.67720000  0.63770000  1.0 -0.1588947029
C  C16  1  0.46250000  0.69990000  0.65940000  1.0 0.1000067866
C  C17  1  0.60030000  0.67720000  0.63850000  1.0 0.0402441729
C  C18  1  0.55900000  0.65510000  0.61740000  1.0 -0.1416214137
C  C19  1  0.38030000  0.83410000  0.91910000  1.0 0.0586732511
C  C20  1  0.39900000  0.79340000  0.90570000  1.0 -0.1588947029
C  C21  1  0.42030000  0.79620000  0.87560000  1.0 0.0586732511
C  C22  1  0.42950000  0.84040000  0.86340000  1.0 -0.1588947029
C  C23  1  0.41450000  0.87710000  0.87930000  1.0 0.0474845564
C  C24  1  0.43200000  0.75180000  0.85860000  1.0 0.3618702175
C  C25  1  0.43610000  0.67480000  0.85440000  1.0 0.3618702175
C  C26  1  0.46740000  0.71870000  0.81470000  1.0 0.3618702175
C  C27  1  0.42260000  0.62760000  0.86820000  1.0 0.0674743691
C  C28  1  0.41390000  0.62300000  0.89800000  1.0 -0.1416214137
C  C29  1  0.40350000  0.58100000  0.90930000  1.0 0.0586732511
C  C30  1  0.40190000  0.54590000  0.86460000  1.0 0.0402441729
C  C31  1  0.41970000  0.58640000  0.85150000  1.0 -0.152293244
C  C32  1  0.49530000  0.72260000  0.78440000  1.0 0.0474845564
C  C33  1  0.52700000  0.68530000  0.76790000  1.0 -0.1701283936
C  C34  1  0.55460000  0.69140000  0.74080000  1.0 0.0586732511
C  C35  1  0.52530000  0.76910000  0.74270000  1.0 0.0474845564
C  C36  1  0.49890000  0.76580000  0.77070000  1.0 -0.1305430649
C  C37  1  0.92200000  0.93500000  0.72860000  1.0 0.0402441729
C  C38  1  0.02100000  0.93750000  0.72490000  1.0 -0.1221085222
C  C39  1  0.06000000  0.93660000  0.69700000  1.0 -0.0759722389
C  C40  1  0.00100000  0.93320000  0.67280000  1.0 -0.0709999756
C  C41  1  0.90200000  0.93070000  0.67640000  1.0 -0.0967725313
C  C42  1  0.86200000  0.93160000  0.70430000  1.0 -0.1305430649
C  C43  1  0.52170000  0.93990000  0.97180000  1.0 0.0474845564
C  C44  1  0.57670000  0.92880000  0.99580000  1.0 -0.1305430649
C  C45  1  0.53140000  0.90760000  0.01950000  1.0 0.0402441729
C  C46  1  0.43650000  0.90060000  0.01730000  1.0 -0.1416214137
C  C47  1  0.38760000  0.91010000  0.99270000  1.0 0.0674743691
C  C48  1  0.58580000  0.89720000  0.04610000  1.0 0.3533731453
C  C49  1  0.72440000  0.89880000  0.07070000  1.0 0.3618702175
C  C50  1  0.59100000  0.86660000  0.09110000  1.0 0.3533731453
C  C51  1  0.82370000  0.91420000  0.07520000  1.0 0.0474845564
C  C52  1  0.87200000  0.94140000  0.05330000  1.0 -0.152293244
C  C53  1  0.95670000  0.95570000  0.05620000  1.0 0.0402441729
C  C54  1  0.96870000  0.92440000  0.10120000  1.0 0.1000067866
C  C55  1  0.87530000  0.90480000  0.09880000  1.0 -0.152293244
C  C56  1  0.54110000  0.84550000  0.11550000  1.0 0.0402441729
C  C57  1  0.59190000  0.82280000  0.13770000  1.0 -0.1588947029
C  C58  1  0.53750000  0.80010000  0.15940000  1.0 0.1000067866
C  C59  1  0.39970000  0.82280000  0.13850000  1.0 0.0402441729
C  C60  1  0.44100000  0.84490000  0.11740000  1.0 -0.1416214137
C  C61  1  0.61970000  0.66590000  0.41910000  1.0 0.0586732511
C  C62  1  0.60100000  0.70660000  0.40570000  1.0 -0.1588947029
C  C63  1  0.57970000  0.70380000  0.37560000  1.0 0.0586732511
C  C64  1  0.57050000  0.65960000  0.36340000  1.0 -0.1588947029
C  C65  1  0.58550000  0.62290000  0.37930000  1.0 0.0474845564
C  C66  1  0.56800000  0.74820000  0.35860000  1.0 0.3618702175
C  C67  1  0.56390000  0.82520000  0.35440000  1.0 0.3618702175
C  C68  1  0.53260000  0.78130000  0.31470000  1.0 0.3618702175
C  C69  1  0.57740000  0.87240000  0.36820000  1.0 0.0674743691
C  C70  1  0.58610000  0.87700000  0.39800000  1.0 -0.1416214137
C  C71  1  0.59650000  0.91900000  0.40930000  1.0 0.0586732511
C  C72  1  0.59810000  0.95410000  0.36460000  1.0 0.0402441729
C  C73  1  0.58030000  0.91360000  0.35150000  1.0 -0.152293244
C  C74  1  0.50470000  0.77740000  0.28440000  1.0 0.0402441729
C  C75  1  0.47300000  0.81470000  0.26790000  1.0 -0.1701283936
C  C76  1  0.44540000  0.80860000  0.24080000  1.0 0.0586732511
C  C77  1  0.47470000  0.73090000  0.24270000  1.0 0.0474845564
C  C78  1  0.50110000  0.73420000  0.27070000  1.0 -0.1305430649
C  C79  1  0.07800000  0.56500000  0.22860000  1.0 0.0402441729
C  C80  1  0.97900000  0.56250000  0.22490000  1.0 -0.1221085222
C  C81  1  0.94000000  0.56340000  0.19700000  1.0 -0.0759722389
C  C82  1  0.99900000  0.56680000  0.17280000  1.0 -0.0709999756
C  C83  1  0.09800000  0.56930000  0.17640000  1.0 -0.0967725313
C  C84  1  0.13800000  0.56840000  0.20430000  1.0 -0.1305430649
C  C85  1  0.97830000  0.43990000  0.02820000  1.0 0.0474845564
C  C86  1  0.92330000  0.42880000  0.00420000  1.0 -0.1305430649
C  C87  1  0.96860000  0.40760000  0.98050000  1.0 0.0402441729
C  C88  1  0.06350000  0.40060000  0.98270000  1.0 -0.1416214137
C  C89  1  0.11240000  0.41010000  0.00730000  1.0 0.0674743691
C  C90  1  0.91420000  0.39720000  0.95390000  1.0 0.3533731453
C  C91  1  0.77560000  0.39880000  0.92930000  1.0 0.3618702175
C  C92  1  0.90900000  0.36660000  0.90890000  1.0 0.3618702175
C  C93  1  0.67630000  0.41420000  0.92480000  1.0 0.0474845564
C  C94  1  0.62800000  0.44140000  0.94670000  1.0 -0.152293244
C  C95  1  0.54330000  0.45570000  0.94380000  1.0 0.0402441729
C  C96  1  0.53130000  0.42440000  0.89880000  1.0 0.1000067866
C  C97  1  0.62470000  0.40480000  0.90120000  1.0 -0.152293244
C  C98  1  0.95890000  0.34550000  0.88450000  1.0 0.0402441729
C  C99  1  0.90810000  0.32280000  0.86230000  1.0 -0.1588947029
C  C100  1  0.96250000  0.30010000  0.84060000  1.0 0.1000067866
C  C101  1  0.10030000  0.32280000  0.86150000  1.0 0.0402441729
C  C102  1  0.05900000  0.34490000  0.88260000  1.0 -0.1416214137
C  C103  1  0.88030000  0.16590000  0.58090000  1.0 0.0586732511
C  C104  1  0.89900000  0.20660000  0.59430000  1.0 -0.1588947029
C  C105  1  0.92030000  0.20380000  0.62440000  1.0 0.0674743691
C  C106  1  0.92950000  0.15960000  0.63660000  1.0 -0.1588947029
C  C107  1  0.91450000  0.12290000  0.62070000  1.0 0.0474845564
C  C108  1  0.93200000  0.24820000  0.64140000  1.0 0.3618702175
C  C109  1  0.93610000  0.32520000  0.64560000  1.0 0.3618702175
C  C110  1  0.96740000  0.28130000  0.68530000  1.0 0.3618702175
C  C111  1  0.92260000  0.37240000  0.63180000  1.0 0.0674743691
C  C112  1  0.91390000  0.37700000  0.60200000  1.0 -0.1416214137
C  C113  1  0.90350000  0.41900000  0.59070000  1.0 0.0586732511
C  C114  1  0.90190000  0.45410000  0.63540000  1.0 0.0402441729
C  C115  1  0.91970000  0.41360000  0.64850000  1.0 -0.152293244
C  C116  1  0.99530000  0.27740000  0.71560000  1.0 0.0474845564
C  C117  1  0.02700000  0.31470000  0.73210000  1.0 -0.1701283936
C  C118  1  0.05460000  0.30860000  0.75920000  1.0 0.0586732511
C  C119  1  0.02530000  0.23090000  0.75730000  1.0 0.0474845564
C  C120  1  0.99890000  0.23420000  0.72930000  1.0 -0.1305430649
C  C121  1  0.42200000  0.06500000  0.77140000  1.0 0.0307841158
C  C122  1  0.52100000  0.06250000  0.77510000  1.0 -0.1221085222
C  C123  1  0.56000000  0.06340000  0.80300000  1.0 -0.0759722389
C  C124  1  0.50100000  0.06680000  0.82720000  1.0 -0.0709999756
C  C125  1  0.40200000  0.06930000  0.82360000  1.0 -0.0967725313
C  C126  1  0.36200000  0.06840000  0.79570000  1.0 -0.1305430649
C  C127  1  0.02170000  0.06010000  0.52820000  1.0 0.0402441729
C  C128  1  0.07670000  0.07120000  0.50420000  1.0 -0.1305430649
C  C129  1  0.03140000  0.09240000  0.48050000  1.0 0.0402441729
C  C130  1  0.93650000  0.09940000  0.48270000  1.0 -0.1416214137
C  C131  1  0.88760000  0.08990000  0.50730000  1.0 0.0674743691
C  C132  1  0.08580000  0.10280000  0.45390000  1.0 0.3533731453
C  C133  1  0.22440000  0.10120000  0.42930000  1.0 0.3618702175
C  C134  1  0.09100000  0.13340000  0.40890000  1.0 0.3533731453
C  C135  1  0.32370000  0.08580000  0.42480000  1.0 0.0474845564
C  C136  1  0.37200000  0.05860000  0.44670000  1.0 -0.152293244
C  C137  1  0.45670000  0.04430000  0.44380000  1.0 0.0402441729
C  C138  1  0.46870000  0.07560000  0.39880000  1.0 0.1000067866
C  C139  1  0.37530000  0.09520000  0.40120000  1.0 -0.152293244
C  C140  1  0.04110000  0.15450000  0.38450000  1.0 0.0402441729
C  C141  1  0.09190000  0.17720000  0.36230000  1.0 -0.1588947029
C  C142  1  0.03750000  0.19990000  0.34060000  1.0 0.1000067866
C  C143  1  0.89970000  0.17720000  0.36150000  1.0 0.0402441729
C  C144  1  0.94100000  0.15510000  0.38260000  1.0 -0.1416214137
C  C145  1  0.11970000  0.33410000  0.08090000  1.0 0.0586732511
C  C146  1  0.10100000  0.29340000  0.09430000  1.0 -0.1588947029
C  C147  1  0.07970000  0.29620000  0.12440000  1.0 0.0586732511
C  C148  1  0.07050000  0.34040000  0.13660000  1.0 -0.1588947029
C  C149  1  0.08550000  0.37710000  0.12070000  1.0 0.0474845564
C  C150  1  0.06800000  0.25180000  0.14140000  1.0 0.3618702175
C  C151  1  0.06390000  0.17480000  0.14560000  1.0 0.3618702175
C  C152  1  0.03260000  0.21870000  0.18530000  1.0 0.3618702175
C  C153  1  0.07740000  0.12760000  0.13180000  1.0 0.0674743691
C  C154  1  0.08610000  0.12300000  0.10200000  1.0 -0.1416214137
C  C155  1  0.09650000  0.08100000  0.09070000  1.0 0.0586732511
C  C156  1  0.09810000  0.04590000  0.13540000  1.0 0.0402441729
C  C157  1  0.08030000  0.08640000  0.14850000  1.0 -0.152293244
C  C158  1  0.00470000  0.22260000  0.21560000  1.0 0.0402441729
C  C159  1  0.97300000  0.18530000  0.23210000  1.0 -0.1701283936
C  C160  1  0.94540000  0.19140000  0.25920000  1.0 0.0586732511
C  C161  1  0.97470000  0.26910000  0.25730000  1.0 0.0474845564
C  C162  1  0.00110000  0.26580000  0.22930000  1.0 -0.1305430649
C  C163  1  0.57800000  0.43500000  0.27140000  1.0 0.0402441729
C  C164  1  0.47900000  0.43750000  0.27510000  1.0 -0.1221085222
C  C165  1  0.44000000  0.43660000  0.30300000  1.0 -0.0759722389
C  C166  1  0.49900000  0.43320000  0.32720000  1.0 -0.0709999756
C  C167  1  0.59800000  0.43070000  0.32360000  1.0 -0.0949745722
C  C168  1  0.63800000  0.43160000  0.29570000  1.0 -0.1305430649
C  C169  1  0.52170000  0.43990000  0.52820000  1.0 0.0474845564
C  C170  1  0.57670000  0.42880000  0.50420000  1.0 -0.1305430649
C  C171  1  0.53140000  0.40760000  0.48050000  1.0 0.0402441729
C  C172  1  0.43650000  0.40060000  0.48270000  1.0 -0.1416214137
C  C173  1  0.38760000  0.41010000  0.50730000  1.0 0.0674743691
C  C174  1  0.58580000  0.39720000  0.45390000  1.0 0.3533731453
C  C175  1  0.72440000  0.39880000  0.42930000  1.0 0.3618702175
C  C176  1  0.59100000  0.36660000  0.40890000  1.0 0.3618702175
C  C177  1  0.82370000  0.41420000  0.42480000  1.0 0.0474845564
C  C178  1  0.87200000  0.44140000  0.44670000  1.0 -0.152293244
C  C179  1  0.95670000  0.45570000  0.44380000  1.0 0.0402441729
C  C180  1  0.96870000  0.42440000  0.39880000  1.0 0.1000067866
C  C181  1  0.87530000  0.40480000  0.40120000  1.0 -0.152293244
C  C182  1  0.54110000  0.34550000  0.38450000  1.0 0.0402441729
C  C183  1  0.59190000  0.32280000  0.36230000  1.0 -0.152293244
C  C184  1  0.53750000  0.30010000  0.34060000  1.0 0.1000067866
C  C185  1  0.39970000  0.32280000  0.36150000  1.0 0.0402441729
C  C186  1  0.44100000  0.34490000  0.38260000  1.0 -0.1416214137
C  C187  1  0.61970000  0.16590000  0.08090000  1.0 0.0586732511
C  C188  1  0.60100000  0.20660000  0.09430000  1.0 -0.1588947029
C  C189  1  0.57970000  0.20380000  0.12440000  1.0 0.0586732511
C  C190  1  0.57050000  0.15960000  0.13660000  1.0 -0.1588947029
C  C191  1  0.58550000  0.12290000  0.12070000  1.0 0.0474845564
C  C192  1  0.56800000  0.24820000  0.14140000  1.0 0.3618702175
C  C193  1  0.56390000  0.32520000  0.14560000  1.0 0.3618702175
C  C194  1  0.53260000  0.28130000  0.18530000  1.0 0.3618702175
C  C195  1  0.57740000  0.37240000  0.13180000  1.0 0.0674743691
C  C196  1  0.58610000  0.37700000  0.10200000  1.0 -0.1416214137
C  C197  1  0.59650000  0.41900000  0.09070000  1.0 0.0586732511
C  C198  1  0.59810000  0.45410000  0.13540000  1.0 0.0402441729
C  C199  1  0.58030000  0.41360000  0.14850000  1.0 -0.152293244
C  C200  1  0.50470000  0.27740000  0.21560000  1.0 0.0402441729
C  C201  1  0.47300000  0.31470000  0.23210000  1.0 -0.1701283936
C  C202  1  0.44540000  0.30860000  0.25920000  1.0 0.0586732511
C  C203  1  0.47470000  0.23090000  0.25730000  1.0 0.0474845564
C  C204  1  0.50110000  0.23420000  0.22930000  1.0 -0.1305430649
C  C205  1  0.07800000  0.06500000  0.27140000  1.0 0.0402441729
C  C206  1  0.97900000  0.06250000  0.27510000  1.0 -0.1221085222
C  C207  1  0.94000000  0.06340000  0.30300000  1.0 -0.0759722389
C  C208  1  0.99900000  0.06680000  0.32720000  1.0 -0.0709999756
C  C209  1  0.09800000  0.06930000  0.32360000  1.0 -0.0967725313
C  C210  1  0.13800000  0.06840000  0.29570000  1.0 -0.1305430649
C  C211  1  0.47830000  0.06010000  0.02820000  1.0 0.0474845564
C  C212  1  0.42330000  0.07120000  0.00420000  1.0 -0.1305430649
C  C213  1  0.46860000  0.09240000  0.98050000  1.0 0.0402441729
C  C214  1  0.56350000  0.09940000  0.98270000  1.0 -0.1416214137
C  C215  1  0.61240000  0.08990000  0.00730000  1.0 0.0674743691
C  C216  1  0.41420000  0.10280000  0.95390000  1.0 0.3533731453
C  C217  1  0.27560000  0.10120000  0.92930000  1.0 0.3618702175
C  C218  1  0.40900000  0.13340000  0.90890000  1.0 0.3533731453
C  C219  1  0.17630000  0.08580000  0.92480000  1.0 0.0474845564
C  C220  1  0.12800000  0.05860000  0.94670000  1.0 -0.152293244
C  C221  1  0.04330000  0.04430000  0.94380000  1.0 0.0402441729
C  C222  1  0.03130000  0.07560000  0.89880000  1.0 0.1000067866
C  C223  1  0.12470000  0.09520000  0.90120000  1.0 -0.152293244
C  C224  1  0.45890000  0.15450000  0.88450000  1.0 0.0402441729
C  C225  1  0.40810000  0.17720000  0.86230000  1.0 -0.1588947029
C  C226  1  0.46250000  0.19990000  0.84060000  1.0 0.1000067866
C  C227  1  0.60030000  0.17720000  0.86150000  1.0 0.0402441729
C  C228  1  0.55900000  0.15510000  0.88260000  1.0 -0.1416214137
C  C229  1  0.38030000  0.33410000  0.58090000  1.0 0.0586732511
C  C230  1  0.39900000  0.29340000  0.59430000  1.0 -0.1588947029
C  C231  1  0.42030000  0.29620000  0.62440000  1.0 0.0586732511
C  C232  1  0.42950000  0.34040000  0.63660000  1.0 -0.1588947029
C  C233  1  0.41450000  0.37710000  0.62070000  1.0 0.0474845564
C  C234  1  0.43200000  0.25180000  0.64140000  1.0 0.3618702175
C  C235  1  0.43610000  0.17480000  0.64560000  1.0 0.3618702175
C  C236  1  0.46740000  0.21870000  0.68530000  1.0 0.3618702175
C  C237  1  0.42260000  0.12760000  0.63180000  1.0 0.0674743691
C  C238  1  0.41390000  0.12300000  0.60200000  1.0 -0.1416214137
C  C239  1  0.40350000  0.08100000  0.59070000  1.0 0.0586732511
C  C240  1  0.40190000  0.04590000  0.63540000  1.0 0.0402441729
C  C241  1  0.41970000  0.08640000  0.64850000  1.0 -0.152293244
C  C242  1  0.49530000  0.22260000  0.71560000  1.0 0.0474845564
C  C243  1  0.52700000  0.18530000  0.73210000  1.0 -0.1701283936
C  C244  1  0.55460000  0.19140000  0.75920000  1.0 0.0586732511
C  C245  1  0.52530000  0.26910000  0.75730000  1.0 0.0474845564
C  C246  1  0.49890000  0.26580000  0.72930000  1.0 -0.1305430649
C  C247  1  0.92200000  0.43500000  0.77140000  1.0 0.0402441729
C  C248  1  0.02100000  0.43750000  0.77510000  1.0 -0.1221085222
C  C249  1  0.06000000  0.43660000  0.80300000  1.0 -0.0759722389
C  C250  1  0.00100000  0.43320000  0.82720000  1.0 -0.0709999756
C  C251  1  0.90200000  0.43070000  0.82360000  1.0 -0.0967725313
C  C252  1  0.86200000  0.43160000  0.79570000  1.0 -0.1305430649
C  C253  1  0.02170000  0.56010000  0.97180000  1.0 0.0474845564
C  C254  1  0.07670000  0.57120000  0.99580000  1.0 -0.1305430649
C  C255  1  0.03140000  0.59240000  0.01950000  1.0 0.0402441729
C  C256  1  0.93650000  0.59940000  0.01730000  1.0 -0.1416214137
C  C257  1  0.88760000  0.58990000  0.99270000  1.0 0.0674743691
C  C258  1  0.08580000  0.60280000  0.04610000  1.0 0.3533731453
C  C259  1  0.22440000  0.60120000  0.07070000  1.0 0.3618702175
C  C260  1  0.09100000  0.63340000  0.09110000  1.0 0.3533731453
C  C261  1  0.32370000  0.58580000  0.07520000  1.0 0.0474845564
C  C262  1  0.37200000  0.55860000  0.05330000  1.0 -0.152293244
C  C263  1  0.45670000  0.54430000  0.05620000  1.0 0.0402441729
C  C264  1  0.46870000  0.57560000  0.10120000  1.0 0.1000067866
C  C265  1  0.37530000  0.59520000  0.09880000  1.0 -0.152293244
C  C266  1  0.04110000  0.65450000  0.11550000  1.0 0.0402441729
C  C267  1  0.09190000  0.67720000  0.13770000  1.0 -0.1588947029
C  C268  1  0.03750000  0.69990000  0.15940000  1.0 0.1000067866
C  C269  1  0.89970000  0.67720000  0.13850000  1.0 0.0402441729
C  C270  1  0.94100000  0.65510000  0.11740000  1.0 -0.1416214137
C  C271  1  0.11970000  0.83410000  0.41910000  1.0 0.0586732511
C  C272  1  0.10100000  0.79340000  0.40570000  1.0 -0.1588947029
C  C273  1  0.07970000  0.79620000  0.37560000  1.0 0.0586732511
C  C274  1  0.07050000  0.84040000  0.36340000  1.0 -0.1588947029
C  C275  1  0.08550000  0.87710000  0.37930000  1.0 0.0474845564
C  C276  1  0.06800000  0.75180000  0.35860000  1.0 0.3618702175
C  C277  1  0.06390000  0.67480000  0.35440000  1.0 0.3618702175
C  C278  1  0.03260000  0.71870000  0.31470000  1.0 0.3618702175
C  C279  1  0.07740000  0.62760000  0.36820000  1.0 0.0674743691
C  C280  1  0.08610000  0.62300000  0.39800000  1.0 -0.1416214137
C  C281  1  0.09650000  0.58100000  0.40930000  1.0 0.0586732511
C  C282  1  0.09810000  0.54590000  0.36460000  1.0 0.0402441729
C  C283  1  0.08030000  0.58640000  0.35150000  1.0 -0.1588947029
C  C284  1  0.00470000  0.72260000  0.28440000  1.0 0.0402441729
C  C285  1  0.97300000  0.68530000  0.26790000  1.0 -0.1701283936
C  C286  1  0.94540000  0.69140000  0.24080000  1.0 0.0586732511
C  C287  1  0.97470000  0.76910000  0.24270000  1.0 0.0474845564
C  C288  1  0.00110000  0.76580000  0.27070000  1.0 -0.1305430649
C  C289  1  0.57800000  0.93500000  0.22860000  1.0 0.0402441729
C  C290  1  0.47900000  0.93750000  0.22490000  1.0 -0.1221085222
C  C291  1  0.44000000  0.93660000  0.19700000  1.0 -0.0759722389
C  C292  1  0.49900000  0.93320000  0.17280000  1.0 -0.0709999756
C  C293  1  0.59800000  0.93070000  0.17640000  1.0 -0.0949745722
C  C294  1  0.63800000  0.93160000  0.20430000  1.0 -0.1305430649
C  C295  1  0.97830000  0.93990000  0.47180000  1.0 0.0474845564
C  C296  1  0.92330000  0.92880000  0.49580000  1.0 -0.1305430649
C  C297  1  0.96860000  0.90760000  0.51950000  1.0 0.0402441729
C  C298  1  0.06350000  0.90060000  0.51730000  1.0 -0.1416214137
C  C299  1  0.11240000  0.91010000  0.49270000  1.0 0.0674743691
C  C300  1  0.91420000  0.89720000  0.54610000  1.0 0.3533731453
C  C301  1  0.77560000  0.89880000  0.57070000  1.0 0.3618702175
C  C302  1  0.90900000  0.86660000  0.59110000  1.0 0.3618702175
C  C303  1  0.67630000  0.91420000  0.57520000  1.0 0.0474845564
C  C304  1  0.62800000  0.94140000  0.55330000  1.0 -0.152293244
C  C305  1  0.54330000  0.95570000  0.55620000  1.0 0.0402441729
C  C306  1  0.53130000  0.92440000  0.60120000  1.0 0.1000067866
C  C307  1  0.62470000  0.90480000  0.59880000  1.0 -0.152293244
C  C308  1  0.95890000  0.84550000  0.61550000  1.0 0.0474845564
C  C309  1  0.90810000  0.82280000  0.63770000  1.0 -0.1588947029
C  C310  1  0.96250000  0.80010000  0.65940000  1.0 0.1000067866
C  C311  1  0.10030000  0.82280000  0.63850000  1.0 0.0402441729
C  C312  1  0.05900000  0.84490000  0.61740000  1.0 -0.1416214137
C  C313  1  0.88030000  0.66590000  0.91910000  1.0 0.0586732511
C  C314  1  0.89900000  0.70660000  0.90570000  1.0 -0.1588947029
C  C315  1  0.92030000  0.70380000  0.87560000  1.0 0.0674743691
C  C316  1  0.92950000  0.65960000  0.86340000  1.0 -0.1588947029
C  C317  1  0.91450000  0.62290000  0.87930000  1.0 0.0474845564
C  C318  1  0.93200000  0.74820000  0.85860000  1.0 0.3618702175
C  C319  1  0.93610000  0.82520000  0.85440000  1.0 0.3618702175
C  C320  1  0.96740000  0.78130000  0.81470000  1.0 0.3618702175
C  C321  1  0.92260000  0.87240000  0.86820000  1.0 0.0674743691
C  C322  1  0.91390000  0.87700000  0.89800000  1.0 -0.1416214137
C  C323  1  0.90350000  0.91900000  0.90930000  1.0 0.0586732511
C  C324  1  0.90190000  0.95410000  0.86460000  1.0 0.0402441729
C  C325  1  0.91970000  0.91360000  0.85150000  1.0 -0.152293244
C  C326  1  0.99530000  0.77740000  0.78440000  1.0 0.0474845564
C  C327  1  0.02700000  0.81470000  0.76790000  1.0 -0.1701283936
C  C328  1  0.05460000  0.80860000  0.74080000  1.0 0.0586732511
C  C329  1  0.02530000  0.73090000  0.74270000  1.0 0.0474845564
C  C330  1  0.99890000  0.73420000  0.77070000  1.0 -0.1305430649
C  C331  1  0.42200000  0.56500000  0.72860000  1.0 0.0307841158
C  C332  1  0.52100000  0.56250000  0.72490000  1.0 -0.1221085222
C  C333  1  0.56000000  0.56340000  0.69700000  1.0 -0.0759722389
C  C334  1  0.50100000  0.56680000  0.67280000  1.0 -0.0709999756
C  C335  1  0.40200000  0.56930000  0.67640000  1.0 -0.0967725313
C  C336  1  0.36200000  0.56840000  0.70430000  1.0 -0.1305430649
I  I1  1  0.56369000  0.49703000  0.40304000  1.0 -0.291936735
I  I2  1  0.82260000  0.57127000  0.44106000  1.0 -0.3732419515
I  I3  1  0.76794000  0.56746000  0.62565000  1.0 -0.4390521295
I  I4  1  0.78678000  0.50454000  0.53700000  1.0 -0.4498939722
I  I5  1  0.79595000  0.70191000  0.69517000  1.0 -0.4498939722
I  I6  1  0.62820000  0.82467000  0.67229000  1.0 -0.2761252358
I  I7  1  0.83320000  0.54800000  0.37080000  1.0 0.0402441729
I  I8  1  0.87060000  0.54770000  0.30960000  1.0 0.0194632454
I  I9  1  0.74180000  0.87340000  0.71900000  1.0 0.0402441729
I  I10  1  0.84540000  0.92060000  0.76220000  1.0 0.3924663939
I  I11  1  0.72820000  0.49740000  0.36050000  1.0 0.0674743691
I  I12  1  0.88200000  0.49790000  0.32120000  1.0 -0.0129327652
I  I13  1  0.43631000  0.00297000  0.90304000  1.0 -0.291936735
I  I14  1  0.17740000  0.92873000  0.94106000  1.0 -0.3732419515
I  I15  1  0.23206000  0.93254000  0.12565000  1.0 -0.4390521295
I  I16  1  0.21322000  0.99546000  0.03700000  1.0 -0.4498939722
I  I17  1  0.20405000  0.79809000  0.19517000  1.0 -0.4498939722
I  I18  1  0.37180000  0.67533000  0.17229000  1.0 -0.2761252358
I  I19  1  0.16680000  0.95200000  0.87080000  1.0 0.0402441729
I  I20  1  0.12940000  0.95230000  0.80960000  1.0 0.0194632454
I  I21  1  0.25820000  0.62660000  0.21900000  1.0 0.0402441729
I  I22  1  0.15460000  0.57940000  0.26220000  1.0 0.3960683101
I  I23  1  0.27180000  0.00260000  0.86050000  1.0 0.0674743691
I  I24  1  0.11800000  0.00210000  0.82120000  1.0 -0.0129327652
I  I25  1  0.06369000  0.50297000  0.09696000  1.0 -0.291936735
I  I26  1  0.32260000  0.42873000  0.05894000  1.0 -0.3732419515
I  I27  1  0.26794000  0.43254000  0.87435000  1.0 -0.4390521295
I  I28  1  0.28678000  0.49546000  0.96300000  1.0 -0.4498939722
I  I29  1  0.29595000  0.29809000  0.80483000  1.0 -0.4498939722
I  I30  1  0.12820000  0.17533000  0.82771000  1.0 -0.2761252358
I  I31  1  0.33320000  0.45200000  0.12920000  1.0 0.0402441729
I  I32  1  0.37060000  0.45230000  0.19040000  1.0 0.0194632454
I  I33  1  0.24180000  0.12660000  0.78100000  1.0 0.0402441729
I  I34  1  0.34540000  0.07940000  0.73780000  1.0 0.3924663939
I  I35  1  0.22820000  0.50260000  0.13950000  1.0 0.0674743691
I  I36  1  0.38200000  0.50210000  0.17880000  1.0 -0.0129327652
I  I37  1  0.93631000  0.99703000  0.59696000  1.0 -0.291936735
I  I38  1  0.67740000  0.07127000  0.55894000  1.0 -0.3732419515
I  I39  1  0.73206000  0.06746000  0.37435000  1.0 -0.4390521295
I  I40  1  0.71322000  0.00454000  0.46300000  1.0 -0.4498939722
I  I41  1  0.70405000  0.20191000  0.30483000  1.0 -0.4498939722
I  I42  1  0.87180000  0.32467000  0.32771000  1.0 -0.2761252358
I  I43  1  0.66680000  0.04800000  0.62920000  1.0 0.0402441729
I  I44  1  0.62940000  0.04770000  0.69040000  1.0 0.0194632454
I  I45  1  0.75820000  0.37340000  0.28100000  1.0 0.0402441729
I  I46  1  0.65460000  0.42060000  0.23780000  1.0 0.3960683101
I  I47  1  0.77180000  0.99740000  0.63950000  1.0 0.0674743691
I  I48  1  0.61800000  0.99790000  0.67880000  1.0 -0.0129327652
I  I49  1  0.43631000  0.50297000  0.59696000  1.0 -0.291936735
I  I50  1  0.17740000  0.42873000  0.55894000  1.0 -0.3805983035
I  I51  1  0.23206000  0.43254000  0.37435000  1.0 -0.4390521295
I  I52  1  0.21322000  0.49546000  0.46300000  1.0 -0.4498939722
I  I53  1  0.20405000  0.29809000  0.30483000  1.0 -0.4498939722
I  I54  1  0.37180000  0.17533000  0.32771000  1.0 -0.2761252358
I  I55  1  0.16680000  0.45200000  0.62920000  1.0 0.0402441729
I  I56  1  0.12940000  0.45230000  0.69040000  1.0 0.0194632454
I  I57  1  0.25820000  0.12660000  0.28100000  1.0 0.0402441729
I  I58  1  0.15460000  0.07940000  0.23780000  1.0 0.3924663939
I  I59  1  0.27180000  0.50260000  0.63950000  1.0 0.0674743691
I  I60  1  0.11800000  0.50210000  0.67880000  1.0 -0.0129327652
I  I61  1  0.56369000  0.99703000  0.09696000  1.0 -0.291936735
I  I62  1  0.82260000  0.07127000  0.05894000  1.0 -0.3805983035
I  I63  1  0.76794000  0.06746000  0.87435000  1.0 -0.4390521295
I  I64  1  0.78678000  0.00454000  0.96300000  1.0 -0.4498939722
I  I65  1  0.79595000  0.20191000  0.80483000  1.0 -0.4498939722
I  I66  1  0.62820000  0.32467000  0.82771000  1.0 -0.2761252358
I  I67  1  0.83320000  0.04800000  0.12920000  1.0 0.0402441729
I  I68  1  0.87060000  0.04770000  0.19040000  1.0 0.0194632454
I  I69  1  0.74180000  0.37340000  0.78100000  1.0 0.0474845564
I  I70  1  0.84540000  0.42060000  0.73780000  1.0 0.3924663939
I  I71  1  0.72820000  0.99740000  0.13950000  1.0 0.0674743691
I  I72  1  0.88200000  0.99790000  0.17880000  1.0 -0.0129327652
I  I73  1  0.93631000  0.49703000  0.90304000  1.0 -0.291936735
I  I74  1  0.67740000  0.57127000  0.94106000  1.0 -0.3732419515
I  I75  1  0.73206000  0.56746000  0.12565000  1.0 -0.4390521295
I  I76  1  0.71322000  0.50454000  0.03700000  1.0 -0.4498939722
I  I77  1  0.70405000  0.70191000  0.19517000  1.0 -0.4498939722
I  I78  1  0.87180000  0.82467000  0.17229000  1.0 -0.2761252358
I  I79  1  0.66680000  0.54800000  0.87080000  1.0 0.0402441729
I  I80  1  0.62940000  0.54770000  0.80960000  1.0 0.0194632454
I  I81  1  0.75820000  0.87340000  0.21900000  1.0 0.0402441729
I  I82  1  0.65460000  0.92060000  0.26220000  1.0 0.3960683101
I  I83  1  0.77180000  0.49740000  0.86050000  1.0 0.0674743691
I  I84  1  0.61800000  0.49790000  0.82120000  1.0 -0.0129327652
I  I85  1  0.06369000  0.00297000  0.40304000  1.0 -0.291936735
I  I86  1  0.32260000  0.92873000  0.44106000  1.0 -0.3732419515
I  I87  1  0.26794000  0.93254000  0.62565000  1.0 -0.4390521295
I  I88  1  0.28678000  0.99546000  0.53700000  1.0 -0.4498939722
I  I89  1  0.29595000  0.79809000  0.69517000  1.0 -0.4498939722
I  I90  1  0.12820000  0.67533000  0.67229000  1.0 -0.2761252358
I  I91  1  0.33320000  0.95200000  0.37080000  1.0 0.0402441729
I  I92  1  0.37060000  0.95230000  0.30960000  1.0 0.0194632454
I  I93  1  0.24180000  0.62660000  0.71900000  1.0 0.0402441729
I  I94  1  0.34540000  0.57940000  0.76220000  1.0 0.3960683101
I  I95  1  0.22820000  0.00260000  0.36050000  1.0 0.0674743691
I  I96  1  0.38200000  0.00210000  0.32120000  1.0 -0.0129327652
N  N1  1  0.57350000  0.57250000  0.46860000  1.0 -0.1905110058
N  N2  1  0.32160000  0.59050000  0.54700000  1.0 -0.3732419515
N  N3  1  0.31540000  0.62350000  0.59430000  1.0 -0.4019371144
N  N4  1  0.45780000  0.62300000  0.56741000  1.0 -0.3644039876
N  N5  1  0.99140000  0.55270000  0.58070000  1.0 -0.1798986266
N  N6  1  0.55550000  0.69960000  0.66010000  1.0 -0.1905110058
N  N7  1  0.39360000  0.87610000  0.90722000  1.0 -0.1798986266
N  N8  1  0.42270000  0.71270000  0.87157000  1.0 -0.3869582064
N  N9  1  0.45640000  0.67550000  0.82591000  1.0 -0.3805983035
N  N10  1  0.45520000  0.75820000  0.82948000  1.0 -0.4127641118
N  N11  1  0.39320000  0.54170000  0.89360000  1.0 -0.1701283936
N  N12  1  0.55950000  0.73180000  0.72753000  1.0 -0.1798986266
N  N13  1  0.88500000  0.93590000  0.75510000  1.0 0.0402441729
N  N14  1  0.42650000  0.92750000  0.96860000  1.0 -0.1905110058
N  N15  1  0.67840000  0.90950000  0.04700000  1.0 -0.3732419515
N  N16  1  0.68460000  0.87650000  0.09430000  1.0 -0.4019371144
N  N17  1  0.54220000  0.87700000  0.06741000  1.0 -0.3644039876
N  N18  1  0.00860000  0.94730000  0.08070000  1.0 -0.1798986266
N  N19  1  0.44450000  0.80040000  0.16010000  1.0 -0.1905110058
N  N20  1  0.60640000  0.62390000  0.40722000  1.0 -0.1798986266
N  N21  1  0.57730000  0.78730000  0.37157000  1.0 -0.3805983035
N  N22  1  0.54360000  0.82450000  0.32591000  1.0 -0.3805983035
N  N23  1  0.54480000  0.74180000  0.32948000  1.0 -0.4127641118
N  N24  1  0.60680000  0.95830000  0.39360000  1.0 -0.1798986266
N  N25  1  0.44050000  0.76820000  0.22753000  1.0 -0.1798986266
N  N26  1  0.11500000  0.56410000  0.25510000  1.0 0.0307841158
N  N27  1  0.07350000  0.42750000  0.03140000  1.0 -0.1905110058
N  N28  1  0.82160000  0.40950000  0.95300000  1.0 -0.3732419515
N  N29  1  0.81540000  0.37650000  0.90570000  1.0 -0.4019371144
N  N30  1  0.95780000  0.37700000  0.93259000  1.0 -0.3644039876
N  N31  1  0.49140000  0.44730000  0.91930000  1.0 -0.1798986266
N  N32  1  0.05550000  0.30040000  0.83990000  1.0 -0.1905110058
N  N33  1  0.89360000  0.12390000  0.59278000  1.0 -0.1798986266
N  N34  1  0.92270000  0.28730000  0.62843000  1.0 -0.3869582064
N  N35  1  0.95640000  0.32450000  0.67409000  1.0 -0.3805983035
N  N36  1  0.95520000  0.24180000  0.67052000  1.0 -0.4127641118
N  N37  1  0.89320000  0.45830000  0.60640000  1.0 -0.1701283936
N  N38  1  0.05950000  0.26820000  0.77247000  1.0 -0.1798986266
N  N39  1  0.38500000  0.06410000  0.74490000  1.0 0.0307841158
N  N40  1  0.92650000  0.07250000  0.53140000  1.0 -0.1905110058
N  N41  1  0.17840000  0.09050000  0.45300000  1.0 -0.3732419515
N  N42  1  0.18460000  0.12350000  0.40570000  1.0 -0.4019371144
N  N43  1  0.04220000  0.12300000  0.43259000  1.0 -0.3644039876
N  N44  1  0.50860000  0.05270000  0.41930000  1.0 -0.1798986266
N  N45  1  0.94450000  0.19960000  0.33990000  1.0 -0.1905110058
N  N46  1  0.10640000  0.37610000  0.09278000  1.0 -0.1798986266
N  N47  1  0.07730000  0.21270000  0.12843000  1.0 -0.3805983035
N  N48  1  0.04360000  0.17550000  0.17409000  1.0 -0.3805983035
N  N49  1  0.04480000  0.25820000  0.17052000  1.0 -0.4127641118
N  N50  1  0.10680000  0.04170000  0.10640000  1.0 -0.1798986266
N  N51  1  0.94050000  0.23180000  0.27247000  1.0 -0.1798986266
N  N52  1  0.61500000  0.43590000  0.24490000  1.0 0.0307841158
N  N53  1  0.42650000  0.42750000  0.53140000  1.0 -0.1905110058
N  N54  1  0.67840000  0.40950000  0.45300000  1.0 -0.3732419515
N  N55  1  0.68460000  0.37650000  0.40570000  1.0 -0.4019371144
N  N56  1  0.54220000  0.37700000  0.43259000  1.0 -0.3644039876
N  N57  1  0.00860000  0.44730000  0.41930000  1.0 -0.1798986266
N  N58  1  0.44450000  0.30040000  0.33990000  1.0 -0.1905110058
N  N59  1  0.60640000  0.12390000  0.09278000  1.0 -0.1798986266
N  N60  1  0.57730000  0.28730000  0.12843000  1.0 -0.3805983035
N  N61  1  0.54360000  0.32450000  0.17409000  1.0 -0.3805983035
N  N62  1  0.54480000  0.24180000  0.17052000  1.0 -0.4127641118
N  N63  1  0.60680000  0.45830000  0.10640000  1.0 -0.1798986266
N  N64  1  0.44050000  0.26820000  0.27247000  1.0 -0.1798986266
N  N65  1  0.11500000  0.06410000  0.24490000  1.0 0.0307841158
N  N66  1  0.57350000  0.07250000  0.03140000  1.0 -0.1905110058
N  N67  1  0.32160000  0.09050000  0.95300000  1.0 -0.3732419515
N  N68  1  0.31540000  0.12350000  0.90570000  1.0 -0.4019371144
N  N69  1  0.45780000  0.12300000  0.93259000  1.0 -0.3644039876
N  N70  1  0.99140000  0.05270000  0.91930000  1.0 -0.1798986266
N  N71  1  0.55550000  0.19960000  0.83990000  1.0 -0.1905110058
N  N72  1  0.39360000  0.37610000  0.59278000  1.0 -0.1798986266
N  N73  1  0.42270000  0.21270000  0.62843000  1.0 -0.3869582064
N  N74  1  0.45640000  0.17550000  0.67409000  1.0 -0.3805983035
N  N75  1  0.45520000  0.25820000  0.67052000  1.0 -0.4127641118
N  N76  1  0.39320000  0.04170000  0.60640000  1.0 -0.1701283936
N  N77  1  0.55950000  0.23180000  0.77247000  1.0 -0.1798986266
N  N78  1  0.88500000  0.43590000  0.74490000  1.0 0.0402441729
N  N79  1  0.92650000  0.57250000  0.96860000  1.0 -0.1905110058
N  N80  1  0.17840000  0.59050000  0.04700000  1.0 -0.3732419515
N  N81  1  0.18460000  0.62350000  0.09430000  1.0 -0.4019371144
N  N82  1  0.04220000  0.62300000  0.06741000  1.0 -0.3644039876
N  N83  1  0.50860000  0.55270000  0.08070000  1.0 -0.1798986266
N  N84  1  0.94450000  0.69960000  0.16010000  1.0 -0.1905110058
N  N85  1  0.10640000  0.87610000  0.40722000  1.0 -0.1798986266
N  N86  1  0.07730000  0.71270000  0.37157000  1.0 -0.3805983035
N  N87  1  0.04360000  0.67550000  0.32591000  1.0 -0.3805983035
N  N88  1  0.04480000  0.75820000  0.32948000  1.0 -0.4127641118
N  N89  1  0.10680000  0.54170000  0.39360000  1.0 -0.1798986266
N  N90  1  0.94050000  0.73180000  0.22753000  1.0 -0.1798986266
N  N91  1  0.61500000  0.93590000  0.25510000  1.0 0.0307841158
N  N92  1  0.07350000  0.92750000  0.46860000  1.0 -0.1905110058
N  N93  1  0.82160000  0.90950000  0.54700000  1.0 -0.3732419515
N  N94  1  0.81540000  0.87650000  0.59430000  1.0 -0.4019371144
N  N95  1  0.95780000  0.87700000  0.56741000  1.0 -0.3644039876
N  N96  1  0.49140000  0.94730000  0.58070000  1.0 -0.1798986266
N  N97  1  0.05550000  0.80040000  0.66010000  1.0 -0.1954664237
N  N98  1  0.89360000  0.62390000  0.90722000  1.0 -0.1798986266
N  N99  1  0.92270000  0.78730000  0.87157000  1.0 -0.3869582064
N  N100  1  0.95640000  0.82450000  0.82591000  1.0 -0.3805983035
N  N101  1  0.95520000  0.74180000  0.82948000  1.0 -0.4127641118
N  N102  1  0.89320000  0.95830000  0.89360000  1.0 -0.1701283936
N  N103  1  0.05950000  0.76820000  0.72753000  1.0 -0.1798986266
N  N104  1  0.38500000  0.56410000  0.75510000  1.0 0.0307841158
O  O1  1  0.79300000  0.93350000  0.75810000  1.0 -0.2711645386
O  O2  1  0.94200000  0.93910000  0.77710000  1.0 -0.3060055024
O  O3  1  0.20700000  0.56650000  0.25810000  1.0 -0.2711645386
O  O4  1  0.05800000  0.56090000  0.27710000  1.0 -0.3046440131
O  O5  1  0.29300000  0.06650000  0.74190000  1.0 -0.2711645386
O  O6  1  0.44200000  0.06090000  0.72290000  1.0 -0.3046440131
O  O7  1  0.70700000  0.43350000  0.24190000  1.0 -0.2711645386
O  O8  1  0.55800000  0.43910000  0.22290000  1.0 -0.3046440131
O  O9  1  0.20700000  0.06650000  0.24190000  1.0 -0.2711645386
O  O10  1  0.05800000  0.06090000  0.22290000  1.0 -0.3046440131
O  O11  1  0.79300000  0.43350000  0.74190000  1.0 -0.2711645386
O  O12  1  0.94200000  0.43910000  0.72290000  1.0 -0.3060055024
O  O13  1  0.70700000  0.93350000  0.25810000  1.0 -0.2711645386
O  O14  1  0.55800000  0.93910000  0.27710000  1.0 -0.3046440131
O  O15  1  0.29300000  0.56650000  0.75810000  1.0 -0.2711645386
O  O16  1  0.44200000  0.56090000  0.77710000  1.0 -0.3046440131
