# DDEC6 charges by PACMAN v1.1 (https://github.com/mtap-research/PACMAN-charge/)
data_KEVXAN_ASR_pacman
_symmetry_space_group_name_H-M   'P 1'
_cell_length_a   13.97650000
_cell_length_b   28.68660000
_cell_length_c   46.10320000
_cell_angle_alpha   90.00000000
_cell_angle_beta   90.00000000
_cell_angle_gamma   90.00000000
_symmetry_Int_Tables_number   1
_chemical_formula_structural   Zn3H29C42I12N13O2
_chemical_formula_sum   'Zn24 H232 C336 I96 N104 O16'
_cell_volume   18484.53701434
_cell_formula_units_Z   8
loop_
 _symmetry_equiv_pos_site_id
 _symmetry_equiv_pos_as_xyz
  1  'x, y, z'
loop_
 _atom_site_type_symbol
 _atom_site_label
 _atom_site_symmetry_multiplicity
 _atom_site_fract_x
 _atom_site_fract_y
 _atom_site_fract_z
 _atom_site_occupancy
 _atom_site_charge
Zn  Zn1  1  0.64724000  0.56287000  0.43030000  1.0 0.4263036969
Zn  Zn2  1  0.85729000  0.52197000  0.58694000  1.0 0.4613705473
Zn  Zn3  1  0.63359000  0.74092000  0.68848000  1.0 0.4414137649
Zn  Zn4  1  0.35276000  0.93713000  0.93030000  1.0 0.4263036969
Zn  Zn5  1  0.14271000  0.97803000  0.08694000  1.0 0.4613705473
Zn  Zn6  1  0.36641000  0.75908000  0.18848000  1.0 0.4414137649
Zn  Zn7  1  0.14724000  0.43713000  0.06970000  1.0 0.4263036969
Zn  Zn8  1  0.35729000  0.47803000  0.91306000  1.0 0.4613705473
Zn  Zn9  1  0.13359000  0.25908000  0.81152000  1.0 0.4414137649
Zn  Zn10  1  0.85276000  0.06287000  0.56970000  1.0 0.4263036969
Zn  Zn11  1  0.64271000  0.02197000  0.41306000  1.0 0.4613705473
Zn  Zn12  1  0.86641000  0.24092000  0.31152000  1.0 0.4414137649
Zn  Zn13  1  0.35276000  0.43713000  0.56970000  1.0 0.4263036969
Zn  Zn14  1  0.14271000  0.47803000  0.41306000  1.0 0.4613705473
Zn  Zn15  1  0.36641000  0.25908000  0.31152000  1.0 0.4414137649
Zn  Zn16  1  0.64724000  0.06287000  0.06970000  1.0 0.4263036969
Zn  Zn17  1  0.85729000  0.02197000  0.91306000  1.0 0.4613705473
Zn  Zn18  1  0.63359000  0.24092000  0.81152000  1.0 0.4414137649
Zn  Zn19  1  0.85276000  0.56287000  0.93030000  1.0 0.4263036969
Zn  Zn20  1  0.64271000  0.52197000  0.08694000  1.0 0.4613705473
Zn  Zn21  1  0.86641000  0.74092000  0.18848000  1.0 0.4414137649
Zn  Zn22  1  0.14724000  0.93713000  0.43030000  1.0 0.4263036969
Zn  Zn23  1  0.35729000  0.97803000  0.58694000  1.0 0.4613705473
Zn  Zn24  1  0.13359000  0.75908000  0.68848000  1.0 0.4414137649
H  H1  1  0.45180000  0.54610000  0.45550000  1.0 0.1095067272
H  H2  1  0.36260000  0.56200000  0.49580000  1.0 0.1372231546
H  H3  1  0.59370000  0.61710000  0.53280000  1.0 0.1312015843
H  H4  1  0.68310000  0.59510000  0.49210000  1.0 0.0990320981
H  H5  1  0.16330000  0.55200000  0.53500000  1.0 0.1372231546
H  H6  1  0.00930000  0.52870000  0.54130000  1.0 0.1095067272
H  H7  1  0.99570000  0.58420000  0.61740000  1.0 0.1095067272
H  H8  1  0.14810000  0.61300000  0.61350000  1.0 0.1312015843
H  H9  1  0.34190000  0.67660000  0.63830000  1.0 0.1372231546
H  H10  1  0.42990000  0.71720000  0.67350000  1.0 0.1095067272
H  H11  1  0.66950000  0.67770000  0.63880000  1.0 0.1095067272
H  H12  1  0.59150000  0.64070000  0.60210000  1.0 0.1372231546
H  H13  1  0.36480000  0.83280000  0.93820000  1.0 0.1095067272
H  H14  1  0.39040000  0.76570000  0.91410000  1.0 0.1372231546
H  H15  1  0.44750000  0.84280000  0.84370000  1.0 0.1312015843
H  H16  1  0.41920000  0.90750000  0.87060000  1.0 0.0990320981
H  H17  1  0.41950000  0.64910000  0.91000000  1.0 0.1223852253
H  H18  1  0.39810000  0.57790000  0.92940000  1.0 0.1095067272
H  H19  1  0.39450000  0.51920000  0.85350000  1.0 0.1095067272
H  H20  1  0.42810000  0.58830000  0.83140000  1.0 0.1223852253
H  H21  1  0.52870000  0.65530000  0.77680000  1.0 0.1312015843
H  H22  1  0.57280000  0.66530000  0.72870000  1.0 0.1095067272
H  H23  1  0.52590000  0.79770000  0.73270000  1.0 0.0990320981
H  H24  1  0.47920000  0.79350000  0.78090000  1.0 0.1312015843
H  H25  1  0.05080000  0.94560000  0.74410000  1.0 0.1095067272
H  H26  1  0.12880000  0.95420000  0.70000000  1.0 0.1312015843
H  H27  1  0.04540000  0.94420000  0.65700000  1.0 0.0990320981
H  H28  1  0.88390000  0.92560000  0.65800000  1.0 0.0990320981
H  H29  1  0.80590000  0.91700000  0.70210000  1.0 0.0908330584
H  H30  1  0.54820000  0.95390000  0.95550000  1.0 0.1095067272
H  H31  1  0.63740000  0.93800000  0.99580000  1.0 0.1372231546
H  H32  1  0.40630000  0.88290000  0.03280000  1.0 0.1312015843
H  H33  1  0.31690000  0.90490000  0.99210000  1.0 0.0990320981
H  H34  1  0.83670000  0.94800000  0.03500000  1.0 0.1312015843
H  H35  1  0.99070000  0.97130000  0.04130000  1.0 0.1095067272
H  H36  1  0.00430000  0.91580000  0.11740000  1.0 0.1095067272
H  H37  1  0.85190000  0.88700000  0.11350000  1.0 0.1312015843
H  H38  1  0.65810000  0.82340000  0.13830000  1.0 0.1372231546
H  H39  1  0.57010000  0.78280000  0.17350000  1.0 0.1095067272
H  H40  1  0.33050000  0.82230000  0.13880000  1.0 0.1095067272
H  H41  1  0.40850000  0.85930000  0.10210000  1.0 0.1372231546
H  H42  1  0.63520000  0.66720000  0.43820000  1.0 0.1095067272
H  H43  1  0.60960000  0.73430000  0.41410000  1.0 0.1372231546
H  H44  1  0.55250000  0.65720000  0.34370000  1.0 0.1312015843
H  H45  1  0.58080000  0.59250000  0.37060000  1.0 0.0990320981
H  H46  1  0.58050000  0.85090000  0.41000000  1.0 0.1223852253
H  H47  1  0.60190000  0.92210000  0.42940000  1.0 0.1095067272
H  H48  1  0.60550000  0.98080000  0.35350000  1.0 0.1095067272
H  H49  1  0.57190000  0.91170000  0.33140000  1.0 0.1223852253
H  H50  1  0.47130000  0.84470000  0.27680000  1.0 0.1312015843
H  H51  1  0.42720000  0.83470000  0.22870000  1.0 0.1095067272
H  H52  1  0.47410000  0.70230000  0.23270000  1.0 0.0990320981
H  H53  1  0.52080000  0.70650000  0.28090000  1.0 0.1312015843
H  H54  1  0.94920000  0.55440000  0.24410000  1.0 0.1095067272
H  H55  1  0.87120000  0.54580000  0.20000000  1.0 0.1312015843
H  H56  1  0.95460000  0.55580000  0.15700000  1.0 0.0990320981
H  H57  1  0.11610000  0.57440000  0.15800000  1.0 0.0990320981
H  H58  1  0.19410000  0.58300000  0.20210000  1.0 0.0908330584
H  H59  1  0.95180000  0.45390000  0.04450000  1.0 0.1095067272
H  H60  1  0.86260000  0.43800000  0.00420000  1.0 0.1372231546
H  H61  1  0.09370000  0.38290000  0.96720000  1.0 0.1312015843
H  H62  1  0.18310000  0.40490000  0.00790000  1.0 0.0990320981
H  H63  1  0.66330000  0.44800000  0.96500000  1.0 0.1312015843
H  H64  1  0.50930000  0.47130000  0.95870000  1.0 0.1095067272
H  H65  1  0.49570000  0.41580000  0.88260000  1.0 0.1095067272
H  H66  1  0.64810000  0.38700000  0.88650000  1.0 0.1312015843
H  H67  1  0.84190000  0.32340000  0.86170000  1.0 0.1372231546
H  H68  1  0.92990000  0.28280000  0.82650000  1.0 0.1095067272
H  H69  1  0.16950000  0.32230000  0.86120000  1.0 0.1095067272
H  H70  1  0.09150000  0.35930000  0.89790000  1.0 0.1372231546
H  H71  1  0.86480000  0.16720000  0.56180000  1.0 0.1095067272
H  H72  1  0.89040000  0.23430000  0.58590000  1.0 0.1372231546
H  H73  1  0.94750000  0.15720000  0.65630000  1.0 0.1312015843
H  H74  1  0.91920000  0.09250000  0.62940000  1.0 0.0990320981
H  H75  1  0.91950000  0.35090000  0.59000000  1.0 0.1223852253
H  H76  1  0.89810000  0.42210000  0.57060000  1.0 0.1095067272
H  H77  1  0.89450000  0.48080000  0.64650000  1.0 0.1095067272
H  H78  1  0.92810000  0.41170000  0.66860000  1.0 0.1223852253
H  H79  1  0.02870000  0.34470000  0.72320000  1.0 0.1312015843
H  H80  1  0.07280000  0.33470000  0.77130000  1.0 0.1095067272
H  H81  1  0.02590000  0.20230000  0.76730000  1.0 0.0990320981
H  H82  1  0.97920000  0.20650000  0.71910000  1.0 0.1312015843
H  H83  1  0.55080000  0.05440000  0.75590000  1.0 0.1095067272
H  H84  1  0.62880000  0.04580000  0.80000000  1.0 0.1312015843
H  H85  1  0.54540000  0.05580000  0.84300000  1.0 0.0990320981
H  H86  1  0.38390000  0.07440000  0.84200000  1.0 0.0990320981
H  H87  1  0.30590000  0.08300000  0.79790000  1.0 0.0908330584
H  H88  1  0.04820000  0.04610000  0.54450000  1.0 0.1095067272
H  H89  1  0.13740000  0.06200000  0.50420000  1.0 0.1372231546
H  H90  1  0.90630000  0.11710000  0.46720000  1.0 0.1312015843
H  H91  1  0.81690000  0.09510000  0.50790000  1.0 0.0990320981
H  H92  1  0.33670000  0.05200000  0.46500000  1.0 0.1312015843
H  H93  1  0.49070000  0.02870000  0.45870000  1.0 0.1095067272
H  H94  1  0.50430000  0.08420000  0.38260000  1.0 0.1095067272
H  H95  1  0.35190000  0.11300000  0.38650000  1.0 0.1312015843
H  H96  1  0.15810000  0.17660000  0.36170000  1.0 0.1372231546
H  H97  1  0.07010000  0.21720000  0.32650000  1.0 0.1095067272
H  H98  1  0.83050000  0.17770000  0.36120000  1.0 0.1095067272
H  H99  1  0.90850000  0.14070000  0.39790000  1.0 0.1372231546
H  H100  1  0.13520000  0.33280000  0.06180000  1.0 0.1095067272
H  H101  1  0.10960000  0.26570000  0.08590000  1.0 0.1372231546
H  H102  1  0.05250000  0.34280000  0.15630000  1.0 0.1312015843
H  H103  1  0.08080000  0.40750000  0.12940000  1.0 0.0990320981
H  H104  1  0.08050000  0.14910000  0.09000000  1.0 0.1223852253
H  H105  1  0.10190000  0.07790000  0.07060000  1.0 0.1095067272
H  H106  1  0.10550000  0.01920000  0.14650000  1.0 0.1095067272
H  H107  1  0.07190000  0.08830000  0.16860000  1.0 0.1223852253
H  H108  1  0.97130000  0.15530000  0.22320000  1.0 0.1312015843
H  H109  1  0.92720000  0.16530000  0.27130000  1.0 0.1095067272
H  H110  1  0.97410000  0.29770000  0.26730000  1.0 0.0990320981
H  H111  1  0.02080000  0.29350000  0.21910000  1.0 0.1312015843
H  H112  1  0.44920000  0.44560000  0.25590000  1.0 0.1095067272
H  H113  1  0.37120000  0.45420000  0.30000000  1.0 0.1312015843
H  H114  1  0.45460000  0.44420000  0.34300000  1.0 0.0990320981
H  H115  1  0.61610000  0.42560000  0.34200000  1.0 0.0990320981
H  H116  1  0.69410000  0.41700000  0.29790000  1.0 0.0908330584
H  H117  1  0.54820000  0.45390000  0.54450000  1.0 0.1095067272
H  H118  1  0.63740000  0.43800000  0.50420000  1.0 0.1372231546
H  H119  1  0.40630000  0.38290000  0.46720000  1.0 0.1312015843
H  H120  1  0.31690000  0.40490000  0.50790000  1.0 0.0990320981
H  H121  1  0.83670000  0.44800000  0.46500000  1.0 0.1312015843
H  H122  1  0.99070000  0.47130000  0.45870000  1.0 0.1095067272
H  H123  1  0.00430000  0.41580000  0.38260000  1.0 0.1095067272
H  H124  1  0.85190000  0.38700000  0.38650000  1.0 0.1312015843
H  H125  1  0.65810000  0.32340000  0.36170000  1.0 0.1372231546
H  H126  1  0.57010000  0.28280000  0.32650000  1.0 0.1095067272
H  H127  1  0.33050000  0.32230000  0.36120000  1.0 0.1095067272
H  H128  1  0.40850000  0.35930000  0.39790000  1.0 0.1372231546
H  H129  1  0.63520000  0.16720000  0.06180000  1.0 0.1095067272
H  H130  1  0.60960000  0.23430000  0.08590000  1.0 0.1372231546
H  H131  1  0.55250000  0.15720000  0.15630000  1.0 0.1312015843
H  H132  1  0.58080000  0.09250000  0.12940000  1.0 0.0990320981
H  H133  1  0.58050000  0.35090000  0.09000000  1.0 0.1223852253
H  H134  1  0.60190000  0.42210000  0.07060000  1.0 0.1095067272
H  H135  1  0.60550000  0.48080000  0.14650000  1.0 0.1095067272
H  H136  1  0.57190000  0.41170000  0.16860000  1.0 0.1223852253
H  H137  1  0.47130000  0.34470000  0.22320000  1.0 0.1312015843
H  H138  1  0.42720000  0.33470000  0.27130000  1.0 0.1095067272
H  H139  1  0.47410000  0.20230000  0.26730000  1.0 0.0990320981
H  H140  1  0.52080000  0.20650000  0.21910000  1.0 0.1312015843
H  H141  1  0.94920000  0.05440000  0.25590000  1.0 0.1095067272
H  H142  1  0.87120000  0.04580000  0.30000000  1.0 0.1312015843
H  H143  1  0.95460000  0.05580000  0.34300000  1.0 0.0990320981
H  H144  1  0.11610000  0.07440000  0.34200000  1.0 0.0990320981
H  H145  1  0.19410000  0.08300000  0.29790000  1.0 0.0908330584
H  H146  1  0.45180000  0.04610000  0.04450000  1.0 0.1095067272
H  H147  1  0.36260000  0.06200000  0.00420000  1.0 0.1372231546
H  H148  1  0.59370000  0.11710000  0.96720000  1.0 0.1312015843
H  H149  1  0.68310000  0.09510000  0.00790000  1.0 0.0990320981
H  H150  1  0.16330000  0.05200000  0.96500000  1.0 0.1372231546
H  H151  1  0.00930000  0.02870000  0.95870000  1.0 0.1095067272
H  H152  1  0.99570000  0.08420000  0.88260000  1.0 0.1095067272
H  H153  1  0.14810000  0.11300000  0.88650000  1.0 0.1312015843
H  H154  1  0.34190000  0.17660000  0.86170000  1.0 0.1372231546
H  H155  1  0.42990000  0.21720000  0.82650000  1.0 0.1095067272
H  H156  1  0.66950000  0.17770000  0.86120000  1.0 0.1095067272
H  H157  1  0.59150000  0.14070000  0.89790000  1.0 0.1372231546
H  H158  1  0.36480000  0.33280000  0.56180000  1.0 0.1095067272
H  H159  1  0.39040000  0.26570000  0.58590000  1.0 0.1372231546
H  H160  1  0.44750000  0.34280000  0.65630000  1.0 0.1312015843
H  H161  1  0.41920000  0.40750000  0.62940000  1.0 0.0990320981
H  H162  1  0.41950000  0.14910000  0.59000000  1.0 0.1223852253
H  H163  1  0.39810000  0.07790000  0.57060000  1.0 0.1095067272
H  H164  1  0.39450000  0.01920000  0.64650000  1.0 0.1095067272
H  H165  1  0.42810000  0.08830000  0.66860000  1.0 0.1223852253
H  H166  1  0.52870000  0.15530000  0.72320000  1.0 0.1312015843
H  H167  1  0.57280000  0.16530000  0.77130000  1.0 0.1095067272
H  H168  1  0.52590000  0.29770000  0.76730000  1.0 0.0990320981
H  H169  1  0.47920000  0.29350000  0.71910000  1.0 0.1312015843
H  H170  1  0.05080000  0.44560000  0.75590000  1.0 0.1095067272
H  H171  1  0.12880000  0.45420000  0.80000000  1.0 0.1312015843
H  H172  1  0.04540000  0.44420000  0.84300000  1.0 0.0990320981
H  H173  1  0.88390000  0.42560000  0.84200000  1.0 0.0990320981
H  H174  1  0.80590000  0.41700000  0.79790000  1.0 0.0908330584
H  H175  1  0.04820000  0.54610000  0.95550000  1.0 0.1095067272
H  H176  1  0.13740000  0.56200000  0.99580000  1.0 0.1372231546
H  H177  1  0.90630000  0.61710000  0.03280000  1.0 0.1312015843
H  H178  1  0.81690000  0.59510000  0.99210000  1.0 0.0990320981
H  H179  1  0.33670000  0.55200000  0.03500000  1.0 0.1312015843
H  H180  1  0.49070000  0.52870000  0.04130000  1.0 0.1095067272
H  H181  1  0.50430000  0.58420000  0.11740000  1.0 0.1095067272
H  H182  1  0.35190000  0.61300000  0.11350000  1.0 0.1312015843
H  H183  1  0.15810000  0.67660000  0.13830000  1.0 0.1372231546
H  H184  1  0.07010000  0.71720000  0.17350000  1.0 0.1095067272
H  H185  1  0.83050000  0.67770000  0.13880000  1.0 0.1095067272
H  H186  1  0.90850000  0.64070000  0.10210000  1.0 0.1372231546
H  H187  1  0.13520000  0.83280000  0.43820000  1.0 0.1095067272
H  H188  1  0.10960000  0.76570000  0.41410000  1.0 0.1372231546
H  H189  1  0.05250000  0.84280000  0.34370000  1.0 0.1312015843
H  H190  1  0.08080000  0.90750000  0.37060000  1.0 0.0990320981
H  H191  1  0.08050000  0.64910000  0.41000000  1.0 0.1223852253
H  H192  1  0.10190000  0.57790000  0.42940000  1.0 0.1095067272
H  H193  1  0.10550000  0.51920000  0.35350000  1.0 0.1095067272
H  H194  1  0.07190000  0.58830000  0.33140000  1.0 0.1223852253
H  H195  1  0.97130000  0.65530000  0.27680000  1.0 0.1312015843
H  H196  1  0.92720000  0.66530000  0.22870000  1.0 0.1095067272
H  H197  1  0.97410000  0.79770000  0.23270000  1.0 0.0990320981
H  H198  1  0.02080000  0.79350000  0.28090000  1.0 0.1312015843
H  H199  1  0.44920000  0.94560000  0.24410000  1.0 0.1095067272
H  H200  1  0.37120000  0.95420000  0.20000000  1.0 0.1312015843
H  H201  1  0.45460000  0.94420000  0.15700000  1.0 0.0990320981
H  H202  1  0.61610000  0.92560000  0.15800000  1.0 0.0990320981
H  H203  1  0.69410000  0.91700000  0.20210000  1.0 0.0908330584
H  H204  1  0.95180000  0.95390000  0.45550000  1.0 0.1095067272
H  H205  1  0.86260000  0.93800000  0.49580000  1.0 0.1372231546
H  H206  1  0.09370000  0.88290000  0.53280000  1.0 0.1312015843
H  H207  1  0.18310000  0.90490000  0.49210000  1.0 0.0990320981
H  H208  1  0.66330000  0.94800000  0.53500000  1.0 0.1312015843
H  H209  1  0.50930000  0.97130000  0.54130000  1.0 0.1095067272
H  H210  1  0.49570000  0.91580000  0.61740000  1.0 0.1095067272
H  H211  1  0.64810000  0.88700000  0.61350000  1.0 0.1312015843
H  H212  1  0.84190000  0.82340000  0.63830000  1.0 0.1372231546
H  H213  1  0.92990000  0.78280000  0.67350000  1.0 0.1095067272
H  H214  1  0.16950000  0.82230000  0.63880000  1.0 0.1095067272
H  H215  1  0.09150000  0.85930000  0.60210000  1.0 0.1372231546
H  H216  1  0.86480000  0.66720000  0.93820000  1.0 0.1095067272
H  H217  1  0.89040000  0.73430000  0.91410000  1.0 0.1372231546
H  H218  1  0.94750000  0.65720000  0.84370000  1.0 0.1312015843
H  H219  1  0.91920000  0.59250000  0.87060000  1.0 0.0990320981
H  H220  1  0.91950000  0.85090000  0.91000000  1.0 0.1223852253
H  H221  1  0.89810000  0.92210000  0.92940000  1.0 0.1095067272
H  H222  1  0.89450000  0.98080000  0.85350000  1.0 0.1095067272
H  H223  1  0.92810000  0.91170000  0.83140000  1.0 0.1223852253
H  H224  1  0.02870000  0.84470000  0.77680000  1.0 0.1312015843
H  H225  1  0.07280000  0.83470000  0.72870000  1.0 0.1095067272
H  H226  1  0.02590000  0.70230000  0.73270000  1.0 0.0990320981
H  H227  1  0.97920000  0.70650000  0.78090000  1.0 0.1312015843
H  H228  1  0.55080000  0.55440000  0.74410000  1.0 0.1095067272
H  H229  1  0.62880000  0.54580000  0.70000000  1.0 0.1312015843
H  H230  1  0.54540000  0.55580000  0.65700000  1.0 0.0990320981
H  H231  1  0.38390000  0.57440000  0.65800000  1.0 0.0990320981
H  H232  1  0.30590000  0.58300000  0.70210000  1.0 0.0908330584
C  C1  1  0.48090000  0.56100000  0.47110000  1.0 0.0706287544
C  C2  1  0.42690000  0.57040000  0.49525000  1.0 -0.1404654942
C  C3  1  0.46920000  0.59280000  0.51931000  1.0 0.0395232886
C  C4  1  0.56320000  0.60240000  0.51740000  1.0 -0.1335346719
C  C5  1  0.61720000  0.59040000  0.49219000  1.0 0.0908330584
C  C6  1  0.41520000  0.60330000  0.54592000  1.0 0.3713957091
C  C7  1  0.27490000  0.60200000  0.57128000  1.0 0.3813582445
C  C8  1  0.40890000  0.63420000  0.59053000  1.0 0.3713957091
C  C9  1  0.17510000  0.58680000  0.57412000  1.0 0.0487344591
C  C10  1  0.13050000  0.55950000  0.55190000  1.0 -0.1494175003
C  C11  1  0.03950000  0.54480000  0.55620000  1.0 0.0908330584
C  C12  1  0.03100000  0.57780000  0.60080000  1.0 0.0768384096
C  C13  1  0.12240000  0.59530000  0.59850000  1.0 -0.1494175003
C  C14  1  0.45940000  0.65650000  0.61524000  1.0 0.0487344591
C  C15  1  0.40840000  0.67780000  0.63759000  1.0 -0.1494175003
C  C16  1  0.46240000  0.70110000  0.65902000  1.0 0.0990320981
C  C17  1  0.60300000  0.67840000  0.63840000  1.0 0.0768384096
C  C18  1  0.55660000  0.65610000  0.61635000  1.0 -0.1404654942
C  C19  1  0.38160000  0.83450000  0.91873000  1.0 0.0768384096
C  C20  1  0.39620000  0.79410000  0.90461000  1.0 -0.170209613
C  C21  1  0.42020000  0.79600000  0.87526000  1.0 0.060168154
C  C22  1  0.42980000  0.83980000  0.86302000  1.0 -0.1494175003
C  C23  1  0.41330000  0.87850000  0.87930000  1.0 0.0706287544
C  C24  1  0.43220000  0.75220000  0.85822000  1.0 0.3713957091
C  C25  1  0.43510000  0.67490000  0.85438000  1.0 0.3713957091
C  C26  1  0.46570000  0.71890000  0.81452000  1.0 0.3813582445
C  C27  1  0.42280000  0.62850000  0.86790000  1.0 0.060168154
C  C28  1  0.41530000  0.62320000  0.89788000  1.0 -0.1404654942
C  C29  1  0.40170000  0.58040000  0.90931000  1.0 0.0706287544
C  C30  1  0.40110000  0.54570000  0.86490000  1.0 0.060168154
C  C31  1  0.41880000  0.58730000  0.85130000  1.0 -0.1494175003
C  C32  1  0.49400000  0.72340000  0.78391000  1.0 0.0395232886
C  C33  1  0.52650000  0.68460000  0.76825000  1.0 -0.1335346719
C  C34  1  0.55530000  0.69120000  0.73966000  1.0 0.0706287544
C  C35  1  0.52770000  0.76900000  0.74202000  1.0 0.0908330584
C  C36  1  0.49700000  0.76670000  0.77087000  1.0 -0.1404654942
C  C37  1  0.92060000  0.93040000  0.72750000  1.0 0.0182984188
C  C38  1  0.01730000  0.94160000  0.72680000  1.0 -0.1404654942
C  C39  1  0.06410000  0.94680000  0.70040000  1.0 -0.0691786138
C  C40  1  0.01400000  0.94080000  0.67460000  1.0 -0.0691786138
C  C41  1  0.91700000  0.92960000  0.67530000  1.0 -0.0972782737
C  C42  1  0.87060000  0.92440000  0.70170000  1.0 -0.1494175003
C  C43  1  0.51910000  0.93900000  0.97110000  1.0 0.0706287544
C  C44  1  0.57310000  0.92960000  0.99525000  1.0 -0.1404654942
C  C45  1  0.53080000  0.90720000  0.01931000  1.0 0.0395232886
C  C46  1  0.43680000  0.89760000  0.01740000  1.0 -0.1335346719
C  C47  1  0.38280000  0.90960000  0.99219000  1.0 0.0908330584
C  C48  1  0.58480000  0.89670000  0.04592000  1.0 0.3713957091
C  C49  1  0.72510000  0.89800000  0.07128000  1.0 0.3813582445
C  C50  1  0.59110000  0.86580000  0.09053000  1.0 0.3713957091
C  C51  1  0.82490000  0.91320000  0.07412000  1.0 0.0487344591
C  C52  1  0.86950000  0.94050000  0.05190000  1.0 -0.1494175003
C  C53  1  0.96050000  0.95520000  0.05620000  1.0 0.0908330584
C  C54  1  0.96900000  0.92220000  0.10080000  1.0 0.0768384096
C  C55  1  0.87760000  0.90470000  0.09850000  1.0 -0.1494175003
C  C56  1  0.54060000  0.84350000  0.11524000  1.0 0.0487344591
C  C57  1  0.59160000  0.82220000  0.13759000  1.0 -0.1494175003
C  C58  1  0.53760000  0.79890000  0.15902000  1.0 0.0990320981
C  C59  1  0.39700000  0.82160000  0.13840000  1.0 0.0768384096
C  C60  1  0.44340000  0.84390000  0.11635000  1.0 -0.1404654942
C  C61  1  0.61840000  0.66550000  0.41873000  1.0 0.0768384096
C  C62  1  0.60380000  0.70590000  0.40461000  1.0 -0.170209613
C  C63  1  0.57980000  0.70400000  0.37526000  1.0 0.060168154
C  C64  1  0.57020000  0.66020000  0.36302000  1.0 -0.1494175003
C  C65  1  0.58670000  0.62150000  0.37930000  1.0 0.0706287544
C  C66  1  0.56780000  0.74780000  0.35822000  1.0 0.3713957091
C  C67  1  0.56490000  0.82510000  0.35438000  1.0 0.3713957091
C  C68  1  0.53430000  0.78110000  0.31452000  1.0 0.3813582445
C  C69  1  0.57720000  0.87150000  0.36790000  1.0 0.060168154
C  C70  1  0.58470000  0.87680000  0.39788000  1.0 -0.1404654942
C  C71  1  0.59830000  0.91960000  0.40931000  1.0 0.0706287544
C  C72  1  0.59890000  0.95430000  0.36490000  1.0 0.060168154
C  C73  1  0.58120000  0.91270000  0.35130000  1.0 -0.1494175003
C  C74  1  0.50600000  0.77660000  0.28391000  1.0 0.0395232886
C  C75  1  0.47350000  0.81540000  0.26825000  1.0 -0.1335346719
C  C76  1  0.44470000  0.80880000  0.23966000  1.0 0.0706287544
C  C77  1  0.47230000  0.73100000  0.24202000  1.0 0.0908330584
C  C78  1  0.50300000  0.73330000  0.27087000  1.0 -0.1404654942
C  C79  1  0.07940000  0.56960000  0.22750000  1.0 0.0182984188
C  C80  1  0.98270000  0.55840000  0.22680000  1.0 -0.1335346719
C  C81  1  0.93590000  0.55320000  0.20040000  1.0 -0.0691786138
C  C82  1  0.98600000  0.55920000  0.17460000  1.0 -0.0691786138
C  C83  1  0.08300000  0.57040000  0.17530000  1.0 -0.0972782737
C  C84  1  0.12940000  0.57560000  0.20170000  1.0 -0.1494175003
C  C85  1  0.98090000  0.43900000  0.02890000  1.0 0.0706287544
C  C86  1  0.92690000  0.42960000  0.00475000  1.0 -0.1404654942
C  C87  1  0.96920000  0.40720000  0.98069000  1.0 0.0395232886
C  C88  1  0.06320000  0.39760000  0.98260000  1.0 -0.1335346719
C  C89  1  0.11720000  0.40960000  0.00781000  1.0 0.0908330584
C  C90  1  0.91520000  0.39670000  0.95408000  1.0 0.3713957091
C  C91  1  0.77490000  0.39800000  0.92872000  1.0 0.3813582445
C  C92  1  0.90890000  0.36580000  0.90947000  1.0 0.3713957091
C  C93  1  0.67510000  0.41320000  0.92588000  1.0 0.0487344591
C  C94  1  0.63050000  0.44050000  0.94810000  1.0 -0.1494175003
C  C95  1  0.53950000  0.45520000  0.94380000  1.0 0.0908330584
C  C96  1  0.53100000  0.42220000  0.89920000  1.0 0.0768384096
C  C97  1  0.62240000  0.40470000  0.90150000  1.0 -0.1494175003
C  C98  1  0.95940000  0.34350000  0.88476000  1.0 0.0487344591
C  C99  1  0.90840000  0.32220000  0.86241000  1.0 -0.1494175003
C  C100  1  0.96240000  0.29890000  0.84098000  1.0 0.0990320981
C  C101  1  0.10300000  0.32160000  0.86160000  1.0 0.0768384096
C  C102  1  0.05660000  0.34390000  0.88365000  1.0 -0.1404654942
C  C103  1  0.88160000  0.16550000  0.58127000  1.0 0.0768384096
C  C104  1  0.89620000  0.20590000  0.59539000  1.0 -0.170209613
C  C105  1  0.92020000  0.20400000  0.62474000  1.0 0.060168154
C  C106  1  0.92980000  0.16020000  0.63698000  1.0 -0.1494175003
C  C107  1  0.91330000  0.12150000  0.62070000  1.0 0.0706287544
C  C108  1  0.93220000  0.24780000  0.64178000  1.0 0.3713957091
C  C109  1  0.93510000  0.32510000  0.64562000  1.0 0.3713957091
C  C110  1  0.96570000  0.28110000  0.68548000  1.0 0.3813582445
C  C111  1  0.92280000  0.37150000  0.63210000  1.0 0.060168154
C  C112  1  0.91530000  0.37680000  0.60212000  1.0 -0.1404654942
C  C113  1  0.90170000  0.41960000  0.59069000  1.0 0.0706287544
C  C114  1  0.90110000  0.45430000  0.63510000  1.0 0.060168154
C  C115  1  0.91880000  0.41270000  0.64870000  1.0 -0.1494175003
C  C116  1  0.99400000  0.27660000  0.71609000  1.0 0.0395232886
C  C117  1  0.02650000  0.31540000  0.73175000  1.0 -0.1335346719
C  C118  1  0.05530000  0.30880000  0.76034000  1.0 0.0706287544
C  C119  1  0.02770000  0.23100000  0.75798000  1.0 0.0908330584
C  C120  1  0.99700000  0.23330000  0.72913000  1.0 -0.1404654942
C  C121  1  0.42060000  0.06960000  0.77250000  1.0 0.0182984188
C  C122  1  0.51730000  0.05840000  0.77320000  1.0 -0.1335346719
C  C123  1  0.56410000  0.05320000  0.79960000  1.0 -0.0691786138
C  C124  1  0.51400000  0.05920000  0.82540000  1.0 -0.0691786138
C  C125  1  0.41700000  0.07040000  0.82470000  1.0 -0.0972782737
C  C126  1  0.37060000  0.07560000  0.79830000  1.0 -0.1494175003
C  C127  1  0.01910000  0.06100000  0.52890000  1.0 0.0706287544
C  C128  1  0.07310000  0.07040000  0.50475000  1.0 -0.1404654942
C  C129  1  0.03080000  0.09280000  0.48069000  1.0 0.0395232886
C  C130  1  0.93680000  0.10240000  0.48260000  1.0 -0.1335346719
C  C131  1  0.88280000  0.09040000  0.50781000  1.0 0.0908330584
C  C132  1  0.08480000  0.10330000  0.45408000  1.0 0.3713957091
C  C133  1  0.22510000  0.10200000  0.42872000  1.0 0.3813582445
C  C134  1  0.09110000  0.13420000  0.40947000  1.0 0.3713957091
C  C135  1  0.32490000  0.08680000  0.42588000  1.0 0.0487344591
C  C136  1  0.36950000  0.05950000  0.44810000  1.0 -0.1494175003
C  C137  1  0.46050000  0.04480000  0.44380000  1.0 0.0908330584
C  C138  1  0.46900000  0.07780000  0.39920000  1.0 0.0768384096
C  C139  1  0.37760000  0.09530000  0.40150000  1.0 -0.1494175003
C  C140  1  0.04060000  0.15650000  0.38476000  1.0 0.0487344591
C  C141  1  0.09160000  0.17780000  0.36241000  1.0 -0.1494175003
C  C142  1  0.03760000  0.20110000  0.34098000  1.0 0.0990320981
C  C143  1  0.89700000  0.17840000  0.36160000  1.0 0.0768384096
C  C144  1  0.94340000  0.15610000  0.38365000  1.0 -0.1404654942
C  C145  1  0.11840000  0.33450000  0.08127000  1.0 0.0768384096
C  C146  1  0.10380000  0.29410000  0.09539000  1.0 -0.170209613
C  C147  1  0.07980000  0.29600000  0.12474000  1.0 0.060168154
C  C148  1  0.07020000  0.33980000  0.13698000  1.0 -0.1494175003
C  C149  1  0.08670000  0.37850000  0.12070000  1.0 0.0706287544
C  C150  1  0.06780000  0.25220000  0.14178000  1.0 0.3713957091
C  C151  1  0.06490000  0.17490000  0.14562000  1.0 0.3713957091
C  C152  1  0.03430000  0.21890000  0.18548000  1.0 0.3813582445
C  C153  1  0.07720000  0.12850000  0.13210000  1.0 0.060168154
C  C154  1  0.08470000  0.12320000  0.10212000  1.0 -0.1404654942
C  C155  1  0.09830000  0.08040000  0.09069000  1.0 0.0706287544
C  C156  1  0.09890000  0.04570000  0.13510000  1.0 0.060168154
C  C157  1  0.08120000  0.08730000  0.14870000  1.0 -0.1494175003
C  C158  1  0.00600000  0.22340000  0.21609000  1.0 0.0395232886
C  C159  1  0.97350000  0.18460000  0.23175000  1.0 -0.1335346719
C  C160  1  0.94470000  0.19120000  0.26034000  1.0 0.0706287544
C  C161  1  0.97230000  0.26900000  0.25798000  1.0 0.0908330584
C  C162  1  0.00300000  0.26670000  0.22913000  1.0 -0.1404654942
C  C163  1  0.57940000  0.43040000  0.27250000  1.0 0.0182984188
C  C164  1  0.48270000  0.44160000  0.27320000  1.0 -0.1335346719
C  C165  1  0.43590000  0.44680000  0.29960000  1.0 -0.0691786138
C  C166  1  0.48600000  0.44080000  0.32540000  1.0 -0.0691786138
C  C167  1  0.58300000  0.42960000  0.32470000  1.0 -0.0972782737
C  C168  1  0.62940000  0.42440000  0.29830000  1.0 -0.1494175003
C  C169  1  0.51910000  0.43900000  0.52890000  1.0 0.0706287544
C  C170  1  0.57310000  0.42960000  0.50475000  1.0 -0.1404654942
C  C171  1  0.53080000  0.40720000  0.48069000  1.0 0.0395232886
C  C172  1  0.43680000  0.39760000  0.48260000  1.0 -0.1335346719
C  C173  1  0.38280000  0.40960000  0.50781000  1.0 0.0908330584
C  C174  1  0.58480000  0.39670000  0.45408000  1.0 0.3713957091
C  C175  1  0.72510000  0.39800000  0.42872000  1.0 0.3813582445
C  C176  1  0.59110000  0.36580000  0.40947000  1.0 0.3713957091
C  C177  1  0.82490000  0.41320000  0.42588000  1.0 0.0487344591
C  C178  1  0.86950000  0.44050000  0.44810000  1.0 -0.1494175003
C  C179  1  0.96050000  0.45520000  0.44380000  1.0 0.0908330584
C  C180  1  0.96900000  0.42220000  0.39920000  1.0 0.0768384096
C  C181  1  0.87760000  0.40470000  0.40150000  1.0 -0.1494175003
C  C182  1  0.54060000  0.34350000  0.38476000  1.0 0.0487344591
C  C183  1  0.59160000  0.32220000  0.36241000  1.0 -0.1494175003
C  C184  1  0.53760000  0.29890000  0.34098000  1.0 0.0990320981
C  C185  1  0.39700000  0.32160000  0.36160000  1.0 0.0768384096
C  C186  1  0.44340000  0.34390000  0.38365000  1.0 -0.1404654942
C  C187  1  0.61840000  0.16550000  0.08127000  1.0 0.0768384096
C  C188  1  0.60380000  0.20590000  0.09539000  1.0 -0.170209613
C  C189  1  0.57980000  0.20400000  0.12474000  1.0 0.060168154
C  C190  1  0.57020000  0.16020000  0.13698000  1.0 -0.1494175003
C  C191  1  0.58670000  0.12150000  0.12070000  1.0 0.0706287544
C  C192  1  0.56780000  0.24780000  0.14178000  1.0 0.3713957091
C  C193  1  0.56490000  0.32510000  0.14562000  1.0 0.3713957091
C  C194  1  0.53430000  0.28110000  0.18548000  1.0 0.3813582445
C  C195  1  0.57720000  0.37150000  0.13210000  1.0 0.060168154
C  C196  1  0.58470000  0.37680000  0.10212000  1.0 -0.1404654942
C  C197  1  0.59830000  0.41960000  0.09069000  1.0 0.0706287544
C  C198  1  0.59890000  0.45430000  0.13510000  1.0 0.060168154
C  C199  1  0.58120000  0.41270000  0.14870000  1.0 -0.1494175003
C  C200  1  0.50600000  0.27660000  0.21609000  1.0 0.0395232886
C  C201  1  0.47350000  0.31540000  0.23175000  1.0 -0.1335346719
C  C202  1  0.44470000  0.30880000  0.26034000  1.0 0.0706287544
C  C203  1  0.47230000  0.23100000  0.25798000  1.0 0.0908330584
C  C204  1  0.50300000  0.23330000  0.22913000  1.0 -0.1404654942
C  C205  1  0.07940000  0.06960000  0.27250000  1.0 0.0182984188
C  C206  1  0.98270000  0.05840000  0.27320000  1.0 -0.1335346719
C  C207  1  0.93590000  0.05320000  0.29960000  1.0 -0.0691786138
C  C208  1  0.98600000  0.05920000  0.32540000  1.0 -0.0691786138
C  C209  1  0.08300000  0.07040000  0.32470000  1.0 -0.0972782737
C  C210  1  0.12940000  0.07560000  0.29830000  1.0 -0.1494175003
C  C211  1  0.48090000  0.06100000  0.02890000  1.0 0.0706287544
C  C212  1  0.42690000  0.07040000  0.00475000  1.0 -0.1404654942
C  C213  1  0.46920000  0.09280000  0.98069000  1.0 0.0395232886
C  C214  1  0.56320000  0.10240000  0.98260000  1.0 -0.1335346719
C  C215  1  0.61720000  0.09040000  0.00781000  1.0 0.0908330584
C  C216  1  0.41520000  0.10330000  0.95408000  1.0 0.3713957091
C  C217  1  0.27490000  0.10200000  0.92872000  1.0 0.3813582445
C  C218  1  0.40890000  0.13420000  0.90947000  1.0 0.3713957091
C  C219  1  0.17510000  0.08680000  0.92588000  1.0 0.0487344591
C  C220  1  0.13050000  0.05950000  0.94810000  1.0 -0.1494175003
C  C221  1  0.03950000  0.04480000  0.94380000  1.0 0.0908330584
C  C222  1  0.03100000  0.07780000  0.89920000  1.0 0.0768384096
C  C223  1  0.12240000  0.09530000  0.90150000  1.0 -0.1494175003
C  C224  1  0.45940000  0.15650000  0.88476000  1.0 0.0487344591
C  C225  1  0.40840000  0.17780000  0.86241000  1.0 -0.1494175003
C  C226  1  0.46240000  0.20110000  0.84098000  1.0 0.0990320981
C  C227  1  0.60300000  0.17840000  0.86160000  1.0 0.0768384096
C  C228  1  0.55660000  0.15610000  0.88365000  1.0 -0.1404654942
C  C229  1  0.38160000  0.33450000  0.58127000  1.0 0.0768384096
C  C230  1  0.39620000  0.29410000  0.59539000  1.0 -0.170209613
C  C231  1  0.42020000  0.29600000  0.62474000  1.0 0.060168154
C  C232  1  0.42980000  0.33980000  0.63698000  1.0 -0.1494175003
C  C233  1  0.41330000  0.37850000  0.62070000  1.0 0.0706287544
C  C234  1  0.43220000  0.25220000  0.64178000  1.0 0.3713957091
C  C235  1  0.43510000  0.17490000  0.64562000  1.0 0.3713957091
C  C236  1  0.46570000  0.21890000  0.68548000  1.0 0.3813582445
C  C237  1  0.42280000  0.12850000  0.63210000  1.0 0.060168154
C  C238  1  0.41530000  0.12320000  0.60212000  1.0 -0.1404654942
C  C239  1  0.40170000  0.08040000  0.59069000  1.0 0.0706287544
C  C240  1  0.40110000  0.04570000  0.63510000  1.0 0.060168154
C  C241  1  0.41880000  0.08730000  0.64870000  1.0 -0.1494175003
C  C242  1  0.49400000  0.22340000  0.71609000  1.0 0.0395232886
C  C243  1  0.52650000  0.18460000  0.73175000  1.0 -0.1335346719
C  C244  1  0.55530000  0.19120000  0.76034000  1.0 0.0706287544
C  C245  1  0.52770000  0.26900000  0.75798000  1.0 0.0908330584
C  C246  1  0.49700000  0.26670000  0.72913000  1.0 -0.1404654942
C  C247  1  0.92060000  0.43040000  0.77250000  1.0 0.0182984188
C  C248  1  0.01730000  0.44160000  0.77320000  1.0 -0.1335346719
C  C249  1  0.06410000  0.44680000  0.79960000  1.0 -0.0691786138
C  C250  1  0.01400000  0.44080000  0.82540000  1.0 -0.0691786138
C  C251  1  0.91700000  0.42960000  0.82470000  1.0 -0.0972782737
C  C252  1  0.87060000  0.42440000  0.79830000  1.0 -0.1494175003
C  C253  1  0.01910000  0.56100000  0.97110000  1.0 0.0706287544
C  C254  1  0.07310000  0.57040000  0.99525000  1.0 -0.1404654942
C  C255  1  0.03080000  0.59280000  0.01931000  1.0 0.0395232886
C  C256  1  0.93680000  0.60240000  0.01740000  1.0 -0.1335346719
C  C257  1  0.88280000  0.59040000  0.99219000  1.0 0.0908330584
C  C258  1  0.08480000  0.60330000  0.04592000  1.0 0.3713957091
C  C259  1  0.22510000  0.60200000  0.07128000  1.0 0.3813582445
C  C260  1  0.09110000  0.63420000  0.09053000  1.0 0.3713957091
C  C261  1  0.32490000  0.58680000  0.07412000  1.0 0.0487344591
C  C262  1  0.36950000  0.55950000  0.05190000  1.0 -0.1494175003
C  C263  1  0.46050000  0.54480000  0.05620000  1.0 0.0908330584
C  C264  1  0.46900000  0.57780000  0.10080000  1.0 0.0768384096
C  C265  1  0.37760000  0.59530000  0.09850000  1.0 -0.1494175003
C  C266  1  0.04060000  0.65650000  0.11524000  1.0 0.0487344591
C  C267  1  0.09160000  0.67780000  0.13759000  1.0 -0.1494175003
C  C268  1  0.03760000  0.70110000  0.15902000  1.0 0.0990320981
C  C269  1  0.89700000  0.67840000  0.13840000  1.0 0.0768384096
C  C270  1  0.94340000  0.65610000  0.11635000  1.0 -0.1404654942
C  C271  1  0.11840000  0.83450000  0.41873000  1.0 0.0768384096
C  C272  1  0.10380000  0.79410000  0.40461000  1.0 -0.170209613
C  C273  1  0.07980000  0.79600000  0.37526000  1.0 0.060168154
C  C274  1  0.07020000  0.83980000  0.36302000  1.0 -0.1494175003
C  C275  1  0.08670000  0.87850000  0.37930000  1.0 0.0706287544
C  C276  1  0.06780000  0.75220000  0.35822000  1.0 0.3713957091
C  C277  1  0.06490000  0.67490000  0.35438000  1.0 0.3713957091
C  C278  1  0.03430000  0.71890000  0.31452000  1.0 0.3813582445
C  C279  1  0.07720000  0.62850000  0.36790000  1.0 0.060168154
C  C280  1  0.08470000  0.62320000  0.39788000  1.0 -0.1404654942
C  C281  1  0.09830000  0.58040000  0.40931000  1.0 0.0706287544
C  C282  1  0.09890000  0.54570000  0.36490000  1.0 0.060168154
C  C283  1  0.08120000  0.58730000  0.35130000  1.0 -0.1494175003
C  C284  1  0.00600000  0.72340000  0.28391000  1.0 0.0395232886
C  C285  1  0.97350000  0.68460000  0.26825000  1.0 -0.1335346719
C  C286  1  0.94470000  0.69120000  0.23966000  1.0 0.0706287544
C  C287  1  0.97230000  0.76900000  0.24202000  1.0 0.0908330584
C  C288  1  0.00300000  0.76670000  0.27087000  1.0 -0.1404654942
C  C289  1  0.57940000  0.93040000  0.22750000  1.0 0.0182984188
C  C290  1  0.48270000  0.94160000  0.22680000  1.0 -0.1404654942
C  C291  1  0.43590000  0.94680000  0.20040000  1.0 -0.0691786138
C  C292  1  0.48600000  0.94080000  0.17460000  1.0 -0.0691786138
C  C293  1  0.58300000  0.92960000  0.17530000  1.0 -0.0972782737
C  C294  1  0.62940000  0.92440000  0.20170000  1.0 -0.1494175003
C  C295  1  0.98090000  0.93900000  0.47110000  1.0 0.0706287544
C  C296  1  0.92690000  0.92960000  0.49525000  1.0 -0.1404654942
C  C297  1  0.96920000  0.90720000  0.51931000  1.0 0.0395232886
C  C298  1  0.06320000  0.89760000  0.51740000  1.0 -0.1335346719
C  C299  1  0.11720000  0.90960000  0.49219000  1.0 0.0908330584
C  C300  1  0.91520000  0.89670000  0.54592000  1.0 0.3713957091
C  C301  1  0.77490000  0.89800000  0.57128000  1.0 0.3813582445
C  C302  1  0.90890000  0.86580000  0.59053000  1.0 0.3713957091
C  C303  1  0.67510000  0.91320000  0.57412000  1.0 0.0487344591
C  C304  1  0.63050000  0.94050000  0.55190000  1.0 -0.1494175003
C  C305  1  0.53950000  0.95520000  0.55620000  1.0 0.0908330584
C  C306  1  0.53100000  0.92220000  0.60080000  1.0 0.0768384096
C  C307  1  0.62240000  0.90470000  0.59850000  1.0 -0.1494175003
C  C308  1  0.95940000  0.84350000  0.61524000  1.0 0.0487344591
C  C309  1  0.90840000  0.82220000  0.63759000  1.0 -0.1494175003
C  C310  1  0.96240000  0.79890000  0.65902000  1.0 0.0990320981
C  C311  1  0.10300000  0.82160000  0.63840000  1.0 0.0768384096
C  C312  1  0.05660000  0.84390000  0.61635000  1.0 -0.1404654942
C  C313  1  0.88160000  0.66550000  0.91873000  1.0 0.0768384096
C  C314  1  0.89620000  0.70590000  0.90461000  1.0 -0.170209613
C  C315  1  0.92020000  0.70400000  0.87526000  1.0 0.060168154
C  C316  1  0.92980000  0.66020000  0.86302000  1.0 -0.1494175003
C  C317  1  0.91330000  0.62150000  0.87930000  1.0 0.0706287544
C  C318  1  0.93220000  0.74780000  0.85822000  1.0 0.3713957091
C  C319  1  0.93510000  0.82510000  0.85438000  1.0 0.3713957091
C  C320  1  0.96570000  0.78110000  0.81452000  1.0 0.3813582445
C  C321  1  0.92280000  0.87150000  0.86790000  1.0 0.060168154
C  C322  1  0.91530000  0.87680000  0.89788000  1.0 -0.1404654942
C  C323  1  0.90170000  0.91960000  0.90931000  1.0 0.0706287544
C  C324  1  0.90110000  0.95430000  0.86490000  1.0 0.060168154
C  C325  1  0.91880000  0.91270000  0.85130000  1.0 -0.1494175003
C  C326  1  0.99400000  0.77660000  0.78391000  1.0 0.0395232886
C  C327  1  0.02650000  0.81540000  0.76825000  1.0 -0.1335346719
C  C328  1  0.05530000  0.80880000  0.73966000  1.0 0.0706287544
C  C329  1  0.02770000  0.73100000  0.74202000  1.0 0.0908330584
C  C330  1  0.99700000  0.73330000  0.77087000  1.0 -0.1404654942
C  C331  1  0.42060000  0.56960000  0.72750000  1.0 0.0182984188
C  C332  1  0.51730000  0.55840000  0.72680000  1.0 -0.1335346719
C  C333  1  0.56410000  0.55320000  0.70040000  1.0 -0.0691786138
C  C334  1  0.51400000  0.55920000  0.67460000  1.0 -0.0691786138
C  C335  1  0.41700000  0.57040000  0.67530000  1.0 -0.0972782737
C  C336  1  0.37060000  0.57560000  0.70170000  1.0 -0.1494175003
I  I1  1  0.56690000  0.49631000  0.40316000  1.0 -0.287554699
I  I2  1  0.82543000  0.57193000  0.44127000  1.0 -0.4092465699
I  I3  1  0.76820000  0.56814000  0.62553000  1.0 -0.4458111329
I  I4  1  0.78595000  0.50464000  0.53703000  1.0 -0.4703264413
I  I5  1  0.79568000  0.70125000  0.69529000  1.0 -0.4635766996
I  I6  1  0.63026000  0.82569000  0.67259000  1.0 -0.3274499727
I  I7  1  0.83500000  0.54280000  0.36950000  1.0 0.0487344591
I  I8  1  0.87100000  0.55540000  0.30930000  1.0 -0.0192980598
I  I9  1  0.74030000  0.87750000  0.71860000  1.0 0.1095067272
I  I10  1  0.84650000  0.92390000  0.76210000  1.0 0.2968912231
I  I11  1  0.73470000  0.49900000  0.36230000  1.0 0.0487344591
I  I12  1  0.89000000  0.50120000  0.32400000  1.0 -0.0125915268
I  I13  1  0.43310000  0.00369000  0.90316000  1.0 -0.287554699
I  I14  1  0.17457000  0.92807000  0.94127000  1.0 -0.4092465699
I  I15  1  0.23180000  0.93186000  0.12553000  1.0 -0.4458111329
I  I16  1  0.21405000  0.99536000  0.03703000  1.0 -0.4703264413
I  I17  1  0.20432000  0.79875000  0.19529000  1.0 -0.4635766996
I  I18  1  0.36974000  0.67431000  0.17259000  1.0 -0.3274499727
I  I19  1  0.16500000  0.95720000  0.86950000  1.0 0.0487344591
I  I20  1  0.12900000  0.94460000  0.80930000  1.0 -0.0192980598
I  I21  1  0.25970000  0.62250000  0.21860000  1.0 0.1095067272
I  I22  1  0.15350000  0.57610000  0.26210000  1.0 0.2968912231
I  I23  1  0.26530000  0.00100000  0.86230000  1.0 0.0487344591
I  I24  1  0.11000000  0.99880000  0.82400000  1.0 -0.0125915268
I  I25  1  0.06690000  0.50369000  0.09684000  1.0 -0.287554699
I  I26  1  0.32543000  0.42807000  0.05873000  1.0 -0.4092465699
I  I27  1  0.26820000  0.43186000  0.87447000  1.0 -0.4458111329
I  I28  1  0.28595000  0.49536000  0.96297000  1.0 -0.4703264413
I  I29  1  0.29568000  0.29875000  0.80471000  1.0 -0.4635766996
I  I30  1  0.13026000  0.17431000  0.82741000  1.0 -0.3274499727
I  I31  1  0.33500000  0.45720000  0.13050000  1.0 0.0487344591
I  I32  1  0.37100000  0.44460000  0.19070000  1.0 -0.0192980598
I  I33  1  0.24030000  0.12250000  0.78140000  1.0 0.1095067272
I  I34  1  0.34650000  0.07610000  0.73790000  1.0 0.2949817228
I  I35  1  0.23470000  0.50100000  0.13770000  1.0 0.0487344591
I  I36  1  0.39000000  0.49880000  0.17600000  1.0 -0.0125915268
I  I37  1  0.93310000  0.99631000  0.59684000  1.0 -0.287554699
I  I38  1  0.67457000  0.07193000  0.55873000  1.0 -0.4092465699
I  I39  1  0.73180000  0.06814000  0.37447000  1.0 -0.4458111329
I  I40  1  0.71405000  0.00464000  0.46297000  1.0 -0.4703264413
I  I41  1  0.70432000  0.20125000  0.30471000  1.0 -0.4635766996
I  I42  1  0.86974000  0.32569000  0.32741000  1.0 -0.3274499727
I  I43  1  0.66500000  0.04280000  0.63050000  1.0 0.0487344591
I  I44  1  0.62900000  0.05540000  0.69070000  1.0 -0.0192980598
I  I45  1  0.75970000  0.37750000  0.28140000  1.0 0.1095067272
I  I46  1  0.65350000  0.42390000  0.23790000  1.0 0.2949817228
I  I47  1  0.76530000  0.99900000  0.63770000  1.0 0.0487344591
I  I48  1  0.61000000  0.00120000  0.67600000  1.0 -0.0125915268
I  I49  1  0.43310000  0.50369000  0.59684000  1.0 -0.287554699
I  I50  1  0.17457000  0.42807000  0.55873000  1.0 -0.4092465699
I  I51  1  0.23180000  0.43186000  0.37447000  1.0 -0.4458111329
I  I52  1  0.21405000  0.49536000  0.46297000  1.0 -0.4703264413
I  I53  1  0.20432000  0.29875000  0.30471000  1.0 -0.4635766996
I  I54  1  0.36974000  0.17431000  0.32741000  1.0 -0.3274499727
I  I55  1  0.16500000  0.45720000  0.63050000  1.0 0.0487344591
I  I56  1  0.12900000  0.44460000  0.69070000  1.0 -0.0192980598
I  I57  1  0.25970000  0.12250000  0.28140000  1.0 0.1095067272
I  I58  1  0.15350000  0.07610000  0.23790000  1.0 0.2968912231
I  I59  1  0.26530000  0.50100000  0.63770000  1.0 0.0487344591
I  I60  1  0.11000000  0.49880000  0.67600000  1.0 -0.0125915268
I  I61  1  0.56690000  0.99631000  0.09684000  1.0 -0.287554699
I  I62  1  0.82543000  0.07193000  0.05873000  1.0 -0.4092465699
I  I63  1  0.76820000  0.06814000  0.87447000  1.0 -0.4458111329
I  I64  1  0.78595000  0.00464000  0.96297000  1.0 -0.4703264413
I  I65  1  0.79568000  0.20125000  0.80471000  1.0 -0.4635766996
I  I66  1  0.63026000  0.32569000  0.82741000  1.0 -0.3274499727
I  I67  1  0.83500000  0.04280000  0.13050000  1.0 0.0487344591
I  I68  1  0.87100000  0.05540000  0.19070000  1.0 -0.0192980598
I  I69  1  0.74030000  0.37750000  0.78140000  1.0 0.1095067272
I  I70  1  0.84650000  0.42390000  0.73790000  1.0 0.2949817228
I  I71  1  0.73470000  0.99900000  0.13770000  1.0 0.0487344591
I  I72  1  0.89000000  0.00120000  0.17600000  1.0 -0.0125915268
I  I73  1  0.93310000  0.49631000  0.90316000  1.0 -0.287554699
I  I74  1  0.67457000  0.57193000  0.94127000  1.0 -0.4092465699
I  I75  1  0.73180000  0.56814000  0.12553000  1.0 -0.4458111329
I  I76  1  0.71405000  0.50464000  0.03703000  1.0 -0.4703264413
I  I77  1  0.70432000  0.70125000  0.19529000  1.0 -0.4635766996
I  I78  1  0.86974000  0.82569000  0.17259000  1.0 -0.3274499727
I  I79  1  0.66500000  0.54280000  0.86950000  1.0 0.0487344591
I  I80  1  0.62900000  0.55540000  0.80930000  1.0 -0.0192980598
I  I81  1  0.75970000  0.87750000  0.21860000  1.0 0.1095067272
I  I82  1  0.65350000  0.92390000  0.26210000  1.0 0.2968912231
I  I83  1  0.76530000  0.49900000  0.86230000  1.0 0.0487344591
I  I84  1  0.61000000  0.50120000  0.82400000  1.0 -0.0125915268
I  I85  1  0.06690000  0.00369000  0.40316000  1.0 -0.287554699
I  I86  1  0.32543000  0.92807000  0.44127000  1.0 -0.4092465699
I  I87  1  0.26820000  0.93186000  0.62553000  1.0 -0.4458111329
I  I88  1  0.28595000  0.99536000  0.53703000  1.0 -0.4703264413
I  I89  1  0.29568000  0.79875000  0.69529000  1.0 -0.4635766996
I  I90  1  0.13026000  0.67431000  0.67259000  1.0 -0.3274499727
I  I91  1  0.33500000  0.95720000  0.36950000  1.0 0.0487344591
I  I92  1  0.37100000  0.94460000  0.30930000  1.0 -0.0192980598
I  I93  1  0.24030000  0.62250000  0.71860000  1.0 0.1095067272
I  I94  1  0.34650000  0.57610000  0.76210000  1.0 0.2968912231
I  I95  1  0.23470000  0.00100000  0.36230000  1.0 0.0487344591
I  I96  1  0.39000000  0.99880000  0.32400000  1.0 -0.0125915268
N  N1  1  0.57490000  0.57260000  0.46881000  1.0 -0.187677944
N  N2  1  0.32300000  0.59120000  0.54628000  1.0 -0.3996131969
N  N3  1  0.31530000  0.62360000  0.59351000  1.0 -0.387688023
N  N4  1  0.45940000  0.62380000  0.56700000  1.0 -0.3790711602
N  N5  1  0.99180000  0.55210000  0.58017000  1.0 -0.1815527724
N  N6  1  0.55680000  0.70110000  0.65945000  1.0 -0.187677944
N  N7  1  0.38930000  0.87660000  0.90700000  1.0 -0.170209613
N  N8  1  0.42250000  0.71220000  0.87089000  1.0 -0.387688023
N  N9  1  0.45670000  0.67570000  0.82585000  1.0 -0.4092465699
N  N10  1  0.45560000  0.75810000  0.82957000  1.0 -0.4180526947
N  N11  1  0.39290000  0.54100000  0.89362000  1.0 -0.170209613
N  N12  1  0.55870000  0.73330000  0.72737000  1.0 -0.1815527724
N  N13  1  0.87620000  0.92560000  0.75260000  1.0 -0.0329472615
N  N14  1  0.42510000  0.92740000  0.96881000  1.0 -0.187677944
N  N15  1  0.67700000  0.90880000  0.04628000  1.0 -0.3996131969
N  N16  1  0.68470000  0.87640000  0.09351000  1.0 -0.387688023
N  N17  1  0.54060000  0.87620000  0.06700000  1.0 -0.3790711602
N  N18  1  0.00820000  0.94790000  0.08017000  1.0 -0.1815527724
N  N19  1  0.44320000  0.79890000  0.15945000  1.0 -0.187677944
N  N20  1  0.61070000  0.62340000  0.40700000  1.0 -0.170209613
N  N21  1  0.57750000  0.78780000  0.37089000  1.0 -0.387688023
N  N22  1  0.54330000  0.82430000  0.32585000  1.0 -0.4092465699
N  N23  1  0.54440000  0.74190000  0.32957000  1.0 -0.4180526947
N  N24  1  0.60710000  0.95900000  0.39362000  1.0 -0.170209613
N  N25  1  0.44130000  0.76670000  0.22737000  1.0 -0.1815527724
N  N26  1  0.12380000  0.57440000  0.25260000  1.0 -0.0329472615
N  N27  1  0.07490000  0.42740000  0.03119000  1.0 -0.187677944
N  N28  1  0.82300000  0.40880000  0.95372000  1.0 -0.3996131969
N  N29  1  0.81530000  0.37640000  0.90649000  1.0 -0.387688023
N  N30  1  0.95940000  0.37620000  0.93300000  1.0 -0.3790711602
N  N31  1  0.49180000  0.44790000  0.91983000  1.0 -0.1815527724
N  N32  1  0.05680000  0.29890000  0.84055000  1.0 -0.187677944
N  N33  1  0.88930000  0.12340000  0.59300000  1.0 -0.170209613
N  N34  1  0.92250000  0.28780000  0.62911000  1.0 -0.387688023
N  N35  1  0.95670000  0.32430000  0.67415000  1.0 -0.3996131969
N  N36  1  0.95560000  0.24190000  0.67043000  1.0 -0.4180526947
N  N37  1  0.89290000  0.45900000  0.60638000  1.0 -0.170209613
N  N38  1  0.05870000  0.26670000  0.77263000  1.0 -0.1815527724
N  N39  1  0.37620000  0.07440000  0.74740000  1.0 -0.0360319493
N  N40  1  0.92510000  0.07260000  0.53119000  1.0 -0.187677944
N  N41  1  0.17700000  0.09120000  0.45372000  1.0 -0.3996131969
N  N42  1  0.18470000  0.12360000  0.40649000  1.0 -0.387688023
N  N43  1  0.04060000  0.12380000  0.43300000  1.0 -0.3790711602
N  N44  1  0.50820000  0.05210000  0.41983000  1.0 -0.1815527724
N  N45  1  0.94320000  0.20110000  0.34055000  1.0 -0.187677944
N  N46  1  0.11070000  0.37660000  0.09300000  1.0 -0.170209613
N  N47  1  0.07750000  0.21220000  0.12911000  1.0 -0.387688023
N  N48  1  0.04330000  0.17570000  0.17415000  1.0 -0.4092465699
N  N49  1  0.04440000  0.25810000  0.17043000  1.0 -0.4180526947
N  N50  1  0.10710000  0.04100000  0.10638000  1.0 -0.170209613
N  N51  1  0.94130000  0.23330000  0.27263000  1.0 -0.1815527724
N  N52  1  0.62380000  0.42560000  0.24740000  1.0 -0.0329472615
N  N53  1  0.42510000  0.42740000  0.53119000  1.0 -0.187677944
N  N54  1  0.67700000  0.40880000  0.45372000  1.0 -0.3996131969
N  N55  1  0.68470000  0.37640000  0.40649000  1.0 -0.387688023
N  N56  1  0.54060000  0.37620000  0.43300000  1.0 -0.3790711602
N  N57  1  0.00820000  0.44790000  0.41983000  1.0 -0.1815527724
N  N58  1  0.44320000  0.29890000  0.34055000  1.0 -0.187677944
N  N59  1  0.61070000  0.12340000  0.09300000  1.0 -0.170209613
N  N60  1  0.57750000  0.28780000  0.12911000  1.0 -0.387688023
N  N61  1  0.54330000  0.32430000  0.17415000  1.0 -0.4092465699
N  N62  1  0.54440000  0.24190000  0.17043000  1.0 -0.4180526947
N  N63  1  0.60710000  0.45900000  0.10638000  1.0 -0.170209613
N  N64  1  0.44130000  0.26670000  0.27263000  1.0 -0.1815527724
N  N65  1  0.12380000  0.07440000  0.24740000  1.0 -0.0329472615
N  N66  1  0.57490000  0.07260000  0.03119000  1.0 -0.187677944
N  N67  1  0.32300000  0.09120000  0.95372000  1.0 -0.3996131969
N  N68  1  0.31530000  0.12360000  0.90649000  1.0 -0.387688023
N  N69  1  0.45940000  0.12380000  0.93300000  1.0 -0.3790711602
N  N70  1  0.99180000  0.05210000  0.91983000  1.0 -0.1815527724
N  N71  1  0.55680000  0.20110000  0.84055000  1.0 -0.187677944
N  N72  1  0.38930000  0.37660000  0.59300000  1.0 -0.170209613
N  N73  1  0.42250000  0.21220000  0.62911000  1.0 -0.387688023
N  N74  1  0.45670000  0.17570000  0.67415000  1.0 -0.4092465699
N  N75  1  0.45560000  0.25810000  0.67043000  1.0 -0.4180526947
N  N76  1  0.39290000  0.04100000  0.60638000  1.0 -0.170209613
N  N77  1  0.55870000  0.23330000  0.77263000  1.0 -0.1815527724
N  N78  1  0.87620000  0.42560000  0.74740000  1.0 -0.0329472615
N  N79  1  0.92510000  0.57260000  0.96881000  1.0 -0.187677944
N  N80  1  0.17700000  0.59120000  0.04628000  1.0 -0.3996131969
N  N81  1  0.18470000  0.62360000  0.09351000  1.0 -0.387688023
N  N82  1  0.04060000  0.62380000  0.06700000  1.0 -0.3790711602
N  N83  1  0.50820000  0.55210000  0.08017000  1.0 -0.1815527724
N  N84  1  0.94320000  0.70110000  0.15945000  1.0 -0.187677944
N  N85  1  0.11070000  0.87660000  0.40700000  1.0 -0.170209613
N  N86  1  0.07750000  0.71220000  0.37089000  1.0 -0.387688023
N  N87  1  0.04330000  0.67570000  0.32585000  1.0 -0.4092465699
N  N88  1  0.04440000  0.75810000  0.32957000  1.0 -0.4180526947
N  N89  1  0.10710000  0.54100000  0.39362000  1.0 -0.170209613
N  N90  1  0.94130000  0.73330000  0.22737000  1.0 -0.1815527724
N  N91  1  0.62380000  0.92560000  0.25260000  1.0 -0.0329472615
N  N92  1  0.07490000  0.92740000  0.46881000  1.0 -0.187677944
N  N93  1  0.82300000  0.90880000  0.54628000  1.0 -0.3996131969
N  N94  1  0.81530000  0.87640000  0.59351000  1.0 -0.387688023
N  N95  1  0.95940000  0.87620000  0.56700000  1.0 -0.3790711602
N  N96  1  0.49180000  0.94790000  0.58017000  1.0 -0.1815527724
N  N97  1  0.05680000  0.79890000  0.65945000  1.0 -0.187677944
N  N98  1  0.88930000  0.62340000  0.90700000  1.0 -0.170209613
N  N99  1  0.92250000  0.78780000  0.87089000  1.0 -0.387688023
N  N100  1  0.95670000  0.82430000  0.82585000  1.0 -0.3996131969
N  N101  1  0.95560000  0.74190000  0.82957000  1.0 -0.4180526947
N  N102  1  0.89290000  0.95900000  0.89362000  1.0 -0.170209613
N  N103  1  0.05870000  0.76670000  0.72737000  1.0 -0.1815527724
N  N104  1  0.37620000  0.57440000  0.75260000  1.0 -0.0360319493
O  O1  1  0.78630000  0.91520000  0.75270000  1.0 -0.2535493774
O  O2  1  0.92460000  0.93140000  0.77600000  1.0 -0.287554699
O  O3  1  0.21370000  0.58480000  0.25270000  1.0 -0.2535493774
O  O4  1  0.07540000  0.56860000  0.27600000  1.0 -0.287554699
O  O5  1  0.28630000  0.08480000  0.74730000  1.0 -0.2535493774
O  O6  1  0.42460000  0.06860000  0.72400000  1.0 -0.287554699
O  O7  1  0.71370000  0.41520000  0.24730000  1.0 -0.2535493774
O  O8  1  0.57540000  0.43140000  0.22400000  1.0 -0.287554699
O  O9  1  0.21370000  0.08480000  0.24730000  1.0 -0.2535493774
O  O10  1  0.07540000  0.06860000  0.22400000  1.0 -0.287554699
O  O11  1  0.78630000  0.41520000  0.74730000  1.0 -0.2535493774
O  O12  1  0.92460000  0.43140000  0.72400000  1.0 -0.287554699
O  O13  1  0.71370000  0.91520000  0.25270000  1.0 -0.2535493774
O  O14  1  0.57540000  0.93140000  0.27600000  1.0 -0.287554699
O  O15  1  0.28630000  0.58480000  0.75270000  1.0 -0.2535493774
O  O16  1  0.42460000  0.56860000  0.77600000  1.0 -0.287554699
