# DDEC6 charges by PACMAN v1.1 (https://github.com/mtap-research/PACMAN-charge/)
data_KEVXER_FSR_pacman
_symmetry_space_group_name_H-M   'P 1'
_cell_length_a   13.95010000
_cell_length_b   28.55700000
_cell_length_c   45.91900000
_cell_angle_alpha   90.00000000
_cell_angle_beta   90.00000000
_cell_angle_gamma   90.00000000
_symmetry_Int_Tables_number   1
_chemical_formula_structural   Zn3H29C42I12N13O2
_chemical_formula_sum   'Zn24 H232 C336 I96 N104 O16'
_cell_volume   18292.89004874
_cell_formula_units_Z   8
loop_
 _symmetry_equiv_pos_site_id
 _symmetry_equiv_pos_as_xyz
  1  'x, y, z'
loop_
 _atom_site_type_symbol
 _atom_site_label
 _atom_site_symmetry_multiplicity
 _atom_site_fract_x
 _atom_site_fract_y
 _atom_site_fract_z
 _atom_site_occupancy
 _atom_site_charge
Zn  Zn1  1  0.64575000  0.56293000  0.43028000  1.0 0.4229627599
Zn  Zn2  1  0.85786000  0.52172000  0.58675000  1.0 0.458905374
Zn  Zn3  1  0.63299000  0.74072000  0.68854000  1.0 0.4400015373
Zn  Zn4  1  0.35425000  0.93707000  0.93028000  1.0 0.4229627599
Zn  Zn5  1  0.14214000  0.97828000  0.08675000  1.0 0.458905374
Zn  Zn6  1  0.36701000  0.75928000  0.18854000  1.0 0.4400015373
Zn  Zn7  1  0.14575000  0.43707000  0.06972000  1.0 0.4229627599
Zn  Zn8  1  0.35786000  0.47828000  0.91325000  1.0 0.458905374
Zn  Zn9  1  0.13299000  0.25928000  0.81146000  1.0 0.4400015373
Zn  Zn10  1  0.85425000  0.06293000  0.56972000  1.0 0.4229627599
Zn  Zn11  1  0.64214000  0.02172000  0.41325000  1.0 0.458905374
Zn  Zn12  1  0.86701000  0.24072000  0.31146000  1.0 0.4400015373
Zn  Zn13  1  0.35425000  0.43707000  0.56972000  1.0 0.4229627599
Zn  Zn14  1  0.14214000  0.47828000  0.41325000  1.0 0.458905374
Zn  Zn15  1  0.36701000  0.25928000  0.31146000  1.0 0.4400015373
Zn  Zn16  1  0.64575000  0.06293000  0.06972000  1.0 0.4229627599
Zn  Zn17  1  0.85786000  0.02172000  0.91325000  1.0 0.458905374
Zn  Zn18  1  0.63299000  0.24072000  0.81146000  1.0 0.4400015373
Zn  Zn19  1  0.85425000  0.56293000  0.93028000  1.0 0.4229627599
Zn  Zn20  1  0.64214000  0.52172000  0.08675000  1.0 0.458905374
Zn  Zn21  1  0.86701000  0.74072000  0.18854000  1.0 0.4400015373
Zn  Zn22  1  0.14575000  0.93707000  0.43028000  1.0 0.4229627599
Zn  Zn23  1  0.35786000  0.97828000  0.58675000  1.0 0.458905374
Zn  Zn24  1  0.13299000  0.75928000  0.68854000  1.0 0.4400015373
H  H1  1  0.44950000  0.54580000  0.45560000  1.0 0.1115238233
H  H2  1  0.36190000  0.56310000  0.49570000  1.0 0.1382702984
H  H3  1  0.59400000  0.61580000  0.53390000  1.0 0.1382702984
H  H4  1  0.68480000  0.59280000  0.49230000  1.0 0.1001983835
H  H5  1  0.16300000  0.55250000  0.53450000  1.0 0.1382702984
H  H6  1  0.00920000  0.52880000  0.54050000  1.0 0.1151879554
H  H7  1  0.99570000  0.58480000  0.61770000  1.0 0.1115238233
H  H8  1  0.14780000  0.61200000  0.61410000  1.0 0.1287936301
H  H9  1  0.34190000  0.67740000  0.63780000  1.0 0.1382702984
H  H10  1  0.42740000  0.71830000  0.67320000  1.0 0.1115238233
H  H11  1  0.66900000  0.67560000  0.64020000  1.0 0.1115238233
H  H12  1  0.59220000  0.64090000  0.60220000  1.0 0.1382702984
H  H13  1  0.36410000  0.83260000  0.93800000  1.0 0.1115238233
H  H14  1  0.39080000  0.76600000  0.91450000  1.0 0.1382702984
H  H15  1  0.44480000  0.84320000  0.84340000  1.0 0.1382702984
H  H16  1  0.42140000  0.90660000  0.87120000  1.0 0.1001983835
H  H17  1  0.41970000  0.64840000  0.90990000  1.0 0.1287936301
H  H18  1  0.40100000  0.57760000  0.92930000  1.0 0.1115238233
H  H19  1  0.39420000  0.51920000  0.85370000  1.0 0.1001983835
H  H20  1  0.42850000  0.58850000  0.83160000  1.0 0.1287936301
H  H21  1  0.52860000  0.65510000  0.77660000  1.0 0.1287936301
H  H22  1  0.57240000  0.66510000  0.72910000  1.0 0.1115238233
H  H23  1  0.52370000  0.79850000  0.73320000  1.0 0.1001983835
H  H24  1  0.47970000  0.79230000  0.78150000  1.0 0.1287936301
H  H25  1  0.06680000  0.94780000  0.74000000  1.0 0.1151879554
H  H26  1  0.12830000  0.95490000  0.69330000  1.0 0.1287936301
H  H27  1  0.02990000  0.94270000  0.65330000  1.0 0.1001983835
H  H28  1  0.86990000  0.92340000  0.66000000  1.0 0.1001983835
H  H29  1  0.80830000  0.91620000  0.70670000  1.0 0.0894205024
H  H30  1  0.55050000  0.95420000  0.95560000  1.0 0.1115238233
H  H31  1  0.63810000  0.93690000  0.99570000  1.0 0.1382702984
H  H32  1  0.40600000  0.88420000  0.03390000  1.0 0.1382702984
H  H33  1  0.31520000  0.90720000  0.99230000  1.0 0.1001983835
H  H34  1  0.83700000  0.94750000  0.03450000  1.0 0.1382702984
H  H35  1  0.99080000  0.97120000  0.04050000  1.0 0.1151879554
H  H36  1  0.00430000  0.91520000  0.11770000  1.0 0.1115238233
H  H37  1  0.85220000  0.88800000  0.11410000  1.0 0.1287936301
H  H38  1  0.65810000  0.82260000  0.13780000  1.0 0.1382702984
H  H39  1  0.57260000  0.78170000  0.17320000  1.0 0.1115238233
H  H40  1  0.33100000  0.82440000  0.14020000  1.0 0.1115238233
H  H41  1  0.40780000  0.85910000  0.10220000  1.0 0.1382702984
H  H42  1  0.63590000  0.66740000  0.43800000  1.0 0.1115238233
H  H43  1  0.60920000  0.73400000  0.41450000  1.0 0.1382702984
H  H44  1  0.55520000  0.65680000  0.34340000  1.0 0.1382702984
H  H45  1  0.57860000  0.59340000  0.37120000  1.0 0.1001983835
H  H46  1  0.58030000  0.85160000  0.40990000  1.0 0.1287936301
H  H47  1  0.59900000  0.92240000  0.42930000  1.0 0.1115238233
H  H48  1  0.60580000  0.98080000  0.35370000  1.0 0.1001983835
H  H49  1  0.57150000  0.91150000  0.33160000  1.0 0.1287936301
H  H50  1  0.47140000  0.84490000  0.27660000  1.0 0.1287936301
H  H51  1  0.42760000  0.83490000  0.22910000  1.0 0.1115238233
H  H52  1  0.47630000  0.70150000  0.23320000  1.0 0.1001983835
H  H53  1  0.52030000  0.70770000  0.28150000  1.0 0.1287936301
H  H54  1  0.93320000  0.55220000  0.24000000  1.0 0.1151879554
H  H55  1  0.87170000  0.54510000  0.19330000  1.0 0.1287936301
H  H56  1  0.97010000  0.55730000  0.15330000  1.0 0.1001983835
H  H57  1  0.13010000  0.57660000  0.16000000  1.0 0.1001983835
H  H58  1  0.19170000  0.58380000  0.20670000  1.0 0.0894205024
H  H59  1  0.94950000  0.45420000  0.04440000  1.0 0.1115238233
H  H60  1  0.86190000  0.43690000  0.00430000  1.0 0.1382702984
H  H61  1  0.09400000  0.38420000  0.96610000  1.0 0.1382702984
H  H62  1  0.18480000  0.40720000  0.00770000  1.0 0.1001983835
H  H63  1  0.66300000  0.44750000  0.96550000  1.0 0.1382702984
H  H64  1  0.50920000  0.47120000  0.95950000  1.0 0.1115238233
H  H65  1  0.49570000  0.41520000  0.88230000  1.0 0.1115238233
H  H66  1  0.64780000  0.38800000  0.88590000  1.0 0.1287936301
H  H67  1  0.84190000  0.32260000  0.86220000  1.0 0.1382702984
H  H68  1  0.92740000  0.28170000  0.82680000  1.0 0.1115238233
H  H69  1  0.16900000  0.32440000  0.85980000  1.0 0.1115238233
H  H70  1  0.09220000  0.35910000  0.89780000  1.0 0.1382702984
H  H71  1  0.86410000  0.16740000  0.56200000  1.0 0.1115238233
H  H72  1  0.89080000  0.23400000  0.58550000  1.0 0.1382702984
H  H73  1  0.94480000  0.15680000  0.65660000  1.0 0.1382702984
H  H74  1  0.92140000  0.09340000  0.62880000  1.0 0.1001983835
H  H75  1  0.91970000  0.35160000  0.59010000  1.0 0.1287936301
H  H76  1  0.90100000  0.42240000  0.57070000  1.0 0.1115238233
H  H77  1  0.89420000  0.48080000  0.64630000  1.0 0.1001983835
H  H78  1  0.92850000  0.41150000  0.66840000  1.0 0.1287936301
H  H79  1  0.02860000  0.34490000  0.72340000  1.0 0.1287936301
H  H80  1  0.07240000  0.33490000  0.77090000  1.0 0.1115238233
H  H81  1  0.02370000  0.20150000  0.76680000  1.0 0.1001983835
H  H82  1  0.97970000  0.20770000  0.71850000  1.0 0.1287936301
H  H83  1  0.56680000  0.05220000  0.76000000  1.0 0.1151879554
H  H84  1  0.62830000  0.04510000  0.80670000  1.0 0.1287936301
H  H85  1  0.52990000  0.05730000  0.84670000  1.0 0.1001983835
H  H86  1  0.36990000  0.07660000  0.84000000  1.0 0.1001983835
H  H87  1  0.30830000  0.08380000  0.79330000  1.0 0.0894205024
H  H88  1  0.05050000  0.04580000  0.54440000  1.0 0.1115238233
H  H89  1  0.13810000  0.06310000  0.50430000  1.0 0.1382702984
H  H90  1  0.90600000  0.11580000  0.46610000  1.0 0.1382702984
H  H91  1  0.81520000  0.09280000  0.50770000  1.0 0.1001983835
H  H92  1  0.33700000  0.05250000  0.46550000  1.0 0.1382702984
H  H93  1  0.49080000  0.02880000  0.45950000  1.0 0.1151879554
H  H94  1  0.50430000  0.08480000  0.38230000  1.0 0.1115238233
H  H95  1  0.35220000  0.11200000  0.38590000  1.0 0.1287936301
H  H96  1  0.15810000  0.17740000  0.36220000  1.0 0.1382702984
H  H97  1  0.07260000  0.21830000  0.32680000  1.0 0.1115238233
H  H98  1  0.83100000  0.17560000  0.35980000  1.0 0.1115238233
H  H99  1  0.90780000  0.14090000  0.39780000  1.0 0.1382702984
H  H100  1  0.13590000  0.33260000  0.06200000  1.0 0.1115238233
H  H101  1  0.10920000  0.26600000  0.08550000  1.0 0.1382702984
H  H102  1  0.05520000  0.34320000  0.15660000  1.0 0.1382702984
H  H103  1  0.07860000  0.40660000  0.12880000  1.0 0.1001983835
H  H104  1  0.08030000  0.14840000  0.09010000  1.0 0.1287936301
H  H105  1  0.09900000  0.07760000  0.07070000  1.0 0.1115238233
H  H106  1  0.10580000  0.01920000  0.14630000  1.0 0.1001983835
H  H107  1  0.07150000  0.08850000  0.16840000  1.0 0.1287936301
H  H108  1  0.97140000  0.15510000  0.22340000  1.0 0.1287936301
H  H109  1  0.92760000  0.16510000  0.27090000  1.0 0.1115238233
H  H110  1  0.97630000  0.29850000  0.26680000  1.0 0.1001983835
H  H111  1  0.02030000  0.29230000  0.21850000  1.0 0.1287936301
H  H112  1  0.43320000  0.44780000  0.26000000  1.0 0.1151879554
H  H113  1  0.37170000  0.45490000  0.30670000  1.0 0.1287936301
H  H114  1  0.47010000  0.44270000  0.34670000  1.0 0.1001983835
H  H115  1  0.63010000  0.42340000  0.34000000  1.0 0.1001983835
H  H116  1  0.69170000  0.41620000  0.29330000  1.0 0.0894205024
H  H117  1  0.55050000  0.45420000  0.54440000  1.0 0.1115238233
H  H118  1  0.63810000  0.43690000  0.50430000  1.0 0.1382702984
H  H119  1  0.40600000  0.38420000  0.46610000  1.0 0.1382702984
H  H120  1  0.31520000  0.40720000  0.50770000  1.0 0.1001983835
H  H121  1  0.83700000  0.44750000  0.46550000  1.0 0.1382702984
H  H122  1  0.99080000  0.47120000  0.45950000  1.0 0.1151879554
H  H123  1  0.00430000  0.41520000  0.38230000  1.0 0.1115238233
H  H124  1  0.85220000  0.38800000  0.38590000  1.0 0.1287936301
H  H125  1  0.65810000  0.32260000  0.36220000  1.0 0.1382702984
H  H126  1  0.57260000  0.28170000  0.32680000  1.0 0.1115238233
H  H127  1  0.33100000  0.32440000  0.35980000  1.0 0.1115238233
H  H128  1  0.40780000  0.35910000  0.39780000  1.0 0.1382702984
H  H129  1  0.63590000  0.16740000  0.06200000  1.0 0.1115238233
H  H130  1  0.60920000  0.23400000  0.08550000  1.0 0.1382702984
H  H131  1  0.55520000  0.15680000  0.15660000  1.0 0.1382702984
H  H132  1  0.57860000  0.09340000  0.12880000  1.0 0.1001983835
H  H133  1  0.58030000  0.35160000  0.09010000  1.0 0.1287936301
H  H134  1  0.59900000  0.42240000  0.07070000  1.0 0.1115238233
H  H135  1  0.60580000  0.48080000  0.14630000  1.0 0.1001983835
H  H136  1  0.57150000  0.41150000  0.16840000  1.0 0.1287936301
H  H137  1  0.47140000  0.34490000  0.22340000  1.0 0.1287936301
H  H138  1  0.42760000  0.33490000  0.27090000  1.0 0.1115238233
H  H139  1  0.47630000  0.20150000  0.26680000  1.0 0.1001983835
H  H140  1  0.52030000  0.20770000  0.21850000  1.0 0.1287936301
H  H141  1  0.93320000  0.05220000  0.26000000  1.0 0.1151879554
H  H142  1  0.87170000  0.04510000  0.30670000  1.0 0.1287936301
H  H143  1  0.97010000  0.05730000  0.34670000  1.0 0.1001983835
H  H144  1  0.13010000  0.07660000  0.34000000  1.0 0.1001983835
H  H145  1  0.19170000  0.08380000  0.29330000  1.0 0.0894205024
H  H146  1  0.44950000  0.04580000  0.04440000  1.0 0.1115238233
H  H147  1  0.36190000  0.06310000  0.00430000  1.0 0.1382702984
H  H148  1  0.59400000  0.11580000  0.96610000  1.0 0.1382702984
H  H149  1  0.68480000  0.09280000  0.00770000  1.0 0.1001983835
H  H150  1  0.16300000  0.05250000  0.96550000  1.0 0.1382702984
H  H151  1  0.00920000  0.02880000  0.95950000  1.0 0.1115238233
H  H152  1  0.99570000  0.08480000  0.88230000  1.0 0.1115238233
H  H153  1  0.14780000  0.11200000  0.88590000  1.0 0.1287936301
H  H154  1  0.34190000  0.17740000  0.86220000  1.0 0.1382702984
H  H155  1  0.42740000  0.21830000  0.82680000  1.0 0.1115238233
H  H156  1  0.66900000  0.17560000  0.85980000  1.0 0.1115238233
H  H157  1  0.59220000  0.14090000  0.89780000  1.0 0.1382702984
H  H158  1  0.36410000  0.33260000  0.56200000  1.0 0.1115238233
H  H159  1  0.39080000  0.26600000  0.58550000  1.0 0.1382702984
H  H160  1  0.44480000  0.34320000  0.65660000  1.0 0.1382702984
H  H161  1  0.42140000  0.40660000  0.62880000  1.0 0.1001983835
H  H162  1  0.41970000  0.14840000  0.59010000  1.0 0.1287936301
H  H163  1  0.40100000  0.07760000  0.57070000  1.0 0.1115238233
H  H164  1  0.39420000  0.01920000  0.64630000  1.0 0.1001983835
H  H165  1  0.42850000  0.08850000  0.66840000  1.0 0.1287936301
H  H166  1  0.52860000  0.15510000  0.72340000  1.0 0.1287936301
H  H167  1  0.57240000  0.16510000  0.77090000  1.0 0.1115238233
H  H168  1  0.52370000  0.29850000  0.76680000  1.0 0.1001983835
H  H169  1  0.47970000  0.29230000  0.71850000  1.0 0.1287936301
H  H170  1  0.06680000  0.44780000  0.76000000  1.0 0.1151879554
H  H171  1  0.12830000  0.45490000  0.80670000  1.0 0.1287936301
H  H172  1  0.02990000  0.44270000  0.84670000  1.0 0.1001983835
H  H173  1  0.86990000  0.42340000  0.84000000  1.0 0.1001983835
H  H174  1  0.80830000  0.41620000  0.79330000  1.0 0.0894205024
H  H175  1  0.05050000  0.54580000  0.95560000  1.0 0.1115238233
H  H176  1  0.13810000  0.56310000  0.99570000  1.0 0.1382702984
H  H177  1  0.90600000  0.61580000  0.03390000  1.0 0.1382702984
H  H178  1  0.81520000  0.59280000  0.99230000  1.0 0.1001983835
H  H179  1  0.33700000  0.55250000  0.03450000  1.0 0.1382702984
H  H180  1  0.49080000  0.52880000  0.04050000  1.0 0.1151879554
H  H181  1  0.50430000  0.58480000  0.11770000  1.0 0.1115238233
H  H182  1  0.35220000  0.61200000  0.11410000  1.0 0.1287936301
H  H183  1  0.15810000  0.67740000  0.13780000  1.0 0.1382702984
H  H184  1  0.07260000  0.71830000  0.17320000  1.0 0.1115238233
H  H185  1  0.83100000  0.67560000  0.14020000  1.0 0.1115238233
H  H186  1  0.90780000  0.64090000  0.10220000  1.0 0.1382702984
H  H187  1  0.13590000  0.83260000  0.43800000  1.0 0.1115238233
H  H188  1  0.10920000  0.76600000  0.41450000  1.0 0.1382702984
H  H189  1  0.05520000  0.84320000  0.34340000  1.0 0.1382702984
H  H190  1  0.07860000  0.90660000  0.37120000  1.0 0.1001983835
H  H191  1  0.08030000  0.64840000  0.40990000  1.0 0.1287936301
H  H192  1  0.09900000  0.57760000  0.42930000  1.0 0.1115238233
H  H193  1  0.10580000  0.51920000  0.35370000  1.0 0.1001983835
H  H194  1  0.07150000  0.58850000  0.33160000  1.0 0.1287936301
H  H195  1  0.97140000  0.65510000  0.27660000  1.0 0.1287936301
H  H196  1  0.92760000  0.66510000  0.22910000  1.0 0.1115238233
H  H197  1  0.97630000  0.79850000  0.23320000  1.0 0.1001983835
H  H198  1  0.02030000  0.79230000  0.28150000  1.0 0.1287936301
H  H199  1  0.43320000  0.94780000  0.24000000  1.0 0.1151879554
H  H200  1  0.37170000  0.95490000  0.19330000  1.0 0.1287936301
H  H201  1  0.47010000  0.94270000  0.15330000  1.0 0.1001983835
H  H202  1  0.63010000  0.92340000  0.16000000  1.0 0.1001983835
H  H203  1  0.69170000  0.91620000  0.20670000  1.0 0.0894205024
H  H204  1  0.94950000  0.95420000  0.45560000  1.0 0.1115238233
H  H205  1  0.86190000  0.93690000  0.49570000  1.0 0.1382702984
H  H206  1  0.09400000  0.88420000  0.53390000  1.0 0.1382702984
H  H207  1  0.18480000  0.90720000  0.49230000  1.0 0.1001983835
H  H208  1  0.66300000  0.94750000  0.53450000  1.0 0.1382702984
H  H209  1  0.50920000  0.97120000  0.54050000  1.0 0.1151879554
H  H210  1  0.49570000  0.91520000  0.61770000  1.0 0.1115238233
H  H211  1  0.64780000  0.88800000  0.61410000  1.0 0.1287936301
H  H212  1  0.84190000  0.82260000  0.63780000  1.0 0.1382702984
H  H213  1  0.92740000  0.78170000  0.67320000  1.0 0.1115238233
H  H214  1  0.16900000  0.82440000  0.64020000  1.0 0.1115238233
H  H215  1  0.09220000  0.85910000  0.60220000  1.0 0.1382702984
H  H216  1  0.86410000  0.66740000  0.93800000  1.0 0.1115238233
H  H217  1  0.89080000  0.73400000  0.91450000  1.0 0.1382702984
H  H218  1  0.94480000  0.65680000  0.84340000  1.0 0.1382702984
H  H219  1  0.92140000  0.59340000  0.87120000  1.0 0.1001983835
H  H220  1  0.91970000  0.85160000  0.90990000  1.0 0.1287936301
H  H221  1  0.90100000  0.92240000  0.92930000  1.0 0.1115238233
H  H222  1  0.89420000  0.98080000  0.85370000  1.0 0.1001983835
H  H223  1  0.92850000  0.91150000  0.83160000  1.0 0.1287936301
H  H224  1  0.02860000  0.84490000  0.77660000  1.0 0.1287936301
H  H225  1  0.07240000  0.83490000  0.72910000  1.0 0.1115238233
H  H226  1  0.02370000  0.70150000  0.73320000  1.0 0.1001983835
H  H227  1  0.97970000  0.70770000  0.78150000  1.0 0.1287936301
H  H228  1  0.56680000  0.55220000  0.74000000  1.0 0.1151879554
H  H229  1  0.62830000  0.54510000  0.69330000  1.0 0.1287936301
H  H230  1  0.52990000  0.55730000  0.65330000  1.0 0.1001983835
H  H231  1  0.36990000  0.57660000  0.66000000  1.0 0.1001983835
H  H232  1  0.30830000  0.58380000  0.70670000  1.0 0.0894205024
C  C1  1  0.47920000  0.56090000  0.47110000  1.0 0.0600120798
C  C2  1  0.42660000  0.57090000  0.49510000  1.0 -0.1304411212
C  C3  1  0.46860000  0.59290000  0.51910000  1.0 0.0383174617
C  C4  1  0.56370000  0.60170000  0.51810000  1.0 -0.1304411212
C  C5  1  0.61850000  0.58900000  0.49230000  1.0 0.1001983835
C  C6  1  0.41540000  0.60270000  0.54600000  1.0 0.3584434913
C  C7  1  0.27500000  0.60210000  0.57100000  1.0 0.3584434913
C  C8  1  0.40910000  0.63300000  0.59110000  1.0 0.3584434913
C  C9  1  0.17700000  0.58600000  0.57440000  1.0 0.0383174617
C  C10  1  0.13060000  0.55940000  0.55160000  1.0 -0.1394757542
C  C11  1  0.03960000  0.54460000  0.55560000  1.0 0.0802160129
C  C12  1  0.03130000  0.57780000  0.60110000  1.0 0.06890604
C  C13  1  0.12210000  0.59450000  0.59890000  1.0 -0.1511446505
C  C14  1  0.45820000  0.65560000  0.61550000  1.0 0.0515193518
C  C15  1  0.40860000  0.67800000  0.63740000  1.0 -0.1394757542
C  C16  1  0.46000000  0.70140000  0.65910000  1.0 0.0802160129
C  C17  1  0.60250000  0.67710000  0.63930000  1.0 0.0894205024
C  C18  1  0.55690000  0.65560000  0.61670000  1.0 -0.1511446505
C  C19  1  0.38220000  0.83440000  0.91860000  1.0 0.0600120798
C  C20  1  0.39660000  0.79450000  0.90480000  1.0 -0.1654617737
C  C21  1  0.42080000  0.79640000  0.87558000  1.0 0.06890604
C  C22  1  0.42920000  0.84000000  0.86300000  1.0 -0.1511446505
C  C23  1  0.41440000  0.87730000  0.87980000  1.0 0.0515193518
C  C24  1  0.43300000  0.75140000  0.85814000  1.0 0.3584434913
C  C25  1  0.43560000  0.67500000  0.85460000  1.0 0.3584434913
C  C26  1  0.46660000  0.71920000  0.81481000  1.0 0.3673411359
C  C27  1  0.42320000  0.62800000  0.86790000  1.0 0.0600120798
C  C28  1  0.41580000  0.62240000  0.89780000  1.0 -0.1394757542
C  C29  1  0.40300000  0.58030000  0.90910000  1.0 0.0600120798
C  C30  1  0.40100000  0.54580000  0.86510000  1.0 0.0600120798
C  C31  1  0.41910000  0.58750000  0.85160000  1.0 -0.1590303878
C  C32  1  0.49480000  0.72280000  0.78433000  1.0 0.0383174617
C  C33  1  0.52650000  0.68470000  0.76830000  1.0 -0.1394757542
C  C34  1  0.55500000  0.69120000  0.73990000  1.0 0.06890604
C  C35  1  0.52680000  0.76940000  0.74230000  1.0 0.0802160129
C  C36  1  0.49740000  0.76560000  0.77120000  1.0 -0.1304411212
C  C37  1  0.93140000  0.93130000  0.72800000  1.0 0.0303659423
C  C38  1  0.02730000  0.94290000  0.72400000  1.0 -0.1175236447
C  C39  1  0.06400000  0.94710000  0.69600000  1.0 -0.0775459732
C  C40  1  0.00500000  0.93980000  0.67200000  1.0 -0.0619812
C  C41  1  0.90900000  0.92820000  0.67600000  1.0 -0.0997167562
C  C42  1  0.87200000  0.92400000  0.70400000  1.0 -0.1511446505
C  C43  1  0.52080000  0.93910000  0.97110000  1.0 0.0600120798
C  C44  1  0.57340000  0.92910000  0.99510000  1.0 -0.1304411212
C  C45  1  0.53140000  0.90710000  0.01910000  1.0 0.0383174617
C  C46  1  0.43630000  0.89830000  0.01810000  1.0 -0.1304411212
C  C47  1  0.38150000  0.91100000  0.99230000  1.0 0.1001983835
C  C48  1  0.58460000  0.89730000  0.04600000  1.0 0.3584434913
C  C49  1  0.72500000  0.89790000  0.07100000  1.0 0.3584434913
C  C50  1  0.59090000  0.86700000  0.09110000  1.0 0.3584434913
C  C51  1  0.82300000  0.91400000  0.07440000  1.0 0.0383174617
C  C52  1  0.86940000  0.94060000  0.05160000  1.0 -0.1394757542
C  C53  1  0.96040000  0.95540000  0.05560000  1.0 0.0802160129
C  C54  1  0.96870000  0.92220000  0.10110000  1.0 0.06890604
C  C55  1  0.87790000  0.90550000  0.09890000  1.0 -0.1511446505
C  C56  1  0.54180000  0.84440000  0.11550000  1.0 0.0515193518
C  C57  1  0.59140000  0.82200000  0.13740000  1.0 -0.1394757542
C  C58  1  0.54000000  0.79860000  0.15910000  1.0 0.0802160129
C  C59  1  0.39750000  0.82290000  0.13930000  1.0 0.0894205024
C  C60  1  0.44310000  0.84440000  0.11670000  1.0 -0.1511446505
C  C61  1  0.61780000  0.66560000  0.41860000  1.0 0.0600120798
C  C62  1  0.60340000  0.70550000  0.40480000  1.0 -0.1654617737
C  C63  1  0.57920000  0.70360000  0.37558000  1.0 0.0600120798
C  C64  1  0.57080000  0.66000000  0.36300000  1.0 -0.1511446505
C  C65  1  0.58560000  0.62270000  0.37980000  1.0 0.0515193518
C  C66  1  0.56700000  0.74860000  0.35814000  1.0 0.3584434913
C  C67  1  0.56440000  0.82500000  0.35460000  1.0 0.3584434913
C  C68  1  0.53340000  0.78080000  0.31481000  1.0 0.3673411359
C  C69  1  0.57680000  0.87200000  0.36790000  1.0 0.0600120798
C  C70  1  0.58420000  0.87760000  0.39780000  1.0 -0.1394757542
C  C71  1  0.59700000  0.91970000  0.40910000  1.0 0.0600120798
C  C72  1  0.59900000  0.95420000  0.36510000  1.0 0.0600120798
C  C73  1  0.58090000  0.91250000  0.35160000  1.0 -0.1590303878
C  C74  1  0.50520000  0.77720000  0.28433000  1.0 0.0383174617
C  C75  1  0.47350000  0.81530000  0.26830000  1.0 -0.1394757542
C  C76  1  0.44500000  0.80880000  0.23990000  1.0 0.06890604
C  C77  1  0.47320000  0.73060000  0.24230000  1.0 0.0802160129
C  C78  1  0.50260000  0.73440000  0.27120000  1.0 -0.1304411212
C  C79  1  0.06860000  0.56870000  0.22800000  1.0 0.0303659423
C  C80  1  0.97270000  0.55710000  0.22400000  1.0 -0.1175236447
C  C81  1  0.93600000  0.55290000  0.19600000  1.0 -0.0775459732
C  C82  1  0.99500000  0.56020000  0.17200000  1.0 -0.0619812
C  C83  1  0.09100000  0.57180000  0.17600000  1.0 -0.0997167562
C  C84  1  0.12800000  0.57600000  0.20400000  1.0 -0.1511446505
C  C85  1  0.97920000  0.43910000  0.02890000  1.0 0.0600120798
C  C86  1  0.92660000  0.42910000  0.00490000  1.0 -0.1304411212
C  C87  1  0.96860000  0.40710000  0.98090000  1.0 0.0383174617
C  C88  1  0.06370000  0.39830000  0.98190000  1.0 -0.1304411212
C  C89  1  0.11850000  0.41100000  0.00770000  1.0 0.1001983835
C  C90  1  0.91540000  0.39730000  0.95400000  1.0 0.3584434913
C  C91  1  0.77500000  0.39790000  0.92900000  1.0 0.3584434913
C  C92  1  0.90910000  0.36700000  0.90890000  1.0 0.3584434913
C  C93  1  0.67700000  0.41400000  0.92560000  1.0 0.0383174617
C  C94  1  0.63060000  0.44060000  0.94840000  1.0 -0.1394757542
C  C95  1  0.53960000  0.45540000  0.94440000  1.0 0.0802160129
C  C96  1  0.53130000  0.42220000  0.89890000  1.0 0.06890604
C  C97  1  0.62210000  0.40550000  0.90110000  1.0 -0.1511446505
C  C98  1  0.95820000  0.34440000  0.88450000  1.0 0.0515193518
C  C99  1  0.90860000  0.32200000  0.86260000  1.0 -0.1394757542
C  C100  1  0.96000000  0.29860000  0.84090000  1.0 0.0802160129
C  C101  1  0.10250000  0.32290000  0.86070000  1.0 0.0894205024
C  C102  1  0.05690000  0.34440000  0.88330000  1.0 -0.1511446505
C  C103  1  0.88220000  0.16560000  0.58140000  1.0 0.0600120798
C  C104  1  0.89660000  0.20550000  0.59520000  1.0 -0.1654617737
C  C105  1  0.92080000  0.20360000  0.62442000  1.0 0.06890604
C  C106  1  0.92920000  0.16000000  0.63700000  1.0 -0.1511446505
C  C107  1  0.91440000  0.12270000  0.62020000  1.0 0.0515193518
C  C108  1  0.93300000  0.24860000  0.64186000  1.0 0.3584434913
C  C109  1  0.93560000  0.32500000  0.64540000  1.0 0.3584434913
C  C110  1  0.96660000  0.28080000  0.68519000  1.0 0.3673411359
C  C111  1  0.92320000  0.37200000  0.63210000  1.0 0.0600120798
C  C112  1  0.91580000  0.37760000  0.60220000  1.0 -0.1394757542
C  C113  1  0.90300000  0.41970000  0.59090000  1.0 0.0600120798
C  C114  1  0.90100000  0.45420000  0.63490000  1.0 0.0600120798
C  C115  1  0.91910000  0.41250000  0.64840000  1.0 -0.1590303878
C  C116  1  0.99480000  0.27720000  0.71567000  1.0 0.0383174617
C  C117  1  0.02650000  0.31530000  0.73170000  1.0 -0.1394757542
C  C118  1  0.05500000  0.30880000  0.76010000  1.0 0.06890604
C  C119  1  0.02680000  0.23060000  0.75770000  1.0 0.0802160129
C  C120  1  0.99740000  0.23440000  0.72880000  1.0 -0.1304411212
C  C121  1  0.43140000  0.06870000  0.77200000  1.0 0.0303659423
C  C122  1  0.52730000  0.05710000  0.77600000  1.0 -0.1175236447
C  C123  1  0.56400000  0.05290000  0.80400000  1.0 -0.0775459732
C  C124  1  0.50500000  0.06020000  0.82800000  1.0 -0.0619812
C  C125  1  0.40900000  0.07180000  0.82400000  1.0 -0.0997167562
C  C126  1  0.37200000  0.07600000  0.79600000  1.0 -0.1511446505
C  C127  1  0.02080000  0.06090000  0.52890000  1.0 0.0600120798
C  C128  1  0.07340000  0.07090000  0.50490000  1.0 -0.1304411212
C  C129  1  0.03140000  0.09290000  0.48090000  1.0 0.0383174617
C  C130  1  0.93630000  0.10170000  0.48190000  1.0 -0.1304411212
C  C131  1  0.88150000  0.08900000  0.50770000  1.0 0.1001983835
C  C132  1  0.08460000  0.10270000  0.45400000  1.0 0.3584434913
C  C133  1  0.22500000  0.10210000  0.42900000  1.0 0.3584434913
C  C134  1  0.09090000  0.13300000  0.40890000  1.0 0.3584434913
C  C135  1  0.32300000  0.08600000  0.42560000  1.0 0.0383174617
C  C136  1  0.36940000  0.05940000  0.44840000  1.0 -0.1394757542
C  C137  1  0.46040000  0.04460000  0.44440000  1.0 0.0802160129
C  C138  1  0.46870000  0.07780000  0.39890000  1.0 0.06890604
C  C139  1  0.37790000  0.09450000  0.40110000  1.0 -0.1511446505
C  C140  1  0.04180000  0.15560000  0.38450000  1.0 0.0515193518
C  C141  1  0.09140000  0.17800000  0.36260000  1.0 -0.1394757542
C  C142  1  0.04000000  0.20140000  0.34090000  1.0 0.0802160129
C  C143  1  0.89750000  0.17710000  0.36070000  1.0 0.0894205024
C  C144  1  0.94310000  0.15560000  0.38330000  1.0 -0.1511446505
C  C145  1  0.11780000  0.33440000  0.08140000  1.0 0.0600120798
C  C146  1  0.10340000  0.29450000  0.09520000  1.0 -0.1654617737
C  C147  1  0.07920000  0.29640000  0.12442000  1.0 0.0600120798
C  C148  1  0.07080000  0.34000000  0.13700000  1.0 -0.1511446505
C  C149  1  0.08560000  0.37730000  0.12020000  1.0 0.0515193518
C  C150  1  0.06700000  0.25140000  0.14186000  1.0 0.3584434913
C  C151  1  0.06440000  0.17500000  0.14540000  1.0 0.3584434913
C  C152  1  0.03340000  0.21920000  0.18519000  1.0 0.3673411359
C  C153  1  0.07680000  0.12800000  0.13210000  1.0 0.0600120798
C  C154  1  0.08420000  0.12240000  0.10220000  1.0 -0.1394757542
C  C155  1  0.09700000  0.08030000  0.09090000  1.0 0.0600120798
C  C156  1  0.09900000  0.04580000  0.13490000  1.0 0.0600120798
C  C157  1  0.08090000  0.08750000  0.14840000  1.0 -0.1590303878
C  C158  1  0.00520000  0.22280000  0.21567000  1.0 0.0383174617
C  C159  1  0.97350000  0.18470000  0.23170000  1.0 -0.1394757542
C  C160  1  0.94500000  0.19120000  0.26010000  1.0 0.06890604
C  C161  1  0.97320000  0.26940000  0.25770000  1.0 0.0802160129
C  C162  1  0.00260000  0.26560000  0.22880000  1.0 -0.1304411212
C  C163  1  0.56860000  0.43130000  0.27200000  1.0 0.0303659423
C  C164  1  0.47270000  0.44290000  0.27600000  1.0 -0.1175236447
C  C165  1  0.43600000  0.44710000  0.30400000  1.0 -0.0775459732
C  C166  1  0.49500000  0.43980000  0.32800000  1.0 -0.0619812
C  C167  1  0.59100000  0.42820000  0.32400000  1.0 -0.0997167562
C  C168  1  0.62800000  0.42400000  0.29600000  1.0 -0.1511446505
C  C169  1  0.52080000  0.43910000  0.52890000  1.0 0.0600120798
C  C170  1  0.57340000  0.42910000  0.50490000  1.0 -0.1304411212
C  C171  1  0.53140000  0.40710000  0.48090000  1.0 0.0383174617
C  C172  1  0.43630000  0.39830000  0.48190000  1.0 -0.1304411212
C  C173  1  0.38150000  0.41100000  0.50770000  1.0 0.1001983835
C  C174  1  0.58460000  0.39730000  0.45400000  1.0 0.3584434913
C  C175  1  0.72500000  0.39790000  0.42900000  1.0 0.3584434913
C  C176  1  0.59090000  0.36700000  0.40890000  1.0 0.3584434913
C  C177  1  0.82300000  0.41400000  0.42560000  1.0 0.0383174617
C  C178  1  0.86940000  0.44060000  0.44840000  1.0 -0.1394757542
C  C179  1  0.96040000  0.45540000  0.44440000  1.0 0.0802160129
C  C180  1  0.96870000  0.42220000  0.39890000  1.0 0.06890604
C  C181  1  0.87790000  0.40550000  0.40110000  1.0 -0.1511446505
C  C182  1  0.54180000  0.34440000  0.38450000  1.0 0.0515193518
C  C183  1  0.59140000  0.32200000  0.36260000  1.0 -0.1394757542
C  C184  1  0.54000000  0.29860000  0.34090000  1.0 0.0802160129
C  C185  1  0.39750000  0.32290000  0.36070000  1.0 0.0894205024
C  C186  1  0.44310000  0.34440000  0.38330000  1.0 -0.1511446505
C  C187  1  0.61780000  0.16560000  0.08140000  1.0 0.0600120798
C  C188  1  0.60340000  0.20550000  0.09520000  1.0 -0.1654617737
C  C189  1  0.57920000  0.20360000  0.12442000  1.0 0.0600120798
C  C190  1  0.57080000  0.16000000  0.13700000  1.0 -0.1511446505
C  C191  1  0.58560000  0.12270000  0.12020000  1.0 0.0515193518
C  C192  1  0.56700000  0.24860000  0.14186000  1.0 0.3584434913
C  C193  1  0.56440000  0.32500000  0.14540000  1.0 0.3584434913
C  C194  1  0.53340000  0.28080000  0.18519000  1.0 0.3673411359
C  C195  1  0.57680000  0.37200000  0.13210000  1.0 0.0600120798
C  C196  1  0.58420000  0.37760000  0.10220000  1.0 -0.1394757542
C  C197  1  0.59700000  0.41970000  0.09090000  1.0 0.0600120798
C  C198  1  0.59900000  0.45420000  0.13490000  1.0 0.0600120798
C  C199  1  0.58090000  0.41250000  0.14840000  1.0 -0.1590303878
C  C200  1  0.50520000  0.27720000  0.21567000  1.0 0.0383174617
C  C201  1  0.47350000  0.31530000  0.23170000  1.0 -0.1394757542
C  C202  1  0.44500000  0.30880000  0.26010000  1.0 0.06890604
C  C203  1  0.47320000  0.23060000  0.25770000  1.0 0.0802160129
C  C204  1  0.50260000  0.23440000  0.22880000  1.0 -0.1304411212
C  C205  1  0.06860000  0.06870000  0.27200000  1.0 0.0303659423
C  C206  1  0.97270000  0.05710000  0.27600000  1.0 -0.1175236447
C  C207  1  0.93600000  0.05290000  0.30400000  1.0 -0.0775459732
C  C208  1  0.99500000  0.06020000  0.32800000  1.0 -0.0619812
C  C209  1  0.09100000  0.07180000  0.32400000  1.0 -0.0997167562
C  C210  1  0.12800000  0.07600000  0.29600000  1.0 -0.1511446505
C  C211  1  0.47920000  0.06090000  0.02890000  1.0 0.0600120798
C  C212  1  0.42660000  0.07090000  0.00490000  1.0 -0.1304411212
C  C213  1  0.46860000  0.09290000  0.98090000  1.0 0.0383174617
C  C214  1  0.56370000  0.10170000  0.98190000  1.0 -0.1304411212
C  C215  1  0.61850000  0.08900000  0.00770000  1.0 0.1001983835
C  C216  1  0.41540000  0.10270000  0.95400000  1.0 0.3584434913
C  C217  1  0.27500000  0.10210000  0.92900000  1.0 0.3584434913
C  C218  1  0.40910000  0.13300000  0.90890000  1.0 0.3584434913
C  C219  1  0.17700000  0.08600000  0.92560000  1.0 0.0383174617
C  C220  1  0.13060000  0.05940000  0.94840000  1.0 -0.1394757542
C  C221  1  0.03960000  0.04460000  0.94440000  1.0 0.0802160129
C  C222  1  0.03130000  0.07780000  0.89890000  1.0 0.06890604
C  C223  1  0.12210000  0.09450000  0.90110000  1.0 -0.1511446505
C  C224  1  0.45820000  0.15560000  0.88450000  1.0 0.0515193518
C  C225  1  0.40860000  0.17800000  0.86260000  1.0 -0.1394757542
C  C226  1  0.46000000  0.20140000  0.84090000  1.0 0.0802160129
C  C227  1  0.60250000  0.17710000  0.86070000  1.0 0.0894205024
C  C228  1  0.55690000  0.15560000  0.88330000  1.0 -0.1511446505
C  C229  1  0.38220000  0.33440000  0.58140000  1.0 0.0600120798
C  C230  1  0.39660000  0.29450000  0.59520000  1.0 -0.1654617737
C  C231  1  0.42080000  0.29640000  0.62442000  1.0 0.0600120798
C  C232  1  0.42920000  0.34000000  0.63700000  1.0 -0.1511446505
C  C233  1  0.41440000  0.37730000  0.62020000  1.0 0.0515193518
C  C234  1  0.43300000  0.25140000  0.64186000  1.0 0.3584434913
C  C235  1  0.43560000  0.17500000  0.64540000  1.0 0.3584434913
C  C236  1  0.46660000  0.21920000  0.68519000  1.0 0.3673411359
C  C237  1  0.42320000  0.12800000  0.63210000  1.0 0.0600120798
C  C238  1  0.41580000  0.12240000  0.60220000  1.0 -0.1394757542
C  C239  1  0.40300000  0.08030000  0.59090000  1.0 0.0600120798
C  C240  1  0.40100000  0.04580000  0.63490000  1.0 0.0600120798
C  C241  1  0.41910000  0.08750000  0.64840000  1.0 -0.1590303878
C  C242  1  0.49480000  0.22280000  0.71567000  1.0 0.0383174617
C  C243  1  0.52650000  0.18470000  0.73170000  1.0 -0.1394757542
C  C244  1  0.55500000  0.19120000  0.76010000  1.0 0.06890604
C  C245  1  0.52680000  0.26940000  0.75770000  1.0 0.0802160129
C  C246  1  0.49740000  0.26560000  0.72880000  1.0 -0.1304411212
C  C247  1  0.93140000  0.43130000  0.77200000  1.0 0.0303659423
C  C248  1  0.02730000  0.44290000  0.77600000  1.0 -0.1175236447
C  C249  1  0.06400000  0.44710000  0.80400000  1.0 -0.0775459732
C  C250  1  0.00500000  0.43980000  0.82800000  1.0 -0.0619812
C  C251  1  0.90900000  0.42820000  0.82400000  1.0 -0.0997167562
C  C252  1  0.87200000  0.42400000  0.79600000  1.0 -0.1511446505
C  C253  1  0.02080000  0.56090000  0.97110000  1.0 0.0600120798
C  C254  1  0.07340000  0.57090000  0.99510000  1.0 -0.1304411212
C  C255  1  0.03140000  0.59290000  0.01910000  1.0 0.0383174617
C  C256  1  0.93630000  0.60170000  0.01810000  1.0 -0.1304411212
C  C257  1  0.88150000  0.58900000  0.99230000  1.0 0.1001983835
C  C258  1  0.08460000  0.60270000  0.04600000  1.0 0.3584434913
C  C259  1  0.22500000  0.60210000  0.07100000  1.0 0.3584434913
C  C260  1  0.09090000  0.63300000  0.09110000  1.0 0.3584434913
C  C261  1  0.32300000  0.58600000  0.07440000  1.0 0.0383174617
C  C262  1  0.36940000  0.55940000  0.05160000  1.0 -0.1394757542
C  C263  1  0.46040000  0.54460000  0.05560000  1.0 0.0802160129
C  C264  1  0.46870000  0.57780000  0.10110000  1.0 0.06890604
C  C265  1  0.37790000  0.59450000  0.09890000  1.0 -0.1511446505
C  C266  1  0.04180000  0.65560000  0.11550000  1.0 0.0515193518
C  C267  1  0.09140000  0.67800000  0.13740000  1.0 -0.1394757542
C  C268  1  0.04000000  0.70140000  0.15910000  1.0 0.0802160129
C  C269  1  0.89750000  0.67710000  0.13930000  1.0 0.0894205024
C  C270  1  0.94310000  0.65560000  0.11670000  1.0 -0.1511446505
C  C271  1  0.11780000  0.83440000  0.41860000  1.0 0.0600120798
C  C272  1  0.10340000  0.79450000  0.40480000  1.0 -0.1654617737
C  C273  1  0.07920000  0.79640000  0.37558000  1.0 0.0600120798
C  C274  1  0.07080000  0.84000000  0.36300000  1.0 -0.1511446505
C  C275  1  0.08560000  0.87730000  0.37980000  1.0 0.0515193518
C  C276  1  0.06700000  0.75140000  0.35814000  1.0 0.3584434913
C  C277  1  0.06440000  0.67500000  0.35460000  1.0 0.3584434913
C  C278  1  0.03340000  0.71920000  0.31481000  1.0 0.3673411359
C  C279  1  0.07680000  0.62800000  0.36790000  1.0 0.0600120798
C  C280  1  0.08420000  0.62240000  0.39780000  1.0 -0.1394757542
C  C281  1  0.09700000  0.58030000  0.40910000  1.0 0.0600120798
C  C282  1  0.09900000  0.54580000  0.36510000  1.0 0.0600120798
C  C283  1  0.08090000  0.58750000  0.35160000  1.0 -0.1590303878
C  C284  1  0.00520000  0.72280000  0.28433000  1.0 0.0383174617
C  C285  1  0.97350000  0.68470000  0.26830000  1.0 -0.1394757542
C  C286  1  0.94500000  0.69120000  0.23990000  1.0 0.06890604
C  C287  1  0.97320000  0.76940000  0.24230000  1.0 0.0802160129
C  C288  1  0.00260000  0.76560000  0.27120000  1.0 -0.1304411212
C  C289  1  0.56860000  0.93130000  0.22800000  1.0 0.0303659423
C  C290  1  0.47270000  0.94290000  0.22400000  1.0 -0.1175236447
C  C291  1  0.43600000  0.94710000  0.19600000  1.0 -0.0775459732
C  C292  1  0.49500000  0.93980000  0.17200000  1.0 -0.0619812
C  C293  1  0.59100000  0.92820000  0.17600000  1.0 -0.0997167562
C  C294  1  0.62800000  0.92400000  0.20400000  1.0 -0.1511446505
C  C295  1  0.97920000  0.93910000  0.47110000  1.0 0.0600120798
C  C296  1  0.92660000  0.92910000  0.49510000  1.0 -0.1304411212
C  C297  1  0.96860000  0.90710000  0.51910000  1.0 0.0383174617
C  C298  1  0.06370000  0.89830000  0.51810000  1.0 -0.1304411212
C  C299  1  0.11850000  0.91100000  0.49230000  1.0 0.1001983835
C  C300  1  0.91540000  0.89730000  0.54600000  1.0 0.3584434913
C  C301  1  0.77500000  0.89790000  0.57100000  1.0 0.3584434913
C  C302  1  0.90910000  0.86700000  0.59110000  1.0 0.3549320151
C  C303  1  0.67700000  0.91400000  0.57440000  1.0 0.0383174617
C  C304  1  0.63060000  0.94060000  0.55160000  1.0 -0.1394757542
C  C305  1  0.53960000  0.95540000  0.55560000  1.0 0.0802160129
C  C306  1  0.53130000  0.92220000  0.60110000  1.0 0.06890604
C  C307  1  0.62210000  0.90550000  0.59890000  1.0 -0.1511446505
C  C308  1  0.95820000  0.84440000  0.61550000  1.0 0.0515193518
C  C309  1  0.90860000  0.82200000  0.63740000  1.0 -0.1394757542
C  C310  1  0.96000000  0.79860000  0.65910000  1.0 0.0802160129
C  C311  1  0.10250000  0.82290000  0.63930000  1.0 0.0894205024
C  C312  1  0.05690000  0.84440000  0.61670000  1.0 -0.1511446505
C  C313  1  0.88220000  0.66560000  0.91860000  1.0 0.0600120798
C  C314  1  0.89660000  0.70550000  0.90480000  1.0 -0.1654617737
C  C315  1  0.92080000  0.70360000  0.87558000  1.0 0.06890604
C  C316  1  0.92920000  0.66000000  0.86300000  1.0 -0.1511446505
C  C317  1  0.91440000  0.62270000  0.87980000  1.0 0.0515193518
C  C318  1  0.93300000  0.74860000  0.85814000  1.0 0.3584434913
C  C319  1  0.93560000  0.82500000  0.85460000  1.0 0.3584434913
C  C320  1  0.96660000  0.78080000  0.81481000  1.0 0.3673411359
C  C321  1  0.92320000  0.87200000  0.86790000  1.0 0.0600120798
C  C322  1  0.91580000  0.87760000  0.89780000  1.0 -0.1394757542
C  C323  1  0.90300000  0.91970000  0.90910000  1.0 0.0600120798
C  C324  1  0.90100000  0.95420000  0.86510000  1.0 0.0600120798
C  C325  1  0.91910000  0.91250000  0.85160000  1.0 -0.1590303878
C  C326  1  0.99480000  0.77720000  0.78433000  1.0 0.0383174617
C  C327  1  0.02650000  0.81530000  0.76830000  1.0 -0.1394757542
C  C328  1  0.05500000  0.80880000  0.73990000  1.0 0.06890604
C  C329  1  0.02680000  0.73060000  0.74230000  1.0 0.0802160129
C  C330  1  0.99740000  0.73440000  0.77120000  1.0 -0.1304411212
C  C331  1  0.43140000  0.56870000  0.72800000  1.0 0.0303659423
C  C332  1  0.52730000  0.55710000  0.72400000  1.0 -0.1175236447
C  C333  1  0.56400000  0.55290000  0.69600000  1.0 -0.0775459732
C  C334  1  0.50500000  0.56020000  0.67200000  1.0 -0.0619812
C  C335  1  0.40900000  0.57180000  0.67600000  1.0 -0.0997167562
C  C336  1  0.37200000  0.57600000  0.70400000  1.0 -0.1511446505
I  I1  1  0.56527000  0.49662000  0.40308000  1.0 -0.288787512
I  I2  1  0.82413000  0.57175000  0.44113000  1.0 -0.3823591388
I  I3  1  0.76814000  0.56779000  0.62535000  1.0 -0.4424112911
I  I4  1  0.78681000  0.50439000  0.53681000  1.0 -0.4586061289
I  I5  1  0.79553000  0.70176000  0.69523000  1.0 -0.4543387287
I  I6  1  0.62881000  0.82514000  0.67242000  1.0 -0.288787512
I  I7  1  0.83300000  0.54360000  0.37040000  1.0 0.0303659423
I  I8  1  0.87130000  0.55660000  0.31060000  1.0 0.0171703122
I  I9  1  0.74610000  0.87540000  0.71760000  1.0 0.0600120798
I  I10  1  0.85330000  0.92480000  0.75970000  1.0 0.2967740309
I  I11  1  0.73360000  0.49970000  0.36230000  1.0 0.0515193518
I  I12  1  0.89100000  0.50250000  0.32410000  1.0 -0.0193271369
I  I13  1  0.43473000  0.00338000  0.90308000  1.0 -0.288787512
I  I14  1  0.17587000  0.92825000  0.94113000  1.0 -0.3823591388
I  I15  1  0.23186000  0.93221000  0.12535000  1.0 -0.4424112911
I  I16  1  0.21319000  0.99561000  0.03681000  1.0 -0.4586061289
I  I17  1  0.20447000  0.79824000  0.19523000  1.0 -0.4543387287
I  I18  1  0.37119000  0.67486000  0.17242000  1.0 -0.288787512
I  I19  1  0.16700000  0.95640000  0.87040000  1.0 0.0303659423
I  I20  1  0.12870000  0.94340000  0.81060000  1.0 0.0171703122
I  I21  1  0.25390000  0.62460000  0.21760000  1.0 0.0515193518
I  I22  1  0.14670000  0.57520000  0.25970000  1.0 0.2967740309
I  I23  1  0.26640000  0.00030000  0.86230000  1.0 0.0515193518
I  I24  1  0.10900000  0.99750000  0.82410000  1.0 -0.0193271369
I  I25  1  0.06527000  0.50338000  0.09692000  1.0 -0.288787512
I  I26  1  0.32413000  0.42825000  0.05887000  1.0 -0.386227116
I  I27  1  0.26814000  0.43221000  0.87465000  1.0 -0.4424112911
I  I28  1  0.28681000  0.49561000  0.96319000  1.0 -0.4586061289
I  I29  1  0.29553000  0.29824000  0.80477000  1.0 -0.4543387287
I  I30  1  0.12881000  0.17486000  0.82758000  1.0 -0.2957048665
I  I31  1  0.33300000  0.45640000  0.12960000  1.0 0.0303659423
I  I32  1  0.37130000  0.44340000  0.18940000  1.0 0.0171703122
I  I33  1  0.24610000  0.12460000  0.78240000  1.0 0.0600120798
I  I34  1  0.35330000  0.07520000  0.74030000  1.0 0.2967740309
I  I35  1  0.23360000  0.50030000  0.13770000  1.0 0.0515193518
I  I36  1  0.39100000  0.49750000  0.17590000  1.0 -0.0193271369
I  I37  1  0.93473000  0.99662000  0.59692000  1.0 -0.288787512
I  I38  1  0.67587000  0.07175000  0.55887000  1.0 -0.386227116
I  I39  1  0.73186000  0.06779000  0.37465000  1.0 -0.4424112911
I  I40  1  0.71319000  0.00439000  0.46319000  1.0 -0.4586061289
I  I41  1  0.70447000  0.20176000  0.30477000  1.0 -0.4543387287
I  I42  1  0.87119000  0.32514000  0.32758000  1.0 -0.2957048665
I  I43  1  0.66700000  0.04360000  0.62960000  1.0 0.0303659423
I  I44  1  0.62870000  0.05660000  0.68940000  1.0 0.0171703122
I  I45  1  0.75390000  0.37540000  0.28240000  1.0 0.0600120798
I  I46  1  0.64670000  0.42480000  0.24030000  1.0 0.2967740309
I  I47  1  0.76640000  0.99970000  0.63770000  1.0 0.0515193518
I  I48  1  0.60900000  0.00250000  0.67590000  1.0 -0.0193271369
I  I49  1  0.43473000  0.50338000  0.59692000  1.0 -0.288787512
I  I50  1  0.17587000  0.42825000  0.55887000  1.0 -0.386227116
I  I51  1  0.23186000  0.43221000  0.37465000  1.0 -0.4424112911
I  I52  1  0.21319000  0.49561000  0.46319000  1.0 -0.4586061289
I  I53  1  0.20447000  0.29824000  0.30477000  1.0 -0.4543387287
I  I54  1  0.37119000  0.17486000  0.32758000  1.0 -0.2957048665
I  I55  1  0.16700000  0.45640000  0.62960000  1.0 0.0303659423
I  I56  1  0.12870000  0.44340000  0.68940000  1.0 0.0171703122
I  I57  1  0.25390000  0.12460000  0.28240000  1.0 0.0600120798
I  I58  1  0.14670000  0.07520000  0.24030000  1.0 0.2967740309
I  I59  1  0.26640000  0.50030000  0.63770000  1.0 0.0515193518
I  I60  1  0.10900000  0.49750000  0.67590000  1.0 -0.0193271369
I  I61  1  0.56527000  0.99662000  0.09692000  1.0 -0.288787512
I  I62  1  0.82413000  0.07175000  0.05887000  1.0 -0.386227116
I  I63  1  0.76814000  0.06779000  0.87465000  1.0 -0.4424112911
I  I64  1  0.78681000  0.00439000  0.96319000  1.0 -0.4586061289
I  I65  1  0.79553000  0.20176000  0.80477000  1.0 -0.4543387287
I  I66  1  0.62881000  0.32514000  0.82758000  1.0 -0.2957048665
I  I67  1  0.83300000  0.04360000  0.12960000  1.0 0.0303659423
I  I68  1  0.87130000  0.05660000  0.18940000  1.0 0.0171703122
I  I69  1  0.74610000  0.37540000  0.78240000  1.0 0.0600120798
I  I70  1  0.85330000  0.42480000  0.74030000  1.0 0.2967740309
I  I71  1  0.73360000  0.99970000  0.13770000  1.0 0.0515193518
I  I72  1  0.89100000  0.00250000  0.17590000  1.0 -0.0193271369
I  I73  1  0.93473000  0.49662000  0.90308000  1.0 -0.288787512
I  I74  1  0.67587000  0.57175000  0.94113000  1.0 -0.3823591388
I  I75  1  0.73186000  0.56779000  0.12535000  1.0 -0.4424112911
I  I76  1  0.71319000  0.50439000  0.03681000  1.0 -0.4586061289
I  I77  1  0.70447000  0.70176000  0.19523000  1.0 -0.4586061289
I  I78  1  0.87119000  0.82514000  0.17242000  1.0 -0.288787512
I  I79  1  0.66700000  0.54360000  0.87040000  1.0 0.0303659423
I  I80  1  0.62870000  0.55660000  0.81060000  1.0 0.0171703122
I  I81  1  0.75390000  0.87540000  0.21760000  1.0 0.0515193518
I  I82  1  0.64670000  0.92480000  0.25970000  1.0 0.2967740309
I  I83  1  0.76640000  0.49970000  0.86230000  1.0 0.0515193518
I  I84  1  0.60900000  0.50250000  0.82410000  1.0 -0.0193271369
I  I85  1  0.06527000  0.00338000  0.40308000  1.0 -0.288787512
I  I86  1  0.32413000  0.92825000  0.44113000  1.0 -0.386227116
I  I87  1  0.26814000  0.93221000  0.62535000  1.0 -0.4424112911
I  I88  1  0.28681000  0.99561000  0.53681000  1.0 -0.4586061289
I  I89  1  0.29553000  0.79824000  0.69523000  1.0 -0.4543387287
I  I90  1  0.12881000  0.67486000  0.67242000  1.0 -0.288787512
I  I91  1  0.33300000  0.95640000  0.37040000  1.0 0.0303659423
I  I92  1  0.37130000  0.94340000  0.31060000  1.0 0.0171703122
I  I93  1  0.24610000  0.62460000  0.71760000  1.0 0.0600120798
I  I94  1  0.35330000  0.57520000  0.75970000  1.0 0.2967740309
I  I95  1  0.23360000  0.00030000  0.36230000  1.0 0.0515193518
I  I96  1  0.39100000  0.99750000  0.32410000  1.0 -0.0193271369
N  N1  1  0.57460000  0.57210000  0.46882000  1.0 -0.1892506207
N  N2  1  0.32290000  0.59050000  0.54665000  1.0 -0.386227116
N  N3  1  0.31620000  0.62310000  0.59380000  1.0 -0.3823591388
N  N4  1  0.45950000  0.62320000  0.56728000  1.0 -0.3823591388
N  N5  1  0.99180000  0.55170000  0.58030000  1.0 -0.1788512978
N  N6  1  0.55650000  0.69970000  0.65963000  1.0 -0.1892506207
N  N7  1  0.39080000  0.87640000  0.90743000  1.0 -0.1788512978
N  N8  1  0.42300000  0.71200000  0.87150000  1.0 -0.3823591388
N  N9  1  0.45710000  0.67630000  0.82598000  1.0 -0.386227116
N  N10  1  0.45620000  0.75790000  0.82973000  1.0 -0.4035334836
N  N11  1  0.39290000  0.54150000  0.89341000  1.0 -0.1788512978
N  N12  1  0.55900000  0.73290000  0.72710000  1.0 -0.1788512978
N  N13  1  0.89650000  0.92730000  0.75460000  1.0 -0.0193271369
N  N14  1  0.42540000  0.92790000  0.96882000  1.0 -0.1892506207
N  N15  1  0.67710000  0.90950000  0.04665000  1.0 -0.386227116
N  N16  1  0.68380000  0.87690000  0.09380000  1.0 -0.3823591388
N  N17  1  0.54050000  0.87680000  0.06728000  1.0 -0.3823591388
N  N18  1  0.00820000  0.94830000  0.08030000  1.0 -0.1788512978
N  N19  1  0.44350000  0.80030000  0.15963000  1.0 -0.1892506207
N  N20  1  0.60920000  0.62360000  0.40743000  1.0 -0.1788512978
N  N21  1  0.57700000  0.78800000  0.37150000  1.0 -0.3823591388
N  N22  1  0.54290000  0.82370000  0.32598000  1.0 -0.386227116
N  N23  1  0.54380000  0.74210000  0.32973000  1.0 -0.4035334836
N  N24  1  0.60710000  0.95850000  0.39341000  1.0 -0.1788512978
N  N25  1  0.44100000  0.76710000  0.22710000  1.0 -0.1788512978
N  N26  1  0.10350000  0.57270000  0.25460000  1.0 -0.0193271369
N  N27  1  0.07460000  0.42790000  0.03118000  1.0 -0.1892506207
N  N28  1  0.82290000  0.40950000  0.95335000  1.0 -0.386227116
N  N29  1  0.81620000  0.37690000  0.90620000  1.0 -0.3823591388
N  N30  1  0.95950000  0.37680000  0.93272000  1.0 -0.3823591388
N  N31  1  0.49180000  0.44830000  0.91970000  1.0 -0.1788512978
N  N32  1  0.05650000  0.30030000  0.84037000  1.0 -0.1892506207
N  N33  1  0.89080000  0.12360000  0.59257000  1.0 -0.1788512978
N  N34  1  0.92300000  0.28800000  0.62850000  1.0 -0.3823591388
N  N35  1  0.95710000  0.32370000  0.67402000  1.0 -0.386227116
N  N36  1  0.95620000  0.24210000  0.67027000  1.0 -0.4035334836
N  N37  1  0.89290000  0.45850000  0.60659000  1.0 -0.1788512978
N  N38  1  0.05900000  0.26710000  0.77290000  1.0 -0.1788512978
N  N39  1  0.39650000  0.07270000  0.74540000  1.0 -0.0254168685
N  N40  1  0.92540000  0.07210000  0.53118000  1.0 -0.1892506207
N  N41  1  0.17710000  0.09050000  0.45335000  1.0 -0.386227116
N  N42  1  0.18380000  0.12310000  0.40620000  1.0 -0.3823591388
N  N43  1  0.04050000  0.12320000  0.43272000  1.0 -0.3823591388
N  N44  1  0.50820000  0.05170000  0.41970000  1.0 -0.1788512978
N  N45  1  0.94350000  0.19970000  0.34037000  1.0 -0.1892506207
N  N46  1  0.10920000  0.37640000  0.09257000  1.0 -0.1788512978
N  N47  1  0.07700000  0.21200000  0.12850000  1.0 -0.3823591388
N  N48  1  0.04290000  0.17630000  0.17402000  1.0 -0.386227116
N  N49  1  0.04380000  0.25790000  0.17027000  1.0 -0.4035334836
N  N50  1  0.10710000  0.04150000  0.10659000  1.0 -0.1788512978
N  N51  1  0.94100000  0.23290000  0.27290000  1.0 -0.1788512978
N  N52  1  0.60350000  0.42730000  0.24540000  1.0 -0.0193271369
N  N53  1  0.42540000  0.42790000  0.53118000  1.0 -0.1892506207
N  N54  1  0.67710000  0.40950000  0.45335000  1.0 -0.386227116
N  N55  1  0.68380000  0.37690000  0.40620000  1.0 -0.3823591388
N  N56  1  0.54050000  0.37680000  0.43272000  1.0 -0.3823591388
N  N57  1  0.00820000  0.44830000  0.41970000  1.0 -0.1788512978
N  N58  1  0.44350000  0.30030000  0.34037000  1.0 -0.1892506207
N  N59  1  0.60920000  0.12360000  0.09257000  1.0 -0.1788512978
N  N60  1  0.57700000  0.28800000  0.12850000  1.0 -0.3823591388
N  N61  1  0.54290000  0.32370000  0.17402000  1.0 -0.386227116
N  N62  1  0.54380000  0.24210000  0.17027000  1.0 -0.4035334836
N  N63  1  0.60710000  0.45850000  0.10659000  1.0 -0.1788512978
N  N64  1  0.44100000  0.26710000  0.27290000  1.0 -0.1788512978
N  N65  1  0.10350000  0.07270000  0.24540000  1.0 -0.0254168685
N  N66  1  0.57460000  0.07210000  0.03118000  1.0 -0.1892506207
N  N67  1  0.32290000  0.09050000  0.95335000  1.0 -0.386227116
N  N68  1  0.31620000  0.12310000  0.90620000  1.0 -0.3823591388
N  N69  1  0.45950000  0.12320000  0.93272000  1.0 -0.3823591388
N  N70  1  0.99180000  0.05170000  0.91970000  1.0 -0.1788512978
N  N71  1  0.55650000  0.19970000  0.84037000  1.0 -0.1892506207
N  N72  1  0.39080000  0.37640000  0.59257000  1.0 -0.1788512978
N  N73  1  0.42300000  0.21200000  0.62850000  1.0 -0.3823591388
N  N74  1  0.45710000  0.17630000  0.67402000  1.0 -0.386227116
N  N75  1  0.45620000  0.25790000  0.67027000  1.0 -0.4035334836
N  N76  1  0.39290000  0.04150000  0.60659000  1.0 -0.1788512978
N  N77  1  0.55900000  0.23290000  0.77290000  1.0 -0.1788512978
N  N78  1  0.89650000  0.42730000  0.74540000  1.0 -0.0193271369
N  N79  1  0.92540000  0.57210000  0.96882000  1.0 -0.1892506207
N  N80  1  0.17710000  0.59050000  0.04665000  1.0 -0.386227116
N  N81  1  0.18380000  0.62310000  0.09380000  1.0 -0.3823591388
N  N82  1  0.04050000  0.62320000  0.06728000  1.0 -0.3823591388
N  N83  1  0.50820000  0.55170000  0.08030000  1.0 -0.1788512978
N  N84  1  0.94350000  0.69970000  0.15963000  1.0 -0.1892506207
N  N85  1  0.10920000  0.87640000  0.40743000  1.0 -0.1788512978
N  N86  1  0.07700000  0.71200000  0.37150000  1.0 -0.3823591388
N  N87  1  0.04290000  0.67630000  0.32598000  1.0 -0.386227116
N  N88  1  0.04380000  0.75790000  0.32973000  1.0 -0.4035334836
N  N89  1  0.10710000  0.54150000  0.39341000  1.0 -0.1788512978
N  N90  1  0.94100000  0.73290000  0.22710000  1.0 -0.1788512978
N  N91  1  0.60350000  0.92730000  0.25460000  1.0 -0.0193271369
N  N92  1  0.07460000  0.92790000  0.46882000  1.0 -0.1892506207
N  N93  1  0.82290000  0.90950000  0.54665000  1.0 -0.386227116
N  N94  1  0.81620000  0.87690000  0.59380000  1.0 -0.3823591388
N  N95  1  0.95950000  0.87680000  0.56728000  1.0 -0.3823591388
N  N96  1  0.49180000  0.94830000  0.58030000  1.0 -0.1788512978
N  N97  1  0.05650000  0.80030000  0.65963000  1.0 -0.1892506207
N  N98  1  0.89080000  0.62360000  0.90743000  1.0 -0.1788512978
N  N99  1  0.92300000  0.78800000  0.87150000  1.0 -0.3823591388
N  N100  1  0.95710000  0.82370000  0.82598000  1.0 -0.386227116
N  N101  1  0.95620000  0.74210000  0.82973000  1.0 -0.4035334836
N  N102  1  0.89290000  0.95850000  0.89341000  1.0 -0.1788512978
N  N103  1  0.05900000  0.76710000  0.72710000  1.0 -0.1788512978
N  N104  1  0.39650000  0.57270000  0.75460000  1.0 -0.0193271369
O  O1  1  0.80750000  0.91660000  0.75800000  1.0 -0.2532425269
O  O2  1  0.95300000  0.93430000  0.77640000  1.0 -0.288787512
O  O3  1  0.19250000  0.58340000  0.25800000  1.0 -0.2532425269
O  O4  1  0.04700000  0.56570000  0.27640000  1.0 -0.288787512
O  O5  1  0.30750000  0.08340000  0.74200000  1.0 -0.2532425269
O  O6  1  0.45300000  0.06570000  0.72360000  1.0 -0.288787512
O  O7  1  0.69250000  0.41660000  0.24200000  1.0 -0.2532425269
O  O8  1  0.54700000  0.43430000  0.22360000  1.0 -0.288787512
O  O9  1  0.19250000  0.08340000  0.24200000  1.0 -0.2532425269
O  O10  1  0.04700000  0.06570000  0.22360000  1.0 -0.288787512
O  O11  1  0.80750000  0.41660000  0.74200000  1.0 -0.2532425269
O  O12  1  0.95300000  0.43430000  0.72360000  1.0 -0.288787512
O  O13  1  0.69250000  0.91660000  0.25800000  1.0 -0.2532425269
O  O14  1  0.54700000  0.93430000  0.27640000  1.0 -0.288787512
O  O15  1  0.30750000  0.58340000  0.75800000  1.0 -0.2532425269
O  O16  1  0.45300000  0.56570000  0.77640000  1.0 -0.288787512
