# DDEC6 charges by PACMAN v1.1 (https://github.com/mtap-research/PACMAN-charge/)
data_KEVXIV_FSR_pacman
_symmetry_space_group_name_H-M   'P 1'
_cell_length_a   13.97540000
_cell_length_b   28.70520000
_cell_length_c   46.05600000
_cell_angle_alpha   90.00000000
_cell_angle_beta   90.00000000
_cell_angle_gamma   90.00000000
_symmetry_Int_Tables_number   1
_chemical_formula_structural   Zn3H29C42I12N13O2
_chemical_formula_sum   'Zn24 H232 C336 I96 N104 O16'
_cell_volume   18476.13132820
_cell_formula_units_Z   8
loop_
 _symmetry_equiv_pos_site_id
 _symmetry_equiv_pos_as_xyz
  1  'x, y, z'
loop_
 _atom_site_type_symbol
 _atom_site_label
 _atom_site_symmetry_multiplicity
 _atom_site_fract_x
 _atom_site_fract_y
 _atom_site_fract_z
 _atom_site_occupancy
 _atom_site_charge
Zn  Zn1  1  0.64776000  0.56294000  0.43032000  1.0 0.4326683759
Zn  Zn2  1  0.85698000  0.52208000  0.58699000  1.0 0.4700621506
Zn  Zn3  1  0.63369000  0.74108000  0.68846000  1.0 0.4428179069
Zn  Zn4  1  0.35224000  0.93706000  0.93032000  1.0 0.4326683759
Zn  Zn5  1  0.14302000  0.97792000  0.08699000  1.0 0.4700621506
Zn  Zn6  1  0.36631000  0.75892000  0.18846000  1.0 0.4428179069
Zn  Zn7  1  0.14776000  0.43706000  0.06968000  1.0 0.4326683759
Zn  Zn8  1  0.35698000  0.47792000  0.91301000  1.0 0.4700621506
Zn  Zn9  1  0.13369000  0.25892000  0.81154000  1.0 0.4428179069
Zn  Zn10  1  0.85224000  0.06294000  0.56968000  1.0 0.4326683759
Zn  Zn11  1  0.64302000  0.02208000  0.41301000  1.0 0.4700621506
Zn  Zn12  1  0.86631000  0.24108000  0.31154000  1.0 0.4428179069
Zn  Zn13  1  0.35224000  0.43706000  0.56968000  1.0 0.4326683759
Zn  Zn14  1  0.14302000  0.47792000  0.41301000  1.0 0.4700621506
Zn  Zn15  1  0.36631000  0.25892000  0.31154000  1.0 0.4428179069
Zn  Zn16  1  0.64776000  0.06294000  0.06968000  1.0 0.4326683759
Zn  Zn17  1  0.85698000  0.02208000  0.91301000  1.0 0.4700621506
Zn  Zn18  1  0.63369000  0.24108000  0.81154000  1.0 0.4428179069
Zn  Zn19  1  0.85224000  0.56294000  0.93032000  1.0 0.4326683759
Zn  Zn20  1  0.64302000  0.52208000  0.08699000  1.0 0.4700621506
Zn  Zn21  1  0.86631000  0.74108000  0.18846000  1.0 0.4428179069
Zn  Zn22  1  0.14776000  0.93706000  0.43032000  1.0 0.4326683759
Zn  Zn23  1  0.35698000  0.97792000  0.58699000  1.0 0.4700621506
Zn  Zn24  1  0.13369000  0.75892000  0.68846000  1.0 0.4428179069
H  H1  1  0.45140000  0.54650000  0.45550000  1.0 0.1105489057
H  H2  1  0.36300000  0.56210000  0.49600000  1.0 0.1370596227
H  H3  1  0.59260000  0.61790000  0.53300000  1.0 0.1370596227
H  H4  1  0.68370000  0.59640000  0.49170000  1.0 0.100402402
H  H5  1  0.16460000  0.55320000  0.53500000  1.0 0.1370596227
H  H6  1  0.01030000  0.52840000  0.54100000  1.0 0.1105489057
H  H7  1  0.99680000  0.58550000  0.61720000  1.0 0.1105489057
H  H8  1  0.14890000  0.61350000  0.61290000  1.0 0.1307262298
H  H9  1  0.34200000  0.67850000  0.63810000  1.0 0.1370596227
H  H10  1  0.42880000  0.71730000  0.67350000  1.0 0.1105489057
H  H11  1  0.66870000  0.67640000  0.63920000  1.0 0.1105489057
H  H12  1  0.59150000  0.64130000  0.60210000  1.0 0.1370596227
H  H13  1  0.36180000  0.83260000  0.93820000  1.0 0.1105489057
H  H14  1  0.38970000  0.76520000  0.91390000  1.0 0.1370596227
H  H15  1  0.44540000  0.84310000  0.84320000  1.0 0.1370596227
H  H16  1  0.42330000  0.90780000  0.87070000  1.0 0.100402402
H  H17  1  0.41820000  0.64930000  0.90990000  1.0 0.119687914
H  H18  1  0.39990000  0.57680000  0.92940000  1.0 0.1105489057
H  H19  1  0.39480000  0.51870000  0.85370000  1.0 0.100402402
H  H20  1  0.42650000  0.58790000  0.83110000  1.0 0.119687914
H  H21  1  0.52600000  0.65550000  0.77640000  1.0 0.1307262298
H  H22  1  0.57600000  0.66550000  0.72890000  1.0 0.1105489057
H  H23  1  0.52690000  0.79860000  0.73310000  1.0 0.100402402
H  H24  1  0.47760000  0.79290000  0.78100000  1.0 0.1307262298
H  H25  1  0.05420000  0.94140000  0.74350000  1.0 0.1105489057
H  H26  1  0.12930000  0.94670000  0.69870000  1.0 0.1307262298
H  H27  1  0.04090000  0.93900000  0.65630000  1.0 0.1105489057
H  H28  1  0.87720000  0.92600000  0.65880000  1.0 0.100402402
H  H29  1  0.80200000  0.92070000  0.70360000  1.0 0.089402996
H  H30  1  0.54860000  0.95350000  0.95550000  1.0 0.1105489057
H  H31  1  0.63700000  0.93790000  0.99600000  1.0 0.1370596227
H  H32  1  0.40740000  0.88210000  0.03300000  1.0 0.1370596227
H  H33  1  0.31630000  0.90360000  0.99170000  1.0 0.100402402
H  H34  1  0.83540000  0.94680000  0.03500000  1.0 0.1370596227
H  H35  1  0.98970000  0.97160000  0.04100000  1.0 0.1105489057
H  H36  1  0.00320000  0.91450000  0.11720000  1.0 0.1105489057
H  H37  1  0.85110000  0.88650000  0.11290000  1.0 0.1307262298
H  H38  1  0.65800000  0.82150000  0.13810000  1.0 0.1370596227
H  H39  1  0.57120000  0.78270000  0.17350000  1.0 0.1105489057
H  H40  1  0.33130000  0.82360000  0.13920000  1.0 0.1105489057
H  H41  1  0.40850000  0.85870000  0.10210000  1.0 0.1370596227
H  H42  1  0.63820000  0.66740000  0.43820000  1.0 0.1105489057
H  H43  1  0.61030000  0.73480000  0.41390000  1.0 0.1370596227
H  H44  1  0.55460000  0.65690000  0.34320000  1.0 0.1370596227
H  H45  1  0.57670000  0.59220000  0.37070000  1.0 0.100402402
H  H46  1  0.58180000  0.85070000  0.40990000  1.0 0.119687914
H  H47  1  0.60010000  0.92320000  0.42940000  1.0 0.1105489057
H  H48  1  0.60520000  0.98130000  0.35370000  1.0 0.100402402
H  H49  1  0.57350000  0.91210000  0.33110000  1.0 0.119687914
H  H50  1  0.47400000  0.84450000  0.27640000  1.0 0.1307262298
H  H51  1  0.42400000  0.83450000  0.22890000  1.0 0.1105489057
H  H52  1  0.47310000  0.70140000  0.23310000  1.0 0.100402402
H  H53  1  0.52240000  0.70710000  0.28100000  1.0 0.1307262298
H  H54  1  0.94580000  0.55860000  0.24350000  1.0 0.1105489057
H  H55  1  0.87070000  0.55330000  0.19870000  1.0 0.1307262298
H  H56  1  0.95910000  0.56100000  0.15630000  1.0 0.1105489057
H  H57  1  0.12280000  0.57400000  0.15880000  1.0 0.100402402
H  H58  1  0.19800000  0.57930000  0.20360000  1.0 0.089402996
H  H59  1  0.95140000  0.45350000  0.04450000  1.0 0.1105489057
H  H60  1  0.86300000  0.43790000  0.00400000  1.0 0.1370596227
H  H61  1  0.09260000  0.38210000  0.96700000  1.0 0.1370596227
H  H62  1  0.18370000  0.40360000  0.00830000  1.0 0.100402402
H  H63  1  0.66460000  0.44680000  0.96500000  1.0 0.1307262298
H  H64  1  0.51030000  0.47160000  0.95900000  1.0 0.119687914
H  H65  1  0.49680000  0.41450000  0.88280000  1.0 0.1105489057
H  H66  1  0.64890000  0.38650000  0.88710000  1.0 0.1307262298
H  H67  1  0.84200000  0.32150000  0.86190000  1.0 0.1370596227
H  H68  1  0.92880000  0.28270000  0.82650000  1.0 0.1105489057
H  H69  1  0.16870000  0.32360000  0.86080000  1.0 0.1105489057
H  H70  1  0.09150000  0.35870000  0.89790000  1.0 0.1370596227
H  H71  1  0.86180000  0.16740000  0.56180000  1.0 0.1105489057
H  H72  1  0.88970000  0.23480000  0.58610000  1.0 0.1370596227
H  H73  1  0.94540000  0.15690000  0.65680000  1.0 0.1370596227
H  H74  1  0.92330000  0.09220000  0.62930000  1.0 0.100402402
H  H75  1  0.91820000  0.35070000  0.59010000  1.0 0.119687914
H  H76  1  0.89990000  0.42320000  0.57060000  1.0 0.1105489057
H  H77  1  0.89480000  0.48130000  0.64630000  1.0 0.100402402
H  H78  1  0.92650000  0.41210000  0.66890000  1.0 0.119687914
H  H79  1  0.02600000  0.34450000  0.72360000  1.0 0.1307262298
H  H80  1  0.07600000  0.33450000  0.77110000  1.0 0.1105489057
H  H81  1  0.02690000  0.20140000  0.76690000  1.0 0.100402402
H  H82  1  0.97760000  0.20710000  0.71900000  1.0 0.1307262298
H  H83  1  0.55420000  0.05860000  0.75650000  1.0 0.1105489057
H  H84  1  0.62930000  0.05330000  0.80130000  1.0 0.1307262298
H  H85  1  0.54090000  0.06100000  0.84370000  1.0 0.1105489057
H  H86  1  0.37720000  0.07400000  0.84120000  1.0 0.100402402
H  H87  1  0.30200000  0.07930000  0.79640000  1.0 0.089402996
H  H88  1  0.04860000  0.04650000  0.54450000  1.0 0.1105489057
H  H89  1  0.13700000  0.06210000  0.50400000  1.0 0.1370596227
H  H90  1  0.90740000  0.11790000  0.46700000  1.0 0.1370596227
H  H91  1  0.81630000  0.09640000  0.50830000  1.0 0.100402402
H  H92  1  0.33540000  0.05320000  0.46500000  1.0 0.1370596227
H  H93  1  0.48970000  0.02840000  0.45900000  1.0 0.119687914
H  H94  1  0.50320000  0.08550000  0.38280000  1.0 0.1105489057
H  H95  1  0.35110000  0.11350000  0.38710000  1.0 0.1307262298
H  H96  1  0.15800000  0.17850000  0.36190000  1.0 0.1370596227
H  H97  1  0.07120000  0.21730000  0.32650000  1.0 0.1105489057
H  H98  1  0.83130000  0.17640000  0.36080000  1.0 0.1105489057
H  H99  1  0.90850000  0.14130000  0.39790000  1.0 0.1370596227
H  H100  1  0.13820000  0.33260000  0.06180000  1.0 0.1105489057
H  H101  1  0.11030000  0.26520000  0.08610000  1.0 0.1370596227
H  H102  1  0.05460000  0.34310000  0.15680000  1.0 0.1370596227
H  H103  1  0.07670000  0.40780000  0.12930000  1.0 0.100402402
H  H104  1  0.08180000  0.14930000  0.09010000  1.0 0.119687914
H  H105  1  0.10010000  0.07680000  0.07060000  1.0 0.1105489057
H  H106  1  0.10520000  0.01870000  0.14630000  1.0 0.100402402
H  H107  1  0.07350000  0.08790000  0.16890000  1.0 0.119687914
H  H108  1  0.97400000  0.15550000  0.22360000  1.0 0.1307262298
H  H109  1  0.92400000  0.16550000  0.27110000  1.0 0.1105489057
H  H110  1  0.97310000  0.29860000  0.26690000  1.0 0.100402402
H  H111  1  0.02240000  0.29290000  0.21900000  1.0 0.1307262298
H  H112  1  0.44580000  0.44140000  0.25650000  1.0 0.1105489057
H  H113  1  0.37070000  0.44670000  0.30130000  1.0 0.1307262298
H  H114  1  0.45910000  0.43900000  0.34370000  1.0 0.1105489057
H  H115  1  0.62280000  0.42600000  0.34120000  1.0 0.100402402
H  H116  1  0.69800000  0.42070000  0.29640000  1.0 0.089402996
H  H117  1  0.54860000  0.45350000  0.54450000  1.0 0.1105489057
H  H118  1  0.63700000  0.43790000  0.50400000  1.0 0.1370596227
H  H119  1  0.40740000  0.38210000  0.46700000  1.0 0.1370596227
H  H120  1  0.31630000  0.40360000  0.50830000  1.0 0.100402402
H  H121  1  0.83540000  0.44680000  0.46500000  1.0 0.1307262298
H  H122  1  0.98970000  0.47160000  0.45900000  1.0 0.119687914
H  H123  1  0.00320000  0.41450000  0.38280000  1.0 0.1105489057
H  H124  1  0.85110000  0.38650000  0.38710000  1.0 0.1307262298
H  H125  1  0.65800000  0.32150000  0.36190000  1.0 0.1370596227
H  H126  1  0.57120000  0.28270000  0.32650000  1.0 0.1105489057
H  H127  1  0.33130000  0.32360000  0.36080000  1.0 0.1105489057
H  H128  1  0.40850000  0.35870000  0.39790000  1.0 0.1370596227
H  H129  1  0.63820000  0.16740000  0.06180000  1.0 0.1105489057
H  H130  1  0.61030000  0.23480000  0.08610000  1.0 0.1370596227
H  H131  1  0.55460000  0.15690000  0.15680000  1.0 0.1370596227
H  H132  1  0.57670000  0.09220000  0.12930000  1.0 0.100402402
H  H133  1  0.58180000  0.35070000  0.09010000  1.0 0.119687914
H  H134  1  0.60010000  0.42320000  0.07060000  1.0 0.1105489057
H  H135  1  0.60520000  0.48130000  0.14630000  1.0 0.100402402
H  H136  1  0.57350000  0.41210000  0.16890000  1.0 0.119687914
H  H137  1  0.47400000  0.34450000  0.22360000  1.0 0.1307262298
H  H138  1  0.42400000  0.33450000  0.27110000  1.0 0.1105489057
H  H139  1  0.47310000  0.20140000  0.26690000  1.0 0.100402402
H  H140  1  0.52240000  0.20710000  0.21900000  1.0 0.1307262298
H  H141  1  0.94580000  0.05860000  0.25650000  1.0 0.1105489057
H  H142  1  0.87070000  0.05330000  0.30130000  1.0 0.1307262298
H  H143  1  0.95910000  0.06100000  0.34370000  1.0 0.1105489057
H  H144  1  0.12280000  0.07400000  0.34120000  1.0 0.100402402
H  H145  1  0.19800000  0.07930000  0.29640000  1.0 0.089402996
H  H146  1  0.45140000  0.04650000  0.04450000  1.0 0.1105489057
H  H147  1  0.36300000  0.06210000  0.00400000  1.0 0.1370596227
H  H148  1  0.59260000  0.11790000  0.96700000  1.0 0.1370596227
H  H149  1  0.68370000  0.09640000  0.00830000  1.0 0.100402402
H  H150  1  0.16460000  0.05320000  0.96500000  1.0 0.1370596227
H  H151  1  0.01030000  0.02840000  0.95900000  1.0 0.119687914
H  H152  1  0.99680000  0.08550000  0.88280000  1.0 0.1105489057
H  H153  1  0.14890000  0.11350000  0.88710000  1.0 0.1307262298
H  H154  1  0.34200000  0.17850000  0.86190000  1.0 0.1370596227
H  H155  1  0.42880000  0.21730000  0.82650000  1.0 0.1105489057
H  H156  1  0.66870000  0.17640000  0.86080000  1.0 0.1105489057
H  H157  1  0.59150000  0.14130000  0.89790000  1.0 0.1370596227
H  H158  1  0.36180000  0.33260000  0.56180000  1.0 0.1105489057
H  H159  1  0.38970000  0.26520000  0.58610000  1.0 0.1370596227
H  H160  1  0.44540000  0.34310000  0.65680000  1.0 0.1370596227
H  H161  1  0.42330000  0.40780000  0.62930000  1.0 0.100402402
H  H162  1  0.41820000  0.14930000  0.59010000  1.0 0.119687914
H  H163  1  0.39990000  0.07680000  0.57060000  1.0 0.1105489057
H  H164  1  0.39480000  0.01870000  0.64630000  1.0 0.100402402
H  H165  1  0.42650000  0.08790000  0.66890000  1.0 0.119687914
H  H166  1  0.52600000  0.15550000  0.72360000  1.0 0.1307262298
H  H167  1  0.57600000  0.16550000  0.77110000  1.0 0.1105489057
H  H168  1  0.52690000  0.29860000  0.76690000  1.0 0.100402402
H  H169  1  0.47760000  0.29290000  0.71900000  1.0 0.1307262298
H  H170  1  0.05420000  0.44140000  0.75650000  1.0 0.1105489057
H  H171  1  0.12930000  0.44670000  0.80130000  1.0 0.1307262298
H  H172  1  0.04090000  0.43900000  0.84370000  1.0 0.1105489057
H  H173  1  0.87720000  0.42600000  0.84120000  1.0 0.100402402
H  H174  1  0.80200000  0.42070000  0.79640000  1.0 0.089402996
H  H175  1  0.04860000  0.54650000  0.95550000  1.0 0.1105489057
H  H176  1  0.13700000  0.56210000  0.99600000  1.0 0.1370596227
H  H177  1  0.90740000  0.61790000  0.03300000  1.0 0.1370596227
H  H178  1  0.81630000  0.59640000  0.99170000  1.0 0.100402402
H  H179  1  0.33540000  0.55320000  0.03500000  1.0 0.1370596227
H  H180  1  0.48970000  0.52840000  0.04100000  1.0 0.1105489057
H  H181  1  0.50320000  0.58550000  0.11720000  1.0 0.1105489057
H  H182  1  0.35110000  0.61350000  0.11290000  1.0 0.1307262298
H  H183  1  0.15800000  0.67850000  0.13810000  1.0 0.1370596227
H  H184  1  0.07120000  0.71730000  0.17350000  1.0 0.1105489057
H  H185  1  0.83130000  0.67640000  0.13920000  1.0 0.1105489057
H  H186  1  0.90850000  0.64130000  0.10210000  1.0 0.1370596227
H  H187  1  0.13820000  0.83260000  0.43820000  1.0 0.1105489057
H  H188  1  0.11030000  0.76520000  0.41390000  1.0 0.1370596227
H  H189  1  0.05460000  0.84310000  0.34320000  1.0 0.1370596227
H  H190  1  0.07670000  0.90780000  0.37070000  1.0 0.100402402
H  H191  1  0.08180000  0.64930000  0.40990000  1.0 0.119687914
H  H192  1  0.10010000  0.57680000  0.42940000  1.0 0.1105489057
H  H193  1  0.10520000  0.51870000  0.35370000  1.0 0.100402402
H  H194  1  0.07350000  0.58790000  0.33110000  1.0 0.119687914
H  H195  1  0.97400000  0.65550000  0.27640000  1.0 0.1307262298
H  H196  1  0.92400000  0.66550000  0.22890000  1.0 0.1105489057
H  H197  1  0.97310000  0.79860000  0.23310000  1.0 0.100402402
H  H198  1  0.02240000  0.79290000  0.28100000  1.0 0.1307262298
H  H199  1  0.44580000  0.94140000  0.24350000  1.0 0.1105489057
H  H200  1  0.37070000  0.94670000  0.19870000  1.0 0.1307262298
H  H201  1  0.45910000  0.93900000  0.15630000  1.0 0.1105489057
H  H202  1  0.62280000  0.92600000  0.15880000  1.0 0.100402402
H  H203  1  0.69800000  0.92070000  0.20360000  1.0 0.089402996
H  H204  1  0.95140000  0.95350000  0.45550000  1.0 0.1105489057
H  H205  1  0.86300000  0.93790000  0.49600000  1.0 0.1370596227
H  H206  1  0.09260000  0.88210000  0.53300000  1.0 0.1370596227
H  H207  1  0.18370000  0.90360000  0.49170000  1.0 0.100402402
H  H208  1  0.66460000  0.94680000  0.53500000  1.0 0.1370596227
H  H209  1  0.51030000  0.97160000  0.54100000  1.0 0.1105489057
H  H210  1  0.49680000  0.91450000  0.61720000  1.0 0.1105489057
H  H211  1  0.64890000  0.88650000  0.61290000  1.0 0.1307262298
H  H212  1  0.84200000  0.82150000  0.63810000  1.0 0.1370596227
H  H213  1  0.92880000  0.78270000  0.67350000  1.0 0.1105489057
H  H214  1  0.16870000  0.82360000  0.63920000  1.0 0.1105489057
H  H215  1  0.09150000  0.85870000  0.60210000  1.0 0.1370596227
H  H216  1  0.86180000  0.66740000  0.93820000  1.0 0.1105489057
H  H217  1  0.88970000  0.73480000  0.91390000  1.0 0.1370596227
H  H218  1  0.94540000  0.65690000  0.84320000  1.0 0.1370596227
H  H219  1  0.92330000  0.59220000  0.87070000  1.0 0.100402402
H  H220  1  0.91820000  0.85070000  0.90990000  1.0 0.119687914
H  H221  1  0.89990000  0.92320000  0.92940000  1.0 0.1105489057
H  H222  1  0.89480000  0.98130000  0.85370000  1.0 0.100402402
H  H223  1  0.92650000  0.91210000  0.83110000  1.0 0.119687914
H  H224  1  0.02600000  0.84450000  0.77640000  1.0 0.1307262298
H  H225  1  0.07600000  0.83450000  0.72890000  1.0 0.1105489057
H  H226  1  0.02690000  0.70140000  0.73310000  1.0 0.100402402
H  H227  1  0.97760000  0.70710000  0.78100000  1.0 0.1307262298
H  H228  1  0.55420000  0.55860000  0.74350000  1.0 0.1105489057
H  H229  1  0.62930000  0.55330000  0.69870000  1.0 0.1307262298
H  H230  1  0.54090000  0.56100000  0.65630000  1.0 0.1105489057
H  H231  1  0.37720000  0.57400000  0.65880000  1.0 0.100402402
H  H232  1  0.30200000  0.57930000  0.70360000  1.0 0.089402996
C  C1  1  0.48090000  0.56120000  0.47103000  1.0 0.0706754692
C  C2  1  0.42720000  0.57050000  0.49535000  1.0 -0.1393196007
C  C3  1  0.46940000  0.59270000  0.51904000  1.0 0.0419351631
C  C4  1  0.56290000  0.60300000  0.51746000  1.0 -0.1305754129
C  C5  1  0.61810000  0.59110000  0.49193000  1.0 0.089402996
C  C6  1  0.41480000  0.60360000  0.54577000  1.0 0.3697838393
C  C7  1  0.27510000  0.60190000  0.57073000  1.0 0.3872869043
C  C8  1  0.40910000  0.63400000  0.59044000  1.0 0.3697838393
C  C9  1  0.17460000  0.58650000  0.57422000  1.0 0.0504075253
C  C10  1  0.13150000  0.56010000  0.55198000  1.0 -0.1393196007
C  C11  1  0.03970000  0.54480000  0.55601000  1.0 0.0792824218
C  C12  1  0.03150000  0.57840000  0.60056000  1.0 0.0706754692
C  C13  1  0.12290000  0.59550000  0.59802000  1.0 -0.1497653972
C  C14  1  0.45970000  0.65640000  0.61504000  1.0 0.0504075253
C  C15  1  0.40850000  0.67880000  0.63762000  1.0 -0.158856167
C  C16  1  0.46130000  0.70140000  0.65897000  1.0 0.089402996
C  C17  1  0.60220000  0.67780000  0.63851000  1.0 0.0706754692
C  C18  1  0.55630000  0.65630000  0.61642000  1.0 -0.1393196007
C  C19  1  0.37990000  0.83440000  0.91883000  1.0 0.0792824218
C  C20  1  0.39530000  0.79370000  0.90446000  1.0 -0.1654576755
C  C21  1  0.41980000  0.79590000  0.87516000  1.0 0.0611111195
C  C22  1  0.42930000  0.84010000  0.86268000  1.0 -0.1497653972
C  C23  1  0.41480000  0.87870000  0.87922000  1.0 0.0706754692
C  C24  1  0.43200000  0.75250000  0.85790000  1.0 0.3697838393
C  C25  1  0.43490000  0.67450000  0.85428000  1.0 0.3697838393
C  C26  1  0.46510000  0.71910000  0.81449000  1.0 0.3802657379
C  C27  1  0.42310000  0.62880000  0.86762000  1.0 0.0504075253
C  C28  1  0.41490000  0.62350000  0.89774000  1.0 -0.1393196007
C  C29  1  0.40200000  0.57960000  0.90928000  1.0 0.0792824218
C  C30  1  0.40090000  0.54530000  0.86502000  1.0 0.0611111195
C  C31  1  0.41820000  0.58710000  0.85110000  1.0 -0.1497653972
C  C32  1  0.49370000  0.72360000  0.78381000  1.0 0.0419351631
C  C33  1  0.52550000  0.68500000  0.76803000  1.0 -0.1393196007
C  C34  1  0.55640000  0.69120000  0.73966000  1.0 0.0706754692
C  C35  1  0.52780000  0.76960000  0.74213000  1.0 0.089402996
C  C36  1  0.49640000  0.76640000  0.77084000  1.0 -0.1393196007
C  C37  1  0.92070000  0.93050000  0.72800000  1.0 0.0176817214
C  C38  1  0.01870000  0.93830000  0.72650000  1.0 -0.1305754129
C  C39  1  0.06370000  0.94150000  0.69970000  1.0 -0.0700603113
C  C40  1  0.01100000  0.93690000  0.67430000  1.0 -0.0700603113
C  C41  1  0.91270000  0.92910000  0.67580000  1.0 -0.0974688129
C  C42  1  0.86760000  0.92590000  0.70260000  1.0 -0.1497653972
C  C43  1  0.51910000  0.93880000  0.97103000  1.0 0.0706754692
C  C44  1  0.57280000  0.92950000  0.99535000  1.0 -0.1393196007
C  C45  1  0.53060000  0.90730000  0.01904000  1.0 0.0419351631
C  C46  1  0.43710000  0.89700000  0.01746000  1.0 -0.1305754129
C  C47  1  0.38190000  0.90890000  0.99193000  1.0 0.089402996
C  C48  1  0.58520000  0.89640000  0.04577000  1.0 0.3697838393
C  C49  1  0.72490000  0.89810000  0.07073000  1.0 0.3872869043
C  C50  1  0.59090000  0.86600000  0.09044000  1.0 0.3697838393
C  C51  1  0.82540000  0.91350000  0.07422000  1.0 0.0504075253
C  C52  1  0.86850000  0.93990000  0.05198000  1.0 -0.1393196007
C  C53  1  0.96030000  0.95520000  0.05601000  1.0 0.0792824218
C  C54  1  0.96850000  0.92160000  0.10056000  1.0 0.0706754692
C  C55  1  0.87710000  0.90450000  0.09802000  1.0 -0.1497653972
C  C56  1  0.54030000  0.84360000  0.11504000  1.0 0.0504075253
C  C57  1  0.59150000  0.82120000  0.13762000  1.0 -0.158856167
C  C58  1  0.53870000  0.79860000  0.15897000  1.0 0.089402996
C  C59  1  0.39780000  0.82220000  0.13851000  1.0 0.0706754692
C  C60  1  0.44370000  0.84370000  0.11642000  1.0 -0.1393196007
C  C61  1  0.62010000  0.66560000  0.41883000  1.0 0.0792824218
C  C62  1  0.60470000  0.70630000  0.40446000  1.0 -0.1654576755
C  C63  1  0.58020000  0.70410000  0.37516000  1.0 0.0611111195
C  C64  1  0.57070000  0.65990000  0.36268000  1.0 -0.1497653972
C  C65  1  0.58520000  0.62130000  0.37922000  1.0 0.0706754692
C  C66  1  0.56800000  0.74750000  0.35790000  1.0 0.3697838393
C  C67  1  0.56510000  0.82550000  0.35428000  1.0 0.3697838393
C  C68  1  0.53490000  0.78090000  0.31449000  1.0 0.3802657379
C  C69  1  0.57690000  0.87120000  0.36762000  1.0 0.0504075253
C  C70  1  0.58510000  0.87650000  0.39774000  1.0 -0.1497653972
C  C71  1  0.59800000  0.92040000  0.40928000  1.0 0.0792824218
C  C72  1  0.59910000  0.95470000  0.36502000  1.0 0.0611111195
C  C73  1  0.58180000  0.91290000  0.35110000  1.0 -0.1497653972
C  C74  1  0.50630000  0.77640000  0.28381000  1.0 0.0419351631
C  C75  1  0.47450000  0.81500000  0.26803000  1.0 -0.1393196007
C  C76  1  0.44360000  0.80880000  0.23966000  1.0 0.0706754692
C  C77  1  0.47220000  0.73040000  0.24213000  1.0 0.089402996
C  C78  1  0.50360000  0.73360000  0.27084000  1.0 -0.1393196007
C  C79  1  0.07930000  0.56950000  0.22800000  1.0 0.0176817214
C  C80  1  0.98130000  0.56170000  0.22650000  1.0 -0.1305754129
C  C81  1  0.93630000  0.55850000  0.19970000  1.0 -0.0700603113
C  C82  1  0.98900000  0.56310000  0.17430000  1.0 -0.0700603113
C  C83  1  0.08730000  0.57090000  0.17580000  1.0 -0.0974688129
C  C84  1  0.13240000  0.57410000  0.20260000  1.0 -0.1497653972
C  C85  1  0.98090000  0.43880000  0.02897000  1.0 0.0706754692
C  C86  1  0.92720000  0.42950000  0.00465000  1.0 -0.1393196007
C  C87  1  0.96940000  0.40730000  0.98096000  1.0 0.0419351631
C  C88  1  0.06290000  0.39700000  0.98254000  1.0 -0.1305754129
C  C89  1  0.11810000  0.40890000  0.00807000  1.0 0.089402996
C  C90  1  0.91480000  0.39640000  0.95423000  1.0 0.3697838393
C  C91  1  0.77510000  0.39810000  0.92927000  1.0 0.3872869043
C  C92  1  0.90910000  0.36600000  0.90956000  1.0 0.3697838393
C  C93  1  0.67460000  0.41350000  0.92578000  1.0 0.0419351631
C  C94  1  0.63150000  0.43990000  0.94802000  1.0 -0.1393196007
C  C95  1  0.53970000  0.45520000  0.94399000  1.0 0.0792824218
C  C96  1  0.53150000  0.42160000  0.89944000  1.0 0.0706754692
C  C97  1  0.62290000  0.40450000  0.90198000  1.0 -0.1497653972
C  C98  1  0.95970000  0.34360000  0.88496000  1.0 0.0504075253
C  C99  1  0.90850000  0.32120000  0.86238000  1.0 -0.1497653972
C  C100  1  0.96130000  0.29860000  0.84103000  1.0 0.089402996
C  C101  1  0.10220000  0.32220000  0.86149000  1.0 0.0706754692
C  C102  1  0.05630000  0.34370000  0.88358000  1.0 -0.1393196007
C  C103  1  0.87990000  0.16560000  0.58117000  1.0 0.0792824218
C  C104  1  0.89530000  0.20630000  0.59554000  1.0 -0.158856167
C  C105  1  0.91980000  0.20410000  0.62484000  1.0 0.0611111195
C  C106  1  0.92930000  0.15990000  0.63732000  1.0 -0.1497653972
C  C107  1  0.91480000  0.12130000  0.62078000  1.0 0.0706754692
C  C108  1  0.93200000  0.24750000  0.64210000  1.0 0.3697838393
C  C109  1  0.93490000  0.32550000  0.64572000  1.0 0.3697838393
C  C110  1  0.96510000  0.28090000  0.68551000  1.0 0.3802657379
C  C111  1  0.92310000  0.37120000  0.63238000  1.0 0.0504075253
C  C112  1  0.91490000  0.37650000  0.60226000  1.0 -0.1393196007
C  C113  1  0.90200000  0.42040000  0.59072000  1.0 0.0792824218
C  C114  1  0.90090000  0.45470000  0.63498000  1.0 0.0611111195
C  C115  1  0.91820000  0.41290000  0.64890000  1.0 -0.1497653972
C  C116  1  0.99370000  0.27640000  0.71619000  1.0 0.0419351631
C  C117  1  0.02550000  0.31500000  0.73197000  1.0 -0.1393196007
C  C118  1  0.05640000  0.30880000  0.76034000  1.0 0.0706754692
C  C119  1  0.02780000  0.23040000  0.75787000  1.0 0.089402996
C  C120  1  0.99640000  0.23360000  0.72916000  1.0 -0.1393196007
C  C121  1  0.42070000  0.06950000  0.77200000  1.0 0.0176817214
C  C122  1  0.51870000  0.06170000  0.77350000  1.0 -0.1305754129
C  C123  1  0.56370000  0.05850000  0.80030000  1.0 -0.0700603113
C  C124  1  0.51100000  0.06310000  0.82570000  1.0 -0.0700603113
C  C125  1  0.41270000  0.07090000  0.82420000  1.0 -0.0974688129
C  C126  1  0.36760000  0.07410000  0.79740000  1.0 -0.1497653972
C  C127  1  0.01910000  0.06120000  0.52897000  1.0 0.0706754692
C  C128  1  0.07280000  0.07050000  0.50465000  1.0 -0.1393196007
C  C129  1  0.03060000  0.09270000  0.48096000  1.0 0.0419351631
C  C130  1  0.93710000  0.10300000  0.48254000  1.0 -0.1305754129
C  C131  1  0.88190000  0.09110000  0.50807000  1.0 0.089402996
C  C132  1  0.08520000  0.10360000  0.45423000  1.0 0.3697838393
C  C133  1  0.22490000  0.10190000  0.42927000  1.0 0.3872869043
C  C134  1  0.09090000  0.13400000  0.40956000  1.0 0.3697838393
C  C135  1  0.32540000  0.08650000  0.42578000  1.0 0.0419351631
C  C136  1  0.36850000  0.06010000  0.44802000  1.0 -0.1393196007
C  C137  1  0.46030000  0.04480000  0.44399000  1.0 0.0792824218
C  C138  1  0.46850000  0.07840000  0.39944000  1.0 0.0706754692
C  C139  1  0.37710000  0.09550000  0.40198000  1.0 -0.1497653972
C  C140  1  0.04030000  0.15640000  0.38496000  1.0 0.0504075253
C  C141  1  0.09150000  0.17880000  0.36238000  1.0 -0.1497653972
C  C142  1  0.03870000  0.20140000  0.34103000  1.0 0.089402996
C  C143  1  0.89780000  0.17780000  0.36149000  1.0 0.0706754692
C  C144  1  0.94370000  0.15630000  0.38358000  1.0 -0.1393196007
C  C145  1  0.12010000  0.33440000  0.08117000  1.0 0.0792824218
C  C146  1  0.10470000  0.29370000  0.09554000  1.0 -0.1654576755
C  C147  1  0.08020000  0.29590000  0.12484000  1.0 0.0611111195
C  C148  1  0.07070000  0.34010000  0.13732000  1.0 -0.1497653972
C  C149  1  0.08520000  0.37870000  0.12078000  1.0 0.0706754692
C  C150  1  0.06800000  0.25250000  0.14210000  1.0 0.3697838393
C  C151  1  0.06510000  0.17450000  0.14572000  1.0 0.3697838393
C  C152  1  0.03490000  0.21910000  0.18551000  1.0 0.3802657379
C  C153  1  0.07690000  0.12880000  0.13238000  1.0 0.0504075253
C  C154  1  0.08510000  0.12350000  0.10226000  1.0 -0.1393196007
C  C155  1  0.09800000  0.07960000  0.09072000  1.0 0.0792824218
C  C156  1  0.09910000  0.04530000  0.13498000  1.0 0.0611111195
C  C157  1  0.08180000  0.08710000  0.14890000  1.0 -0.1497653972
C  C158  1  0.00630000  0.22360000  0.21619000  1.0 0.0419351631
C  C159  1  0.97450000  0.18500000  0.23197000  1.0 -0.1393196007
C  C160  1  0.94360000  0.19120000  0.26034000  1.0 0.0706754692
C  C161  1  0.97220000  0.26960000  0.25787000  1.0 0.089402996
C  C162  1  0.00360000  0.26640000  0.22916000  1.0 -0.1393196007
C  C163  1  0.57930000  0.43050000  0.27200000  1.0 0.0176817214
C  C164  1  0.48130000  0.43830000  0.27350000  1.0 -0.1305754129
C  C165  1  0.43630000  0.44150000  0.30030000  1.0 -0.0700603113
C  C166  1  0.48900000  0.43690000  0.32570000  1.0 -0.0700603113
C  C167  1  0.58730000  0.42910000  0.32420000  1.0 -0.0974688129
C  C168  1  0.63240000  0.42590000  0.29740000  1.0 -0.1497653972
C  C169  1  0.51910000  0.43880000  0.52897000  1.0 0.0706754692
C  C170  1  0.57280000  0.42950000  0.50465000  1.0 -0.1393196007
C  C171  1  0.53060000  0.40730000  0.48096000  1.0 0.0419351631
C  C172  1  0.43710000  0.39700000  0.48254000  1.0 -0.1305754129
C  C173  1  0.38190000  0.40890000  0.50807000  1.0 0.089402996
C  C174  1  0.58520000  0.39640000  0.45423000  1.0 0.3697838393
C  C175  1  0.72490000  0.39810000  0.42927000  1.0 0.3872869043
C  C176  1  0.59090000  0.36600000  0.40956000  1.0 0.3697838393
C  C177  1  0.82540000  0.41350000  0.42578000  1.0 0.0419351631
C  C178  1  0.86850000  0.43990000  0.44802000  1.0 -0.1393196007
C  C179  1  0.96030000  0.45520000  0.44399000  1.0 0.0792824218
C  C180  1  0.96850000  0.42160000  0.39944000  1.0 0.0706754692
C  C181  1  0.87710000  0.40450000  0.40198000  1.0 -0.1497653972
C  C182  1  0.54030000  0.34360000  0.38496000  1.0 0.0504075253
C  C183  1  0.59150000  0.32120000  0.36238000  1.0 -0.1497653972
C  C184  1  0.53870000  0.29860000  0.34103000  1.0 0.089402996
C  C185  1  0.39780000  0.32220000  0.36149000  1.0 0.0706754692
C  C186  1  0.44370000  0.34370000  0.38358000  1.0 -0.1393196007
C  C187  1  0.62010000  0.16560000  0.08117000  1.0 0.0792824218
C  C188  1  0.60470000  0.20630000  0.09554000  1.0 -0.158856167
C  C189  1  0.58020000  0.20410000  0.12484000  1.0 0.0611111195
C  C190  1  0.57070000  0.15990000  0.13732000  1.0 -0.1497653972
C  C191  1  0.58520000  0.12130000  0.12078000  1.0 0.0706754692
C  C192  1  0.56800000  0.24750000  0.14210000  1.0 0.3697838393
C  C193  1  0.56510000  0.32550000  0.14572000  1.0 0.3697838393
C  C194  1  0.53490000  0.28090000  0.18551000  1.0 0.3802657379
C  C195  1  0.57690000  0.37120000  0.13238000  1.0 0.0504075253
C  C196  1  0.58510000  0.37650000  0.10226000  1.0 -0.1393196007
C  C197  1  0.59800000  0.42040000  0.09072000  1.0 0.0792824218
C  C198  1  0.59910000  0.45470000  0.13498000  1.0 0.0611111195
C  C199  1  0.58180000  0.41290000  0.14890000  1.0 -0.1497653972
C  C200  1  0.50630000  0.27640000  0.21619000  1.0 0.0419351631
C  C201  1  0.47450000  0.31500000  0.23197000  1.0 -0.1393196007
C  C202  1  0.44360000  0.30880000  0.26034000  1.0 0.0706754692
C  C203  1  0.47220000  0.23040000  0.25787000  1.0 0.089402996
C  C204  1  0.50360000  0.23360000  0.22916000  1.0 -0.1393196007
C  C205  1  0.07930000  0.06950000  0.27200000  1.0 0.0176817214
C  C206  1  0.98130000  0.06170000  0.27350000  1.0 -0.1305754129
C  C207  1  0.93630000  0.05850000  0.30030000  1.0 -0.0700603113
C  C208  1  0.98900000  0.06310000  0.32570000  1.0 -0.0700603113
C  C209  1  0.08730000  0.07090000  0.32420000  1.0 -0.0974688129
C  C210  1  0.13240000  0.07410000  0.29740000  1.0 -0.1497653972
C  C211  1  0.48090000  0.06120000  0.02897000  1.0 0.0706754692
C  C212  1  0.42720000  0.07050000  0.00465000  1.0 -0.1393196007
C  C213  1  0.46940000  0.09270000  0.98096000  1.0 0.0419351631
C  C214  1  0.56290000  0.10300000  0.98254000  1.0 -0.1305754129
C  C215  1  0.61810000  0.09110000  0.00807000  1.0 0.089402996
C  C216  1  0.41480000  0.10360000  0.95423000  1.0 0.3697838393
C  C217  1  0.27510000  0.10190000  0.92927000  1.0 0.3872869043
C  C218  1  0.40910000  0.13400000  0.90956000  1.0 0.3697838393
C  C219  1  0.17460000  0.08650000  0.92578000  1.0 0.0419351631
C  C220  1  0.13150000  0.06010000  0.94802000  1.0 -0.1393196007
C  C221  1  0.03970000  0.04480000  0.94399000  1.0 0.0792824218
C  C222  1  0.03150000  0.07840000  0.89944000  1.0 0.0706754692
C  C223  1  0.12290000  0.09550000  0.90198000  1.0 -0.1497653972
C  C224  1  0.45970000  0.15640000  0.88496000  1.0 0.0504075253
C  C225  1  0.40850000  0.17880000  0.86238000  1.0 -0.1497653972
C  C226  1  0.46130000  0.20140000  0.84103000  1.0 0.089402996
C  C227  1  0.60220000  0.17780000  0.86149000  1.0 0.0706754692
C  C228  1  0.55630000  0.15630000  0.88358000  1.0 -0.1393196007
C  C229  1  0.37990000  0.33440000  0.58117000  1.0 0.0792824218
C  C230  1  0.39530000  0.29370000  0.59554000  1.0 -0.1654576755
C  C231  1  0.41980000  0.29590000  0.62484000  1.0 0.0611111195
C  C232  1  0.42930000  0.34010000  0.63732000  1.0 -0.1497653972
C  C233  1  0.41480000  0.37870000  0.62078000  1.0 0.0706754692
C  C234  1  0.43200000  0.25250000  0.64210000  1.0 0.3697838393
C  C235  1  0.43490000  0.17450000  0.64572000  1.0 0.3697838393
C  C236  1  0.46510000  0.21910000  0.68551000  1.0 0.3802657379
C  C237  1  0.42310000  0.12880000  0.63238000  1.0 0.0504075253
C  C238  1  0.41490000  0.12350000  0.60226000  1.0 -0.1393196007
C  C239  1  0.40200000  0.07960000  0.59072000  1.0 0.0792824218
C  C240  1  0.40090000  0.04530000  0.63498000  1.0 0.0611111195
C  C241  1  0.41820000  0.08710000  0.64890000  1.0 -0.1497653972
C  C242  1  0.49370000  0.22360000  0.71619000  1.0 0.0419351631
C  C243  1  0.52550000  0.18500000  0.73197000  1.0 -0.1393196007
C  C244  1  0.55640000  0.19120000  0.76034000  1.0 0.0706754692
C  C245  1  0.52780000  0.26960000  0.75787000  1.0 0.089402996
C  C246  1  0.49640000  0.26640000  0.72916000  1.0 -0.1393196007
C  C247  1  0.92070000  0.43050000  0.77200000  1.0 0.0176817214
C  C248  1  0.01870000  0.43830000  0.77350000  1.0 -0.1305754129
C  C249  1  0.06370000  0.44150000  0.80030000  1.0 -0.0700603113
C  C250  1  0.01100000  0.43690000  0.82570000  1.0 -0.0700603113
C  C251  1  0.91270000  0.42910000  0.82420000  1.0 -0.0974688129
C  C252  1  0.86760000  0.42590000  0.79740000  1.0 -0.1497653972
C  C253  1  0.01910000  0.56120000  0.97103000  1.0 0.0706754692
C  C254  1  0.07280000  0.57050000  0.99535000  1.0 -0.1393196007
C  C255  1  0.03060000  0.59270000  0.01904000  1.0 0.0419351631
C  C256  1  0.93710000  0.60300000  0.01746000  1.0 -0.1305754129
C  C257  1  0.88190000  0.59110000  0.99193000  1.0 0.089402996
C  C258  1  0.08520000  0.60360000  0.04577000  1.0 0.3697838393
C  C259  1  0.22490000  0.60190000  0.07073000  1.0 0.3872869043
C  C260  1  0.09090000  0.63400000  0.09044000  1.0 0.3697838393
C  C261  1  0.32540000  0.58650000  0.07422000  1.0 0.0504075253
C  C262  1  0.36850000  0.56010000  0.05198000  1.0 -0.1393196007
C  C263  1  0.46030000  0.54480000  0.05601000  1.0 0.0792824218
C  C264  1  0.46850000  0.57840000  0.10056000  1.0 0.0706754692
C  C265  1  0.37710000  0.59550000  0.09802000  1.0 -0.1497653972
C  C266  1  0.04030000  0.65640000  0.11504000  1.0 0.0504075253
C  C267  1  0.09150000  0.67880000  0.13762000  1.0 -0.1497653972
C  C268  1  0.03870000  0.70140000  0.15897000  1.0 0.089402996
C  C269  1  0.89780000  0.67780000  0.13851000  1.0 0.0706754692
C  C270  1  0.94370000  0.65630000  0.11642000  1.0 -0.1393196007
C  C271  1  0.12010000  0.83440000  0.41883000  1.0 0.0792824218
C  C272  1  0.10470000  0.79370000  0.40446000  1.0 -0.1654576755
C  C273  1  0.08020000  0.79590000  0.37516000  1.0 0.0611111195
C  C274  1  0.07070000  0.84010000  0.36268000  1.0 -0.1497653972
C  C275  1  0.08520000  0.87870000  0.37922000  1.0 0.0611111195
C  C276  1  0.06800000  0.75250000  0.35790000  1.0 0.3697838393
C  C277  1  0.06510000  0.67450000  0.35428000  1.0 0.3697838393
C  C278  1  0.03490000  0.71910000  0.31449000  1.0 0.3802657379
C  C279  1  0.07690000  0.62880000  0.36762000  1.0 0.0504075253
C  C280  1  0.08510000  0.62350000  0.39774000  1.0 -0.1393196007
C  C281  1  0.09800000  0.57960000  0.40928000  1.0 0.0792824218
C  C282  1  0.09910000  0.54530000  0.36502000  1.0 0.0611111195
C  C283  1  0.08180000  0.58710000  0.35110000  1.0 -0.1497653972
C  C284  1  0.00630000  0.72360000  0.28381000  1.0 0.0419351631
C  C285  1  0.97450000  0.68500000  0.26803000  1.0 -0.1393196007
C  C286  1  0.94360000  0.69120000  0.23966000  1.0 0.0706754692
C  C287  1  0.97220000  0.76960000  0.24213000  1.0 0.089402996
C  C288  1  0.00360000  0.76640000  0.27084000  1.0 -0.1393196007
C  C289  1  0.57930000  0.93050000  0.22800000  1.0 0.0176817214
C  C290  1  0.48130000  0.93830000  0.22650000  1.0 -0.1305754129
C  C291  1  0.43630000  0.94150000  0.19970000  1.0 -0.0700603113
C  C292  1  0.48900000  0.93690000  0.17430000  1.0 -0.0700603113
C  C293  1  0.58730000  0.92910000  0.17580000  1.0 -0.0974688129
C  C294  1  0.63240000  0.92590000  0.20260000  1.0 -0.1497653972
C  C295  1  0.98090000  0.93880000  0.47103000  1.0 0.0706754692
C  C296  1  0.92720000  0.92950000  0.49535000  1.0 -0.1393196007
C  C297  1  0.96940000  0.90730000  0.51904000  1.0 0.0419351631
C  C298  1  0.06290000  0.89700000  0.51746000  1.0 -0.1305754129
C  C299  1  0.11810000  0.90890000  0.49193000  1.0 0.089402996
C  C300  1  0.91480000  0.89640000  0.54577000  1.0 0.3697838393
C  C301  1  0.77510000  0.89810000  0.57073000  1.0 0.3872869043
C  C302  1  0.90910000  0.86600000  0.59044000  1.0 0.3697838393
C  C303  1  0.67460000  0.91350000  0.57422000  1.0 0.0504075253
C  C304  1  0.63150000  0.93990000  0.55198000  1.0 -0.1393196007
C  C305  1  0.53970000  0.95520000  0.55601000  1.0 0.0792824218
C  C306  1  0.53150000  0.92160000  0.60056000  1.0 0.0706754692
C  C307  1  0.62290000  0.90450000  0.59802000  1.0 -0.1497653972
C  C308  1  0.95970000  0.84360000  0.61504000  1.0 0.0504075253
C  C309  1  0.90850000  0.82120000  0.63762000  1.0 -0.158856167
C  C310  1  0.96130000  0.79860000  0.65897000  1.0 0.089402996
C  C311  1  0.10220000  0.82220000  0.63851000  1.0 0.0706754692
C  C312  1  0.05630000  0.84370000  0.61642000  1.0 -0.1393196007
C  C313  1  0.87990000  0.66560000  0.91883000  1.0 0.0792824218
C  C314  1  0.89530000  0.70630000  0.90446000  1.0 -0.1654576755
C  C315  1  0.91980000  0.70410000  0.87516000  1.0 0.0611111195
C  C316  1  0.92930000  0.65990000  0.86268000  1.0 -0.1497653972
C  C317  1  0.91480000  0.62130000  0.87922000  1.0 0.0706754692
C  C318  1  0.93200000  0.74750000  0.85790000  1.0 0.3697838393
C  C319  1  0.93490000  0.82550000  0.85428000  1.0 0.3697838393
C  C320  1  0.96510000  0.78090000  0.81449000  1.0 0.3802657379
C  C321  1  0.92310000  0.87120000  0.86762000  1.0 0.0504075253
C  C322  1  0.91490000  0.87650000  0.89774000  1.0 -0.1497653972
C  C323  1  0.90200000  0.92040000  0.90928000  1.0 0.0792824218
C  C324  1  0.90090000  0.95470000  0.86502000  1.0 0.0611111195
C  C325  1  0.91820000  0.91290000  0.85110000  1.0 -0.1497653972
C  C326  1  0.99370000  0.77640000  0.78381000  1.0 0.0419351631
C  C327  1  0.02550000  0.81500000  0.76803000  1.0 -0.1393196007
C  C328  1  0.05640000  0.80880000  0.73966000  1.0 0.0706754692
C  C329  1  0.02780000  0.73040000  0.74213000  1.0 0.089402996
C  C330  1  0.99640000  0.73360000  0.77084000  1.0 -0.1393196007
C  C331  1  0.42070000  0.56950000  0.72800000  1.0 0.0176817214
C  C332  1  0.51870000  0.56170000  0.72650000  1.0 -0.1305754129
C  C333  1  0.56370000  0.55850000  0.69970000  1.0 -0.0700603113
C  C334  1  0.51100000  0.56310000  0.67430000  1.0 -0.0700603113
C  C335  1  0.41270000  0.57090000  0.67580000  1.0 -0.0974688129
C  C336  1  0.36760000  0.57410000  0.70260000  1.0 -0.1497653972
I  I1  1  0.56771000  0.49621000  0.40319000  1.0 -0.2966236305
I  I2  1  0.82600000  0.57213000  0.44140000  1.0 -0.41114369
I  I3  1  0.76812000  0.56830000  0.62560000  1.0 -0.443743539
I  I4  1  0.78550000  0.50467000  0.53713000  1.0 -0.4721854823
I  I5  1  0.79556000  0.70105000  0.69531000  1.0 -0.4573692949
I  I6  1  0.63086000  0.82587000  0.67270000  1.0 -0.3198638716
I  I7  1  0.83400000  0.54300000  0.36960000  1.0 0.0419351631
I  I8  1  0.87400000  0.55010000  0.30940000  1.0 -0.0186533176
I  I9  1  0.74010000  0.87770000  0.71910000  1.0 0.0792824218
I  I10  1  0.84810000  0.92210000  0.76320000  1.0 0.3090063486
I  I11  1  0.73770000  0.49590000  0.36310000  1.0 0.0504075253
I  I12  1  0.89600000  0.49550000  0.32580000  1.0 -0.0186533176
I  I13  1  0.43229000  0.00379000  0.90319000  1.0 -0.2946248548
I  I14  1  0.17400000  0.92787000  0.94140000  1.0 -0.41114369
I  I15  1  0.23188000  0.93170000  0.12560000  1.0 -0.443743539
I  I16  1  0.21450000  0.99533000  0.03713000  1.0 -0.4721854823
I  I17  1  0.20444000  0.79895000  0.19531000  1.0 -0.4573692949
I  I18  1  0.36914000  0.67413000  0.17270000  1.0 -0.3198638716
I  I19  1  0.16600000  0.95700000  0.86960000  1.0 0.0419351631
I  I20  1  0.12600000  0.94990000  0.80940000  1.0 -0.0186533176
I  I21  1  0.25990000  0.62230000  0.21910000  1.0 0.0792824218
I  I22  1  0.15190000  0.57790000  0.26320000  1.0 0.3090063486
I  I23  1  0.26230000  0.00410000  0.86310000  1.0 0.0504075253
I  I24  1  0.10400000  0.00450000  0.82580000  1.0 -0.0186533176
I  I25  1  0.06771000  0.50379000  0.09681000  1.0 -0.2966236305
I  I26  1  0.32600000  0.42787000  0.05860000  1.0 -0.4153817193
I  I27  1  0.26812000  0.43170000  0.87440000  1.0 -0.443743539
I  I28  1  0.28550000  0.49533000  0.96287000  1.0 -0.4721854823
I  I29  1  0.29556000  0.29895000  0.80469000  1.0 -0.4573692949
I  I30  1  0.13086000  0.17413000  0.82730000  1.0 -0.3198638716
I  I31  1  0.33400000  0.45700000  0.13040000  1.0 0.0419351631
I  I32  1  0.37400000  0.44990000  0.19060000  1.0 -0.0186533176
I  I33  1  0.24010000  0.12230000  0.78090000  1.0 0.089402996
I  I34  1  0.34810000  0.07790000  0.73680000  1.0 0.3090063486
I  I35  1  0.23770000  0.50410000  0.13690000  1.0 0.0504075253
I  I36  1  0.39600000  0.50450000  0.17420000  1.0 -0.0186533176
I  I37  1  0.93229000  0.99621000  0.59681000  1.0 -0.2966236305
I  I38  1  0.67400000  0.07213000  0.55860000  1.0 -0.41114369
I  I39  1  0.73188000  0.06830000  0.37440000  1.0 -0.443743539
I  I40  1  0.71450000  0.00467000  0.46287000  1.0 -0.4721854823
I  I41  1  0.70444000  0.20105000  0.30469000  1.0 -0.4573692949
I  I42  1  0.86914000  0.32587000  0.32730000  1.0 -0.3198638716
I  I43  1  0.66600000  0.04300000  0.63040000  1.0 0.0419351631
I  I44  1  0.62600000  0.05010000  0.69060000  1.0 -0.0186533176
I  I45  1  0.75990000  0.37770000  0.28090000  1.0 0.089402996
I  I46  1  0.65190000  0.42210000  0.23680000  1.0 0.2993876739
I  I47  1  0.76230000  0.99590000  0.63690000  1.0 0.0504075253
I  I48  1  0.60400000  0.99550000  0.67420000  1.0 -0.0186533176
I  I49  1  0.43229000  0.50379000  0.59681000  1.0 -0.2966236305
I  I50  1  0.17400000  0.42787000  0.55860000  1.0 -0.41114369
I  I51  1  0.23188000  0.43170000  0.37440000  1.0 -0.443743539
I  I52  1  0.21450000  0.49533000  0.46287000  1.0 -0.4721854823
I  I53  1  0.20444000  0.29895000  0.30469000  1.0 -0.4573692949
I  I54  1  0.36914000  0.17413000  0.32730000  1.0 -0.3198638716
I  I55  1  0.16600000  0.45700000  0.63040000  1.0 0.0419351631
I  I56  1  0.12600000  0.44990000  0.69060000  1.0 -0.0186533176
I  I57  1  0.25990000  0.12230000  0.28090000  1.0 0.089402996
I  I58  1  0.15190000  0.07790000  0.23680000  1.0 0.3090063486
I  I59  1  0.26230000  0.50410000  0.63690000  1.0 0.0504075253
I  I60  1  0.10400000  0.50450000  0.67420000  1.0 -0.0186533176
I  I61  1  0.56771000  0.99621000  0.09681000  1.0 -0.2966236305
I  I62  1  0.82600000  0.07213000  0.05860000  1.0 -0.41114369
I  I63  1  0.76812000  0.06830000  0.87440000  1.0 -0.443743539
I  I64  1  0.78550000  0.00467000  0.96287000  1.0 -0.4721854823
I  I65  1  0.79556000  0.20105000  0.80469000  1.0 -0.4573692949
I  I66  1  0.63086000  0.32587000  0.82730000  1.0 -0.3198638716
I  I67  1  0.83400000  0.04300000  0.13040000  1.0 0.0419351631
I  I68  1  0.87400000  0.05010000  0.19060000  1.0 -0.0186533176
I  I69  1  0.74010000  0.37770000  0.78090000  1.0 0.089402996
I  I70  1  0.84810000  0.42210000  0.73680000  1.0 0.2993876739
I  I71  1  0.73770000  0.99590000  0.13690000  1.0 0.0504075253
I  I72  1  0.89600000  0.99550000  0.17420000  1.0 -0.0186533176
I  I73  1  0.93229000  0.49621000  0.90319000  1.0 -0.2966236305
I  I74  1  0.67400000  0.57213000  0.94140000  1.0 -0.41114369
I  I75  1  0.73188000  0.56830000  0.12560000  1.0 -0.443743539
I  I76  1  0.71450000  0.50467000  0.03713000  1.0 -0.4721854823
I  I77  1  0.70444000  0.70105000  0.19531000  1.0 -0.4573692949
I  I78  1  0.86914000  0.82587000  0.17270000  1.0 -0.3198638716
I  I79  1  0.66600000  0.54300000  0.86960000  1.0 0.0419351631
I  I80  1  0.62600000  0.55010000  0.80940000  1.0 -0.0186533176
I  I81  1  0.75990000  0.87770000  0.21910000  1.0 0.0792824218
I  I82  1  0.65190000  0.92210000  0.26320000  1.0 0.3090063486
I  I83  1  0.76230000  0.49590000  0.86310000  1.0 0.0504075253
I  I84  1  0.60400000  0.49550000  0.82580000  1.0 -0.0186533176
I  I85  1  0.06771000  0.00379000  0.40319000  1.0 -0.2946248548
I  I86  1  0.32600000  0.92787000  0.44140000  1.0 -0.41114369
I  I87  1  0.26812000  0.93170000  0.62560000  1.0 -0.443743539
I  I88  1  0.28550000  0.99533000  0.53713000  1.0 -0.4721854823
I  I89  1  0.29556000  0.79895000  0.69531000  1.0 -0.4573692949
I  I90  1  0.13086000  0.67413000  0.67270000  1.0 -0.3198638716
I  I91  1  0.33400000  0.95700000  0.36960000  1.0 0.0419351631
I  I92  1  0.37400000  0.94990000  0.30940000  1.0 -0.0186533176
I  I93  1  0.24010000  0.62230000  0.71910000  1.0 0.0792824218
I  I94  1  0.34810000  0.57790000  0.76320000  1.0 0.3090063486
I  I95  1  0.23770000  0.00410000  0.36310000  1.0 0.0504075253
I  I96  1  0.39600000  0.00450000  0.32580000  1.0 -0.0186533176
N  N1  1  0.57470000  0.57250000  0.46864000  1.0 -0.1899130297
N  N2  1  0.32220000  0.59140000  0.54612000  1.0 -0.3867359059
N  N3  1  0.31580000  0.62370000  0.59339000  1.0 -0.3867359059
N  N4  1  0.45950000  0.62437000  0.56716000  1.0 -0.3810367422
N  N5  1  0.99020000  0.55210000  0.58040000  1.0 -0.1799506857
N  N6  1  0.55620000  0.70100000  0.65943000  1.0 -0.1899130297
N  N7  1  0.38880000  0.87669000  0.90708000  1.0 -0.1799506857
N  N8  1  0.42280000  0.71226000  0.87103000  1.0 -0.3973756393
N  N9  1  0.45650000  0.67585000  0.82569000  1.0 -0.3973756393
N  N10  1  0.45430000  0.75829000  0.82957000  1.0 -0.41114369
N  N11  1  0.39240000  0.54110000  0.89360000  1.0 -0.1799506857
N  N12  1  0.55850000  0.73341000  0.72743000  1.0 -0.1799506857
N  N13  1  0.87790000  0.92760000  0.75360000  1.0 -0.0295833401
N  N14  1  0.42530000  0.92750000  0.96864000  1.0 -0.1899130297
N  N15  1  0.67780000  0.90860000  0.04612000  1.0 -0.3867359059
N  N16  1  0.68420000  0.87630000  0.09339000  1.0 -0.3810367422
N  N17  1  0.54050000  0.87563000  0.06716000  1.0 -0.3810367422
N  N18  1  0.00980000  0.94790000  0.08040000  1.0 -0.1799506857
N  N19  1  0.44380000  0.79900000  0.15943000  1.0 -0.1899130297
N  N20  1  0.61120000  0.62331000  0.40708000  1.0 -0.1799506857
N  N21  1  0.57720000  0.78774000  0.37103000  1.0 -0.3973756393
N  N22  1  0.54350000  0.82415000  0.32569000  1.0 -0.3973756393
N  N23  1  0.54570000  0.74171000  0.32957000  1.0 -0.41114369
N  N24  1  0.60760000  0.95890000  0.39360000  1.0 -0.1799506857
N  N25  1  0.44150000  0.76659000  0.22743000  1.0 -0.1799506857
N  N26  1  0.12210000  0.57240000  0.25360000  1.0 -0.0295833401
N  N27  1  0.07470000  0.42750000  0.03136000  1.0 -0.1899130297
N  N28  1  0.82220000  0.40860000  0.95388000  1.0 -0.3810367422
N  N29  1  0.81580000  0.37630000  0.90661000  1.0 -0.3867359059
N  N30  1  0.95950000  0.37563000  0.93284000  1.0 -0.3747213678
N  N31  1  0.49020000  0.44790000  0.91960000  1.0 -0.1799506857
N  N32  1  0.05620000  0.29900000  0.84057000  1.0 -0.1899130297
N  N33  1  0.88880000  0.12331000  0.59292000  1.0 -0.1799506857
N  N34  1  0.92280000  0.28774000  0.62897000  1.0 -0.3973756393
N  N35  1  0.95650000  0.32415000  0.67431000  1.0 -0.3973756393
N  N36  1  0.95430000  0.24171000  0.67043000  1.0 -0.41114369
N  N37  1  0.89240000  0.45890000  0.60640000  1.0 -0.1799506857
N  N38  1  0.05850000  0.26659000  0.77257000  1.0 -0.1799506857
N  N39  1  0.37790000  0.07240000  0.74640000  1.0 -0.0295833401
N  N40  1  0.92530000  0.07250000  0.53136000  1.0 -0.1899130297
N  N41  1  0.17780000  0.09140000  0.45388000  1.0 -0.3810367422
N  N42  1  0.18420000  0.12370000  0.40661000  1.0 -0.3867359059
N  N43  1  0.04050000  0.12437000  0.43284000  1.0 -0.3747213678
N  N44  1  0.50980000  0.05210000  0.41960000  1.0 -0.1799506857
N  N45  1  0.94380000  0.20100000  0.34057000  1.0 -0.1899130297
N  N46  1  0.11120000  0.37669000  0.09292000  1.0 -0.1799506857
N  N47  1  0.07720000  0.21226000  0.12897000  1.0 -0.3973756393
N  N48  1  0.04350000  0.17585000  0.17431000  1.0 -0.3867359059
N  N49  1  0.04570000  0.25829000  0.17043000  1.0 -0.41114369
N  N50  1  0.10760000  0.04110000  0.10640000  1.0 -0.1799506857
N  N51  1  0.94150000  0.23341000  0.27257000  1.0 -0.1799506857
N  N52  1  0.62210000  0.42760000  0.24640000  1.0 -0.0186533176
N  N53  1  0.42530000  0.42750000  0.53136000  1.0 -0.1899130297
N  N54  1  0.67780000  0.40860000  0.45388000  1.0 -0.3810367422
N  N55  1  0.68420000  0.37630000  0.40661000  1.0 -0.3867359059
N  N56  1  0.54050000  0.37563000  0.43284000  1.0 -0.3747213678
N  N57  1  0.00980000  0.44790000  0.41960000  1.0 -0.1799506857
N  N58  1  0.44380000  0.29900000  0.34057000  1.0 -0.1899130297
N  N59  1  0.61120000  0.12331000  0.09292000  1.0 -0.1799506857
N  N60  1  0.57720000  0.28774000  0.12897000  1.0 -0.3973756393
N  N61  1  0.54350000  0.32415000  0.17431000  1.0 -0.3973756393
N  N62  1  0.54570000  0.24171000  0.17043000  1.0 -0.41114369
N  N63  1  0.60760000  0.45890000  0.10640000  1.0 -0.1799506857
N  N64  1  0.44150000  0.26659000  0.27257000  1.0 -0.1799506857
N  N65  1  0.12210000  0.07240000  0.24640000  1.0 -0.0295833401
N  N66  1  0.57470000  0.07250000  0.03136000  1.0 -0.1899130297
N  N67  1  0.32220000  0.09140000  0.95388000  1.0 -0.3810367422
N  N68  1  0.31580000  0.12370000  0.90661000  1.0 -0.3867359059
N  N69  1  0.45950000  0.12437000  0.93284000  1.0 -0.3747213678
N  N70  1  0.99020000  0.05210000  0.91960000  1.0 -0.1799506857
N  N71  1  0.55620000  0.20100000  0.84057000  1.0 -0.1899130297
N  N72  1  0.38880000  0.37669000  0.59292000  1.0 -0.1799506857
N  N73  1  0.42280000  0.21226000  0.62897000  1.0 -0.3973756393
N  N74  1  0.45650000  0.17585000  0.67431000  1.0 -0.3867359059
N  N75  1  0.45430000  0.25829000  0.67043000  1.0 -0.41114369
N  N76  1  0.39240000  0.04110000  0.60640000  1.0 -0.1799506857
N  N77  1  0.55850000  0.23341000  0.77257000  1.0 -0.1799506857
N  N78  1  0.87790000  0.42760000  0.74640000  1.0 -0.0186533176
N  N79  1  0.92530000  0.57250000  0.96864000  1.0 -0.1899130297
N  N80  1  0.17780000  0.59140000  0.04612000  1.0 -0.3867359059
N  N81  1  0.18420000  0.62370000  0.09339000  1.0 -0.3810367422
N  N82  1  0.04050000  0.62437000  0.06716000  1.0 -0.3810367422
N  N83  1  0.50980000  0.55210000  0.08040000  1.0 -0.1799506857
N  N84  1  0.94380000  0.70100000  0.15943000  1.0 -0.1899130297
N  N85  1  0.11120000  0.87669000  0.40708000  1.0 -0.1799506857
N  N86  1  0.07720000  0.71226000  0.37103000  1.0 -0.3973756393
N  N87  1  0.04350000  0.67585000  0.32569000  1.0 -0.3973756393
N  N88  1  0.04570000  0.75829000  0.32957000  1.0 -0.41114369
N  N89  1  0.10760000  0.54110000  0.39360000  1.0 -0.1799506857
N  N90  1  0.94150000  0.73341000  0.22743000  1.0 -0.1799506857
N  N91  1  0.62210000  0.92760000  0.25360000  1.0 -0.0295833401
N  N92  1  0.07470000  0.92750000  0.46864000  1.0 -0.1899130297
N  N93  1  0.82220000  0.90860000  0.54612000  1.0 -0.3867359059
N  N94  1  0.81580000  0.87630000  0.59339000  1.0 -0.3867359059
N  N95  1  0.95950000  0.87563000  0.56716000  1.0 -0.3810367422
N  N96  1  0.49020000  0.94790000  0.58040000  1.0 -0.1799506857
N  N97  1  0.05620000  0.79900000  0.65943000  1.0 -0.1899130297
N  N98  1  0.88880000  0.62331000  0.90708000  1.0 -0.1799506857
N  N99  1  0.92280000  0.78774000  0.87103000  1.0 -0.3973756393
N  N100  1  0.95650000  0.82415000  0.82569000  1.0 -0.3973756393
N  N101  1  0.95430000  0.74171000  0.82957000  1.0 -0.41114369
N  N102  1  0.89240000  0.95890000  0.89360000  1.0 -0.1799506857
N  N103  1  0.05850000  0.76659000  0.72743000  1.0 -0.1799506857
N  N104  1  0.37790000  0.57240000  0.75360000  1.0 -0.0295833401
O  O1  1  0.78720000  0.92040000  0.75490000  1.0 -0.261116934
O  O2  1  0.92960000  0.93210000  0.77650000  1.0 -0.2966236305
O  O3  1  0.21280000  0.57960000  0.25490000  1.0 -0.261116934
O  O4  1  0.07040000  0.56790000  0.27650000  1.0 -0.2966236305
O  O5  1  0.28720000  0.07960000  0.74510000  1.0 -0.261116934
O  O6  1  0.42960000  0.06790000  0.72350000  1.0 -0.2966236305
O  O7  1  0.71280000  0.42040000  0.24510000  1.0 -0.261116934
O  O8  1  0.57040000  0.43210000  0.22350000  1.0 -0.2966236305
O  O9  1  0.21280000  0.07960000  0.24510000  1.0 -0.261116934
O  O10  1  0.07040000  0.06790000  0.22350000  1.0 -0.2966236305
O  O11  1  0.78720000  0.42040000  0.74510000  1.0 -0.261116934
O  O12  1  0.92960000  0.43210000  0.72350000  1.0 -0.2966236305
O  O13  1  0.71280000  0.92040000  0.25490000  1.0 -0.261116934
O  O14  1  0.57040000  0.93210000  0.27650000  1.0 -0.2966236305
O  O15  1  0.28720000  0.57960000  0.75490000  1.0 -0.261116934
O  O16  1  0.42960000  0.56790000  0.77650000  1.0 -0.2966236305
