# DDEC6 charges by PACMAN v1.1 (https://github.com/mtap-research/PACMAN-charge/)
data_KEVXOB_ASR_pacman
_symmetry_space_group_name_H-M   'P 1'
_cell_length_a   13.95340000
_cell_length_b   28.61850000
_cell_length_c   45.94490000
_cell_angle_alpha   90.00000000
_cell_angle_beta   90.00000000
_cell_angle_gamma   90.00000000
_symmetry_Int_Tables_number   1
_chemical_formula_structural   Zn3H29C42I12N13O2
_chemical_formula_sum   'Zn24 H232 C336 I96 N104 O16'
_cell_volume   18346.96455508
_cell_formula_units_Z   8
loop_
 _symmetry_equiv_pos_site_id
 _symmetry_equiv_pos_as_xyz
  1  'x, y, z'
loop_
 _atom_site_type_symbol
 _atom_site_label
 _atom_site_symmetry_multiplicity
 _atom_site_fract_x
 _atom_site_fract_y
 _atom_site_fract_z
 _atom_site_occupancy
 _atom_site_charge
Zn  Zn1  1  0.64660000  0.56290000  0.43033000  1.0 0.4331385407
Zn  Zn2  1  0.85744000  0.52189000  0.58686000  1.0 0.4622123789
Zn  Zn3  1  0.63333000  0.74089000  0.68852000  1.0 0.440410896
Zn  Zn4  1  0.35340000  0.93710000  0.93033000  1.0 0.4331385407
Zn  Zn5  1  0.14256000  0.97811000  0.08686000  1.0 0.4622123789
Zn  Zn6  1  0.36667000  0.75911000  0.18852000  1.0 0.440410896
Zn  Zn7  1  0.14660000  0.43710000  0.06967000  1.0 0.4331385407
Zn  Zn8  1  0.35744000  0.47811000  0.91314000  1.0 0.4622123789
Zn  Zn9  1  0.13333000  0.25911000  0.81148000  1.0 0.440410896
Zn  Zn10  1  0.85340000  0.06290000  0.56967000  1.0 0.4331385407
Zn  Zn11  1  0.64256000  0.02189000  0.41314000  1.0 0.4622123789
Zn  Zn12  1  0.86667000  0.24089000  0.31148000  1.0 0.440410896
Zn  Zn13  1  0.35340000  0.43710000  0.56967000  1.0 0.4331385407
Zn  Zn14  1  0.14256000  0.47811000  0.41314000  1.0 0.4622123789
Zn  Zn15  1  0.36667000  0.25911000  0.31148000  1.0 0.440410896
Zn  Zn16  1  0.64660000  0.06290000  0.06967000  1.0 0.4331385407
Zn  Zn17  1  0.85744000  0.02189000  0.91314000  1.0 0.4622123789
Zn  Zn18  1  0.63333000  0.24089000  0.81148000  1.0 0.440410896
Zn  Zn19  1  0.85340000  0.56290000  0.93033000  1.0 0.4331385407
Zn  Zn20  1  0.64256000  0.52189000  0.08686000  1.0 0.4622123789
Zn  Zn21  1  0.86667000  0.74089000  0.18852000  1.0 0.440410896
Zn  Zn22  1  0.14660000  0.93710000  0.43033000  1.0 0.4331385407
Zn  Zn23  1  0.35744000  0.97811000  0.58686000  1.0 0.4622123789
Zn  Zn24  1  0.13333000  0.75911000  0.68852000  1.0 0.440410896
H  H1  1  0.45170000  0.54460000  0.45620000  1.0 0.1111099332
H  H2  1  0.36130000  0.56280000  0.49600000  1.0 0.1304917687
H  H3  1  0.59400000  0.61680000  0.53330000  1.0 0.1375915091
H  H4  1  0.68470000  0.59290000  0.49230000  1.0 0.100336888
H  H5  1  0.16500000  0.55160000  0.53500000  1.0 0.1304917687
H  H6  1  0.00960000  0.52810000  0.54090000  1.0 0.1111099332
H  H7  1  0.99720000  0.58450000  0.61750000  1.0 0.1111099332
H  H8  1  0.14870000  0.61250000  0.61380000  1.0 0.1304917687
H  H9  1  0.34270000  0.67710000  0.63800000  1.0 0.1375915091
H  H10  1  0.42820000  0.71790000  0.67340000  1.0 0.1111099332
H  H11  1  0.66890000  0.67620000  0.63950000  1.0 0.1111099332
H  H12  1  0.59150000  0.64170000  0.60170000  1.0 0.1375915091
H  H13  1  0.36550000  0.83260000  0.93870000  1.0 0.1111099332
H  H14  1  0.39000000  0.76600000  0.91440000  1.0 0.1375915091
H  H15  1  0.44610000  0.84280000  0.84350000  1.0 0.1375915091
H  H16  1  0.41950000  0.90710000  0.87060000  1.0 0.100336888
H  H17  1  0.41860000  0.64890000  0.91000000  1.0 0.1304917687
H  H18  1  0.40070000  0.57750000  0.92920000  1.0 0.1111099332
H  H19  1  0.39620000  0.51880000  0.85360000  1.0 0.100336888
H  H20  1  0.42690000  0.58810000  0.83150000  1.0 0.1202626794
H  H21  1  0.52800000  0.65570000  0.77680000  1.0 0.1304917687
H  H22  1  0.57150000  0.66530000  0.72880000  1.0 0.1111099332
H  H23  1  0.52570000  0.79810000  0.73310000  1.0 0.100336888
H  H24  1  0.47900000  0.79310000  0.78110000  1.0 0.1304917687
H  H25  1  0.06530000  0.94570000  0.74030000  1.0 0.1202626794
H  H26  1  0.12770000  0.95190000  0.69370000  1.0 0.1304917687
H  H27  1  0.02890000  0.94150000  0.65360000  1.0 0.100336888
H  H28  1  0.86760000  0.92490000  0.66010000  1.0 0.100336888
H  H29  1  0.80510000  0.91870000  0.70680000  1.0 0.0876509885
H  H30  1  0.54830000  0.95540000  0.95620000  1.0 0.1111099332
H  H31  1  0.63870000  0.93720000  0.99600000  1.0 0.1304917687
H  H32  1  0.40600000  0.88320000  0.03330000  1.0 0.1375915091
H  H33  1  0.31530000  0.90710000  0.99230000  1.0 0.100336888
H  H34  1  0.83500000  0.94840000  0.03500000  1.0 0.1304917687
H  H35  1  0.99040000  0.97190000  0.04090000  1.0 0.1111099332
H  H36  1  0.00280000  0.91550000  0.11750000  1.0 0.1111099332
H  H37  1  0.85130000  0.88750000  0.11380000  1.0 0.1304917687
H  H38  1  0.65730000  0.82290000  0.13800000  1.0 0.1375915091
H  H39  1  0.57180000  0.78210000  0.17340000  1.0 0.1111099332
H  H40  1  0.33110000  0.82380000  0.13950000  1.0 0.1111099332
H  H41  1  0.40850000  0.85830000  0.10170000  1.0 0.1375915091
H  H42  1  0.63450000  0.66740000  0.43870000  1.0 0.1111099332
H  H43  1  0.61000000  0.73400000  0.41440000  1.0 0.1375915091
H  H44  1  0.55390000  0.65720000  0.34350000  1.0 0.1375915091
H  H45  1  0.58050000  0.59290000  0.37060000  1.0 0.100336888
H  H46  1  0.58140000  0.85110000  0.41000000  1.0 0.1304917687
H  H47  1  0.59930000  0.92250000  0.42920000  1.0 0.1111099332
H  H48  1  0.60380000  0.98120000  0.35360000  1.0 0.100336888
H  H49  1  0.57310000  0.91190000  0.33150000  1.0 0.1202626794
H  H50  1  0.47200000  0.84430000  0.27680000  1.0 0.1304917687
H  H51  1  0.42850000  0.83470000  0.22880000  1.0 0.1111099332
H  H52  1  0.47430000  0.70190000  0.23310000  1.0 0.100336888
H  H53  1  0.52100000  0.70690000  0.28110000  1.0 0.1304917687
H  H54  1  0.93470000  0.55430000  0.24030000  1.0 0.1202626794
H  H55  1  0.87230000  0.54810000  0.19370000  1.0 0.1304917687
H  H56  1  0.97110000  0.55850000  0.15360000  1.0 0.100336888
H  H57  1  0.13240000  0.57510000  0.16010000  1.0 0.100336888
H  H58  1  0.19490000  0.58130000  0.20680000  1.0 0.0876509885
H  H59  1  0.95170000  0.45540000  0.04380000  1.0 0.1111099332
H  H60  1  0.86130000  0.43720000  0.00400000  1.0 0.1304917687
H  H61  1  0.09400000  0.38320000  0.96670000  1.0 0.1304917687
H  H62  1  0.18470000  0.40710000  0.00770000  1.0 0.100336888
H  H63  1  0.66500000  0.44840000  0.96500000  1.0 0.1304917687
H  H64  1  0.50960000  0.47190000  0.95910000  1.0 0.1111099332
H  H65  1  0.49720000  0.41550000  0.88250000  1.0 0.1111099332
H  H66  1  0.64870000  0.38750000  0.88620000  1.0 0.1304917687
H  H67  1  0.84270000  0.32290000  0.86200000  1.0 0.1375915091
H  H68  1  0.92820000  0.28210000  0.82660000  1.0 0.1111099332
H  H69  1  0.16890000  0.32380000  0.86050000  1.0 0.1111099332
H  H70  1  0.09150000  0.35830000  0.89830000  1.0 0.1375915091
H  H71  1  0.86550000  0.16740000  0.56130000  1.0 0.1111099332
H  H72  1  0.89000000  0.23400000  0.58560000  1.0 0.1375915091
H  H73  1  0.94610000  0.15720000  0.65650000  1.0 0.1375915091
H  H74  1  0.91950000  0.09290000  0.62940000  1.0 0.100336888
H  H75  1  0.91860000  0.35110000  0.59000000  1.0 0.1304917687
H  H76  1  0.90070000  0.42250000  0.57080000  1.0 0.1111099332
H  H77  1  0.89620000  0.48120000  0.64640000  1.0 0.100336888
H  H78  1  0.92690000  0.41190000  0.66850000  1.0 0.1202626794
H  H79  1  0.02800000  0.34430000  0.72320000  1.0 0.1304917687
H  H80  1  0.07150000  0.33470000  0.77120000  1.0 0.1111099332
H  H81  1  0.02570000  0.20190000  0.76690000  1.0 0.100336888
H  H82  1  0.97900000  0.20690000  0.71890000  1.0 0.1304917687
H  H83  1  0.56530000  0.05430000  0.75970000  1.0 0.1202626794
H  H84  1  0.62770000  0.04810000  0.80630000  1.0 0.1304917687
H  H85  1  0.52890000  0.05850000  0.84640000  1.0 0.100336888
H  H86  1  0.36760000  0.07510000  0.83990000  1.0 0.100336888
H  H87  1  0.30510000  0.08130000  0.79320000  1.0 0.0876509885
H  H88  1  0.04830000  0.04460000  0.54380000  1.0 0.1111099332
H  H89  1  0.13870000  0.06280000  0.50400000  1.0 0.1304917687
H  H90  1  0.90600000  0.11680000  0.46670000  1.0 0.1304917687
H  H91  1  0.81530000  0.09290000  0.50770000  1.0 0.100336888
H  H92  1  0.33500000  0.05160000  0.46500000  1.0 0.1304917687
H  H93  1  0.49040000  0.02810000  0.45910000  1.0 0.1111099332
H  H94  1  0.50280000  0.08450000  0.38250000  1.0 0.1111099332
H  H95  1  0.35130000  0.11250000  0.38620000  1.0 0.1304917687
H  H96  1  0.15730000  0.17710000  0.36200000  1.0 0.1375915091
H  H97  1  0.07180000  0.21790000  0.32660000  1.0 0.1111099332
H  H98  1  0.83110000  0.17620000  0.36050000  1.0 0.1111099332
H  H99  1  0.90850000  0.14170000  0.39830000  1.0 0.1375915091
H  H100  1  0.13450000  0.33260000  0.06130000  1.0 0.1111099332
H  H101  1  0.11000000  0.26600000  0.08560000  1.0 0.1375915091
H  H102  1  0.05390000  0.34280000  0.15650000  1.0 0.1375915091
H  H103  1  0.08050000  0.40710000  0.12940000  1.0 0.100336888
H  H104  1  0.08140000  0.14890000  0.09000000  1.0 0.1304917687
H  H105  1  0.09930000  0.07750000  0.07080000  1.0 0.1111099332
H  H106  1  0.10380000  0.01880000  0.14640000  1.0 0.1111099332
H  H107  1  0.07310000  0.08810000  0.16850000  1.0 0.1202626794
H  H108  1  0.97200000  0.15570000  0.22320000  1.0 0.1304917687
H  H109  1  0.92850000  0.16530000  0.27120000  1.0 0.1111099332
H  H110  1  0.97430000  0.29810000  0.26690000  1.0 0.100336888
H  H111  1  0.02100000  0.29310000  0.21890000  1.0 0.1304917687
H  H112  1  0.43470000  0.44570000  0.25970000  1.0 0.1202626794
H  H113  1  0.37230000  0.45190000  0.30630000  1.0 0.1304917687
H  H114  1  0.47110000  0.44150000  0.34640000  1.0 0.100336888
H  H115  1  0.63240000  0.42490000  0.33990000  1.0 0.100336888
H  H116  1  0.69490000  0.41870000  0.29320000  1.0 0.0876509885
H  H117  1  0.54830000  0.45540000  0.54380000  1.0 0.1111099332
H  H118  1  0.63870000  0.43720000  0.50400000  1.0 0.1304917687
H  H119  1  0.40600000  0.38320000  0.46670000  1.0 0.1304917687
H  H120  1  0.31530000  0.40710000  0.50770000  1.0 0.100336888
H  H121  1  0.83500000  0.44840000  0.46500000  1.0 0.1304917687
H  H122  1  0.99040000  0.47190000  0.45910000  1.0 0.1111099332
H  H123  1  0.00280000  0.41550000  0.38250000  1.0 0.1111099332
H  H124  1  0.85130000  0.38750000  0.38620000  1.0 0.1304917687
H  H125  1  0.65730000  0.32290000  0.36200000  1.0 0.1375915091
H  H126  1  0.57180000  0.28210000  0.32660000  1.0 0.1111099332
H  H127  1  0.33110000  0.32380000  0.36050000  1.0 0.1111099332
H  H128  1  0.40850000  0.35830000  0.39830000  1.0 0.1375915091
H  H129  1  0.63450000  0.16740000  0.06130000  1.0 0.1111099332
H  H130  1  0.61000000  0.23400000  0.08560000  1.0 0.1375915091
H  H131  1  0.55390000  0.15720000  0.15650000  1.0 0.1375915091
H  H132  1  0.58050000  0.09290000  0.12940000  1.0 0.100336888
H  H133  1  0.58140000  0.35110000  0.09000000  1.0 0.1304917687
H  H134  1  0.59930000  0.42250000  0.07080000  1.0 0.1111099332
H  H135  1  0.60380000  0.48120000  0.14640000  1.0 0.100336888
H  H136  1  0.57310000  0.41190000  0.16850000  1.0 0.1202626794
H  H137  1  0.47200000  0.34430000  0.22320000  1.0 0.1304917687
H  H138  1  0.42850000  0.33470000  0.27120000  1.0 0.1111099332
H  H139  1  0.47430000  0.20190000  0.26690000  1.0 0.100336888
H  H140  1  0.52100000  0.20690000  0.21890000  1.0 0.1304917687
H  H141  1  0.93470000  0.05430000  0.25970000  1.0 0.1202626794
H  H142  1  0.87230000  0.04810000  0.30630000  1.0 0.1304917687
H  H143  1  0.97110000  0.05850000  0.34640000  1.0 0.100336888
H  H144  1  0.13240000  0.07510000  0.33990000  1.0 0.100336888
H  H145  1  0.19490000  0.08130000  0.29320000  1.0 0.0876509885
H  H146  1  0.45170000  0.04460000  0.04380000  1.0 0.1111099332
H  H147  1  0.36130000  0.06280000  0.00400000  1.0 0.1304917687
H  H148  1  0.59400000  0.11680000  0.96670000  1.0 0.1304917687
H  H149  1  0.68470000  0.09290000  0.00770000  1.0 0.100336888
H  H150  1  0.16500000  0.05160000  0.96500000  1.0 0.1304917687
H  H151  1  0.00960000  0.02810000  0.95910000  1.0 0.1111099332
H  H152  1  0.99720000  0.08450000  0.88250000  1.0 0.1111099332
H  H153  1  0.14870000  0.11250000  0.88620000  1.0 0.1304917687
H  H154  1  0.34270000  0.17710000  0.86200000  1.0 0.1375915091
H  H155  1  0.42820000  0.21790000  0.82660000  1.0 0.1111099332
H  H156  1  0.66890000  0.17620000  0.86050000  1.0 0.1111099332
H  H157  1  0.59150000  0.14170000  0.89830000  1.0 0.1375915091
H  H158  1  0.36550000  0.33260000  0.56130000  1.0 0.1111099332
H  H159  1  0.39000000  0.26600000  0.58560000  1.0 0.1375915091
H  H160  1  0.44610000  0.34280000  0.65650000  1.0 0.1375915091
H  H161  1  0.41950000  0.40710000  0.62940000  1.0 0.100336888
H  H162  1  0.41860000  0.14890000  0.59000000  1.0 0.1304917687
H  H163  1  0.40070000  0.07750000  0.57080000  1.0 0.1111099332
H  H164  1  0.39620000  0.01880000  0.64640000  1.0 0.100336888
H  H165  1  0.42690000  0.08810000  0.66850000  1.0 0.1202626794
H  H166  1  0.52800000  0.15570000  0.72320000  1.0 0.1304917687
H  H167  1  0.57150000  0.16530000  0.77120000  1.0 0.1111099332
H  H168  1  0.52570000  0.29810000  0.76690000  1.0 0.100336888
H  H169  1  0.47900000  0.29310000  0.71890000  1.0 0.1304917687
H  H170  1  0.06530000  0.44570000  0.75970000  1.0 0.1202626794
H  H171  1  0.12770000  0.45190000  0.80630000  1.0 0.1304917687
H  H172  1  0.02890000  0.44150000  0.84640000  1.0 0.100336888
H  H173  1  0.86760000  0.42490000  0.83990000  1.0 0.100336888
H  H174  1  0.80510000  0.41870000  0.79320000  1.0 0.0876509885
H  H175  1  0.04830000  0.54460000  0.95620000  1.0 0.1111099332
H  H176  1  0.13870000  0.56280000  0.99600000  1.0 0.1304917687
H  H177  1  0.90600000  0.61680000  0.03330000  1.0 0.1375915091
H  H178  1  0.81530000  0.59290000  0.99230000  1.0 0.100336888
H  H179  1  0.33500000  0.55160000  0.03500000  1.0 0.1304917687
H  H180  1  0.49040000  0.52810000  0.04090000  1.0 0.1111099332
H  H181  1  0.50280000  0.58450000  0.11750000  1.0 0.1111099332
H  H182  1  0.35130000  0.61250000  0.11380000  1.0 0.1304917687
H  H183  1  0.15730000  0.67710000  0.13800000  1.0 0.1375915091
H  H184  1  0.07180000  0.71790000  0.17340000  1.0 0.1111099332
H  H185  1  0.83110000  0.67620000  0.13950000  1.0 0.1111099332
H  H186  1  0.90850000  0.64170000  0.10170000  1.0 0.1375915091
H  H187  1  0.13450000  0.83260000  0.43870000  1.0 0.1111099332
H  H188  1  0.11000000  0.76600000  0.41440000  1.0 0.1375915091
H  H189  1  0.05390000  0.84280000  0.34350000  1.0 0.1375915091
H  H190  1  0.08050000  0.90710000  0.37060000  1.0 0.100336888
H  H191  1  0.08140000  0.64890000  0.41000000  1.0 0.1304917687
H  H192  1  0.09930000  0.57750000  0.42920000  1.0 0.1111099332
H  H193  1  0.10380000  0.51880000  0.35360000  1.0 0.100336888
H  H194  1  0.07310000  0.58810000  0.33150000  1.0 0.1202626794
H  H195  1  0.97200000  0.65570000  0.27680000  1.0 0.1304917687
H  H196  1  0.92850000  0.66530000  0.22880000  1.0 0.1111099332
H  H197  1  0.97430000  0.79810000  0.23310000  1.0 0.100336888
H  H198  1  0.02100000  0.79310000  0.28110000  1.0 0.1304917687
H  H199  1  0.43470000  0.94570000  0.24030000  1.0 0.1202626794
H  H200  1  0.37230000  0.95190000  0.19370000  1.0 0.1304917687
H  H201  1  0.47110000  0.94150000  0.15360000  1.0 0.100336888
H  H202  1  0.63240000  0.92490000  0.16010000  1.0 0.100336888
H  H203  1  0.69490000  0.91870000  0.20680000  1.0 0.0876509885
H  H204  1  0.95170000  0.95540000  0.45620000  1.0 0.1111099332
H  H205  1  0.86130000  0.93720000  0.49600000  1.0 0.1304917687
H  H206  1  0.09400000  0.88320000  0.53330000  1.0 0.1375915091
H  H207  1  0.18470000  0.90710000  0.49230000  1.0 0.100336888
H  H208  1  0.66500000  0.94840000  0.53500000  1.0 0.1304917687
H  H209  1  0.50960000  0.97190000  0.54090000  1.0 0.1111099332
H  H210  1  0.49720000  0.91550000  0.61750000  1.0 0.1111099332
H  H211  1  0.64870000  0.88750000  0.61380000  1.0 0.1304917687
H  H212  1  0.84270000  0.82290000  0.63800000  1.0 0.1375915091
H  H213  1  0.92820000  0.78210000  0.67340000  1.0 0.1111099332
H  H214  1  0.16890000  0.82380000  0.63950000  1.0 0.1111099332
H  H215  1  0.09150000  0.85830000  0.60170000  1.0 0.1375915091
H  H216  1  0.86550000  0.66740000  0.93870000  1.0 0.1111099332
H  H217  1  0.89000000  0.73400000  0.91440000  1.0 0.1375915091
H  H218  1  0.94610000  0.65720000  0.84350000  1.0 0.1375915091
H  H219  1  0.91950000  0.59290000  0.87060000  1.0 0.100336888
H  H220  1  0.91860000  0.85110000  0.91000000  1.0 0.1304917687
H  H221  1  0.90070000  0.92250000  0.92920000  1.0 0.1111099332
H  H222  1  0.89620000  0.98120000  0.85360000  1.0 0.100336888
H  H223  1  0.92690000  0.91190000  0.83150000  1.0 0.1202626794
H  H224  1  0.02800000  0.84430000  0.77680000  1.0 0.1304917687
H  H225  1  0.07150000  0.83470000  0.72880000  1.0 0.1111099332
H  H226  1  0.02570000  0.70190000  0.73310000  1.0 0.100336888
H  H227  1  0.97900000  0.70690000  0.78110000  1.0 0.1304917687
H  H228  1  0.56530000  0.55430000  0.74030000  1.0 0.1202626794
H  H229  1  0.62770000  0.54810000  0.69370000  1.0 0.1304917687
H  H230  1  0.52890000  0.55850000  0.65360000  1.0 0.100336888
H  H231  1  0.36760000  0.57510000  0.66010000  1.0 0.100336888
H  H232  1  0.30510000  0.58130000  0.70680000  1.0 0.0876509885
C  C1  1  0.48050000  0.56060000  0.47150000  1.0 0.05285008
C  C2  1  0.42590000  0.57070000  0.49550000  1.0 -0.139247698
C  C3  1  0.46880000  0.59290000  0.51899000  1.0 0.040809491
C  C4  1  0.56370000  0.60220000  0.51770000  1.0 -0.139247698
C  C5  1  0.61850000  0.58940000  0.49220000  1.0 0.100336888
C  C6  1  0.41490000  0.60330000  0.54595000  1.0 0.3712881988
C  C7  1  0.27520000  0.60190000  0.57097000  1.0 0.3712881988
C  C8  1  0.40870000  0.63370000  0.59079000  1.0 0.3712881988
C  C9  1  0.17620000  0.58620000  0.57420000  1.0 0.040809491
C  C10  1  0.13180000  0.55910000  0.55190000  1.0 -0.1498931837
C  C11  1  0.03950000  0.54430000  0.55590000  1.0 0.0810530903
C  C12  1  0.03230000  0.57790000  0.60070000  1.0 0.0605862107
C  C13  1  0.12300000  0.59500000  0.59870000  1.0 -0.1498931837
C  C14  1  0.45880000  0.65600000  0.61553000  1.0 0.05285008
C  C15  1  0.40930000  0.67790000  0.63750000  1.0 -0.139247698
C  C16  1  0.46110000  0.70140000  0.65920000  1.0 0.0876509885
C  C17  1  0.60230000  0.67770000  0.63880000  1.0 0.0810530903
C  C18  1  0.55640000  0.65620000  0.61640000  1.0 -0.139247698
C  C19  1  0.38220000  0.83440000  0.91910000  1.0 0.0605862107
C  C20  1  0.39630000  0.79450000  0.90481000  1.0 -0.1708172241
C  C21  1  0.42080000  0.79590000  0.87534000  1.0 0.0677660348
C  C22  1  0.42940000  0.83970000  0.86303000  1.0 -0.1498931837
C  C23  1  0.41360000  0.87800000  0.87938000  1.0 0.0605862107
C  C24  1  0.43260000  0.75170000  0.85809000  1.0 0.362082728
C  C25  1  0.43470000  0.67500000  0.85448000  1.0 0.362082728
C  C26  1  0.46620000  0.71910000  0.81470000  1.0 0.3712881988
C  C27  1  0.42320000  0.62840000  0.86793000  1.0 0.0677660348
C  C28  1  0.41520000  0.62300000  0.89780000  1.0 -0.1498931837
C  C29  1  0.40270000  0.58020000  0.90900000  1.0 0.0677660348
C  C30  1  0.40170000  0.54550000  0.86500000  1.0 0.05285008
C  C31  1  0.41850000  0.58710000  0.85150000  1.0 -0.1498931837
C  C32  1  0.49440000  0.72340000  0.78432000  1.0 0.040809491
C  C33  1  0.52590000  0.68520000  0.76832000  1.0 -0.139247698
C  C34  1  0.55430000  0.69140000  0.73970000  1.0 0.0677660348
C  C35  1  0.52730000  0.76910000  0.74224000  1.0 0.0876509885
C  C36  1  0.49710000  0.76630000  0.77099000  1.0 -0.1344816174
C  C37  1  0.92900000  0.93160000  0.72820000  1.0 0.0203640943
C  C38  1  0.02560000  0.94150000  0.72420000  1.0 -0.1185949866
C  C39  1  0.06300000  0.94530000  0.69630000  1.0 -0.0774859406
C  C40  1  0.00400000  0.93900000  0.67230000  1.0 -0.0629526202
C  C41  1  0.90700000  0.92910000  0.67620000  1.0 -0.1006479628
C  C42  1  0.86980000  0.92540000  0.70410000  1.0 -0.1498931837
C  C43  1  0.51950000  0.93940000  0.97150000  1.0 0.05285008
C  C44  1  0.57410000  0.92930000  0.99550000  1.0 -0.139247698
C  C45  1  0.53120000  0.90710000  0.01899000  1.0 0.040809491
C  C46  1  0.43630000  0.89780000  0.01770000  1.0 -0.139247698
C  C47  1  0.38150000  0.91060000  0.99220000  1.0 0.100336888
C  C48  1  0.58510000  0.89670000  0.04595000  1.0 0.3712881988
C  C49  1  0.72480000  0.89810000  0.07097000  1.0 0.3712881988
C  C50  1  0.59130000  0.86630000  0.09079000  1.0 0.3712881988
C  C51  1  0.82380000  0.91380000  0.07420000  1.0 0.040809491
C  C52  1  0.86820000  0.94090000  0.05190000  1.0 -0.1498931837
C  C53  1  0.96050000  0.95570000  0.05590000  1.0 0.0810530903
C  C54  1  0.96770000  0.92210000  0.10070000  1.0 0.0605862107
C  C55  1  0.87700000  0.90500000  0.09870000  1.0 -0.1498931837
C  C56  1  0.54120000  0.84400000  0.11553000  1.0 0.05285008
C  C57  1  0.59070000  0.82210000  0.13750000  1.0 -0.139247698
C  C58  1  0.53890000  0.79860000  0.15920000  1.0 0.0876509885
C  C59  1  0.39770000  0.82230000  0.13880000  1.0 0.0810530903
C  C60  1  0.44360000  0.84380000  0.11640000  1.0 -0.139247698
C  C61  1  0.61780000  0.66560000  0.41910000  1.0 0.0677660348
C  C62  1  0.60370000  0.70550000  0.40481000  1.0 -0.1708172241
C  C63  1  0.57920000  0.70410000  0.37534000  1.0 0.0677660348
C  C64  1  0.57060000  0.66030000  0.36303000  1.0 -0.1498931837
C  C65  1  0.58640000  0.62200000  0.37938000  1.0 0.0605862107
C  C66  1  0.56740000  0.74830000  0.35809000  1.0 0.362082728
C  C67  1  0.56530000  0.82500000  0.35448000  1.0 0.362082728
C  C68  1  0.53380000  0.78090000  0.31470000  1.0 0.3712881988
C  C69  1  0.57680000  0.87160000  0.36793000  1.0 0.0677660348
C  C70  1  0.58480000  0.87700000  0.39780000  1.0 -0.1498931837
C  C71  1  0.59730000  0.91980000  0.40900000  1.0 0.0677660348
C  C72  1  0.59830000  0.95450000  0.36500000  1.0 0.05285008
C  C73  1  0.58150000  0.91290000  0.35150000  1.0 -0.1498931837
C  C74  1  0.50560000  0.77660000  0.28432000  1.0 0.040809491
C  C75  1  0.47410000  0.81480000  0.26832000  1.0 -0.139247698
C  C76  1  0.44570000  0.80860000  0.23970000  1.0 0.0677660348
C  C77  1  0.47270000  0.73090000  0.24224000  1.0 0.0810530903
C  C78  1  0.50290000  0.73370000  0.27099000  1.0 -0.1344816174
C  C79  1  0.07100000  0.56840000  0.22820000  1.0 0.0203640943
C  C80  1  0.97440000  0.55850000  0.22420000  1.0 -0.1185949866
C  C81  1  0.93700000  0.55470000  0.19630000  1.0 -0.0774859406
C  C82  1  0.99600000  0.56100000  0.17230000  1.0 -0.0629526202
C  C83  1  0.09300000  0.57090000  0.17620000  1.0 -0.1006479628
C  C84  1  0.13020000  0.57460000  0.20410000  1.0 -0.1498931837
C  C85  1  0.98050000  0.43940000  0.02850000  1.0 0.05285008
C  C86  1  0.92590000  0.42930000  0.00450000  1.0 -0.139247698
C  C87  1  0.96880000  0.40710000  0.98101000  1.0 0.040809491
C  C88  1  0.06370000  0.39780000  0.98230000  1.0 -0.139247698
C  C89  1  0.11850000  0.41060000  0.00780000  1.0 0.100336888
C  C90  1  0.91490000  0.39670000  0.95405000  1.0 0.3712881988
C  C91  1  0.77520000  0.39810000  0.92903000  1.0 0.3712881988
C  C92  1  0.90870000  0.36630000  0.90921000  1.0 0.3712881988
C  C93  1  0.67620000  0.41380000  0.92580000  1.0 0.040809491
C  C94  1  0.63180000  0.44090000  0.94810000  1.0 -0.139247698
C  C95  1  0.53950000  0.45570000  0.94410000  1.0 0.0810530903
C  C96  1  0.53230000  0.42210000  0.89930000  1.0 0.0605862107
C  C97  1  0.62300000  0.40500000  0.90130000  1.0 -0.1498931837
C  C98  1  0.95880000  0.34400000  0.88447000  1.0 0.05285008
C  C99  1  0.90930000  0.32210000  0.86250000  1.0 -0.139247698
C  C100  1  0.96110000  0.29860000  0.84080000  1.0 0.0876509885
C  C101  1  0.10230000  0.32230000  0.86120000  1.0 0.0810530903
C  C102  1  0.05640000  0.34380000  0.88360000  1.0 -0.139247698
C  C103  1  0.88220000  0.16560000  0.58090000  1.0 0.0677660348
C  C104  1  0.89630000  0.20550000  0.59519000  1.0 -0.1708172241
C  C105  1  0.92080000  0.20410000  0.62466000  1.0 0.0677660348
C  C106  1  0.92940000  0.16030000  0.63697000  1.0 -0.1498931837
C  C107  1  0.91360000  0.12200000  0.62062000  1.0 0.0605862107
C  C108  1  0.93260000  0.24830000  0.64191000  1.0 0.362082728
C  C109  1  0.93470000  0.32500000  0.64552000  1.0 0.362082728
C  C110  1  0.96620000  0.28090000  0.68530000  1.0 0.3712881988
C  C111  1  0.92320000  0.37160000  0.63207000  1.0 0.0605862107
C  C112  1  0.91520000  0.37700000  0.60220000  1.0 -0.1498931837
C  C113  1  0.90270000  0.41980000  0.59100000  1.0 0.0677660348
C  C114  1  0.90170000  0.45450000  0.63500000  1.0 0.0605862107
C  C115  1  0.91850000  0.41290000  0.64850000  1.0 -0.1498931837
C  C116  1  0.99440000  0.27660000  0.71568000  1.0 0.040809491
C  C117  1  0.02590000  0.31480000  0.73168000  1.0 -0.139247698
C  C118  1  0.05430000  0.30860000  0.76030000  1.0 0.0677660348
C  C119  1  0.02730000  0.23090000  0.75776000  1.0 0.0876509885
C  C120  1  0.99710000  0.23370000  0.72901000  1.0 -0.1344816174
C  C121  1  0.42900000  0.06840000  0.77180000  1.0 0.0203640943
C  C122  1  0.52560000  0.05850000  0.77580000  1.0 -0.1185949866
C  C123  1  0.56300000  0.05470000  0.80370000  1.0 -0.0774859406
C  C124  1  0.50400000  0.06100000  0.82770000  1.0 -0.0629526202
C  C125  1  0.40700000  0.07090000  0.82380000  1.0 -0.1006479628
C  C126  1  0.36980000  0.07460000  0.79590000  1.0 -0.1498931837
C  C127  1  0.01950000  0.06060000  0.52850000  1.0 0.05285008
C  C128  1  0.07410000  0.07070000  0.50450000  1.0 -0.139247698
C  C129  1  0.03120000  0.09290000  0.48101000  1.0 0.040809491
C  C130  1  0.93630000  0.10220000  0.48230000  1.0 -0.139247698
C  C131  1  0.88150000  0.08940000  0.50780000  1.0 0.100336888
C  C132  1  0.08510000  0.10330000  0.45405000  1.0 0.3712881988
C  C133  1  0.22480000  0.10190000  0.42903000  1.0 0.3712881988
C  C134  1  0.09130000  0.13370000  0.40921000  1.0 0.3712881988
C  C135  1  0.32380000  0.08620000  0.42580000  1.0 0.040809491
C  C136  1  0.36820000  0.05910000  0.44810000  1.0 -0.139247698
C  C137  1  0.46050000  0.04430000  0.44410000  1.0 0.0810530903
C  C138  1  0.46770000  0.07790000  0.39930000  1.0 0.0605862107
C  C139  1  0.37700000  0.09500000  0.40130000  1.0 -0.1498931837
C  C140  1  0.04120000  0.15600000  0.38447000  1.0 0.05285008
C  C141  1  0.09070000  0.17790000  0.36250000  1.0 -0.139247698
C  C142  1  0.03890000  0.20140000  0.34080000  1.0 0.0876509885
C  C143  1  0.89770000  0.17770000  0.36120000  1.0 0.0810530903
C  C144  1  0.94360000  0.15620000  0.38360000  1.0 -0.139247698
C  C145  1  0.11780000  0.33440000  0.08090000  1.0 0.0677660348
C  C146  1  0.10370000  0.29450000  0.09519000  1.0 -0.1708172241
C  C147  1  0.07920000  0.29590000  0.12466000  1.0 0.0677660348
C  C148  1  0.07060000  0.33970000  0.13697000  1.0 -0.1498931837
C  C149  1  0.08640000  0.37800000  0.12062000  1.0 0.0605862107
C  C150  1  0.06740000  0.25170000  0.14191000  1.0 0.362082728
C  C151  1  0.06530000  0.17500000  0.14552000  1.0 0.362082728
C  C152  1  0.03380000  0.21910000  0.18530000  1.0 0.3712881988
C  C153  1  0.07680000  0.12840000  0.13207000  1.0 0.0605862107
C  C154  1  0.08480000  0.12300000  0.10220000  1.0 -0.1498931837
C  C155  1  0.09730000  0.08020000  0.09100000  1.0 0.0677660348
C  C156  1  0.09830000  0.04550000  0.13500000  1.0 0.05285008
C  C157  1  0.08150000  0.08710000  0.14850000  1.0 -0.1498931837
C  C158  1  0.00560000  0.22340000  0.21568000  1.0 0.040809491
C  C159  1  0.97410000  0.18520000  0.23168000  1.0 -0.139247698
C  C160  1  0.94570000  0.19140000  0.26030000  1.0 0.0677660348
C  C161  1  0.97270000  0.26910000  0.25776000  1.0 0.0876509885
C  C162  1  0.00290000  0.26630000  0.22901000  1.0 -0.1344816174
C  C163  1  0.57100000  0.43160000  0.27180000  1.0 0.0203640943
C  C164  1  0.47440000  0.44150000  0.27580000  1.0 -0.1185949866
C  C165  1  0.43700000  0.44530000  0.30370000  1.0 -0.0774859406
C  C166  1  0.49600000  0.43900000  0.32770000  1.0 -0.0629526202
C  C167  1  0.59300000  0.42910000  0.32380000  1.0 -0.1006479628
C  C168  1  0.63020000  0.42540000  0.29590000  1.0 -0.1498931837
C  C169  1  0.51950000  0.43940000  0.52850000  1.0 0.05285008
C  C170  1  0.57410000  0.42930000  0.50450000  1.0 -0.139247698
C  C171  1  0.53120000  0.40710000  0.48101000  1.0 0.040809491
C  C172  1  0.43630000  0.39780000  0.48230000  1.0 -0.139247698
C  C173  1  0.38150000  0.41060000  0.50780000  1.0 0.100336888
C  C174  1  0.58510000  0.39670000  0.45405000  1.0 0.3712881988
C  C175  1  0.72480000  0.39810000  0.42903000  1.0 0.3712881988
C  C176  1  0.59130000  0.36630000  0.40921000  1.0 0.3712881988
C  C177  1  0.82380000  0.41380000  0.42580000  1.0 0.040809491
C  C178  1  0.86820000  0.44090000  0.44810000  1.0 -0.139247698
C  C179  1  0.96050000  0.45570000  0.44410000  1.0 0.0810530903
C  C180  1  0.96770000  0.42210000  0.39930000  1.0 0.0677660348
C  C181  1  0.87700000  0.40500000  0.40130000  1.0 -0.1498931837
C  C182  1  0.54120000  0.34400000  0.38447000  1.0 0.05285008
C  C183  1  0.59070000  0.32210000  0.36250000  1.0 -0.139247698
C  C184  1  0.53890000  0.29860000  0.34080000  1.0 0.0876509885
C  C185  1  0.39770000  0.32230000  0.36120000  1.0 0.0810530903
C  C186  1  0.44360000  0.34380000  0.38360000  1.0 -0.139247698
C  C187  1  0.61780000  0.16560000  0.08090000  1.0 0.0605862107
C  C188  1  0.60370000  0.20550000  0.09519000  1.0 -0.1649157565
C  C189  1  0.57920000  0.20410000  0.12466000  1.0 0.0677660348
C  C190  1  0.57060000  0.16030000  0.13697000  1.0 -0.1498931837
C  C191  1  0.58640000  0.12200000  0.12062000  1.0 0.0605862107
C  C192  1  0.56740000  0.24830000  0.14191000  1.0 0.362082728
C  C193  1  0.56530000  0.32500000  0.14552000  1.0 0.362082728
C  C194  1  0.53380000  0.28090000  0.18530000  1.0 0.3712881988
C  C195  1  0.57680000  0.37160000  0.13207000  1.0 0.0605862107
C  C196  1  0.58480000  0.37700000  0.10220000  1.0 -0.1498931837
C  C197  1  0.59730000  0.41980000  0.09100000  1.0 0.0677660348
C  C198  1  0.59830000  0.45450000  0.13500000  1.0 0.0605862107
C  C199  1  0.58150000  0.41290000  0.14850000  1.0 -0.1498931837
C  C200  1  0.50560000  0.27660000  0.21568000  1.0 0.040809491
C  C201  1  0.47410000  0.31480000  0.23168000  1.0 -0.139247698
C  C202  1  0.44570000  0.30860000  0.26030000  1.0 0.0677660348
C  C203  1  0.47270000  0.23090000  0.25776000  1.0 0.0876509885
C  C204  1  0.50290000  0.23370000  0.22901000  1.0 -0.1344816174
C  C205  1  0.07100000  0.06840000  0.27180000  1.0 0.0203640943
C  C206  1  0.97440000  0.05850000  0.27580000  1.0 -0.1185949866
C  C207  1  0.93700000  0.05470000  0.30370000  1.0 -0.0774859406
C  C208  1  0.99600000  0.06100000  0.32770000  1.0 -0.0629526202
C  C209  1  0.09300000  0.07090000  0.32380000  1.0 -0.1006479628
C  C210  1  0.13020000  0.07460000  0.29590000  1.0 -0.1498931837
C  C211  1  0.48050000  0.06060000  0.02850000  1.0 0.05285008
C  C212  1  0.42590000  0.07070000  0.00450000  1.0 -0.139247698
C  C213  1  0.46880000  0.09290000  0.98101000  1.0 0.040809491
C  C214  1  0.56370000  0.10220000  0.98230000  1.0 -0.139247698
C  C215  1  0.61850000  0.08940000  0.00780000  1.0 0.100336888
C  C216  1  0.41490000  0.10330000  0.95405000  1.0 0.3712881988
C  C217  1  0.27520000  0.10190000  0.92903000  1.0 0.3712881988
C  C218  1  0.40870000  0.13370000  0.90921000  1.0 0.3712881988
C  C219  1  0.17620000  0.08620000  0.92580000  1.0 0.040809491
C  C220  1  0.13180000  0.05910000  0.94810000  1.0 -0.139247698
C  C221  1  0.03950000  0.04430000  0.94410000  1.0 0.0810530903
C  C222  1  0.03230000  0.07790000  0.89930000  1.0 0.0605862107
C  C223  1  0.12300000  0.09500000  0.90130000  1.0 -0.1498931837
C  C224  1  0.45880000  0.15600000  0.88447000  1.0 0.05285008
C  C225  1  0.40930000  0.17790000  0.86250000  1.0 -0.139247698
C  C226  1  0.46110000  0.20140000  0.84080000  1.0 0.0876509885
C  C227  1  0.60230000  0.17770000  0.86120000  1.0 0.0810530903
C  C228  1  0.55640000  0.15620000  0.88360000  1.0 -0.139247698
C  C229  1  0.38220000  0.33440000  0.58090000  1.0 0.0677660348
C  C230  1  0.39630000  0.29450000  0.59519000  1.0 -0.1708172241
C  C231  1  0.42080000  0.29590000  0.62466000  1.0 0.0677660348
C  C232  1  0.42940000  0.33970000  0.63697000  1.0 -0.1498931837
C  C233  1  0.41360000  0.37800000  0.62062000  1.0 0.0605862107
C  C234  1  0.43260000  0.25170000  0.64191000  1.0 0.362082728
C  C235  1  0.43470000  0.17500000  0.64552000  1.0 0.362082728
C  C236  1  0.46620000  0.21910000  0.68530000  1.0 0.3712881988
C  C237  1  0.42320000  0.12840000  0.63207000  1.0 0.0605862107
C  C238  1  0.41520000  0.12300000  0.60220000  1.0 -0.1498931837
C  C239  1  0.40270000  0.08020000  0.59100000  1.0 0.0677660348
C  C240  1  0.40170000  0.04550000  0.63500000  1.0 0.0605862107
C  C241  1  0.41850000  0.08710000  0.64850000  1.0 -0.1498931837
C  C242  1  0.49440000  0.22340000  0.71568000  1.0 0.040809491
C  C243  1  0.52590000  0.18520000  0.73168000  1.0 -0.139247698
C  C244  1  0.55430000  0.19140000  0.76030000  1.0 0.0677660348
C  C245  1  0.52730000  0.26910000  0.75776000  1.0 0.0876509885
C  C246  1  0.49710000  0.26630000  0.72901000  1.0 -0.1344816174
C  C247  1  0.92900000  0.43160000  0.77180000  1.0 0.0203640943
C  C248  1  0.02560000  0.44150000  0.77580000  1.0 -0.1185949866
C  C249  1  0.06300000  0.44530000  0.80370000  1.0 -0.0774859406
C  C250  1  0.00400000  0.43900000  0.82770000  1.0 -0.0629526202
C  C251  1  0.90700000  0.42910000  0.82380000  1.0 -0.1006479628
C  C252  1  0.86980000  0.42540000  0.79590000  1.0 -0.1498931837
C  C253  1  0.01950000  0.56060000  0.97150000  1.0 0.05285008
C  C254  1  0.07410000  0.57070000  0.99550000  1.0 -0.139247698
C  C255  1  0.03120000  0.59290000  0.01899000  1.0 0.040809491
C  C256  1  0.93630000  0.60220000  0.01770000  1.0 -0.139247698
C  C257  1  0.88150000  0.58940000  0.99220000  1.0 0.100336888
C  C258  1  0.08510000  0.60330000  0.04595000  1.0 0.3712881988
C  C259  1  0.22480000  0.60190000  0.07097000  1.0 0.3712881988
C  C260  1  0.09130000  0.63370000  0.09079000  1.0 0.3712881988
C  C261  1  0.32380000  0.58620000  0.07420000  1.0 0.040809491
C  C262  1  0.36820000  0.55910000  0.05190000  1.0 -0.1498931837
C  C263  1  0.46050000  0.54430000  0.05590000  1.0 0.0810530903
C  C264  1  0.46770000  0.57790000  0.10070000  1.0 0.0605862107
C  C265  1  0.37700000  0.59500000  0.09870000  1.0 -0.1498931837
C  C266  1  0.04120000  0.65600000  0.11553000  1.0 0.05285008
C  C267  1  0.09070000  0.67790000  0.13750000  1.0 -0.139247698
C  C268  1  0.03890000  0.70140000  0.15920000  1.0 0.0876509885
C  C269  1  0.89770000  0.67770000  0.13880000  1.0 0.0810530903
C  C270  1  0.94360000  0.65620000  0.11640000  1.0 -0.139247698
C  C271  1  0.11780000  0.83440000  0.41910000  1.0 0.0605862107
C  C272  1  0.10370000  0.79450000  0.40481000  1.0 -0.1708172241
C  C273  1  0.07920000  0.79590000  0.37534000  1.0 0.0677660348
C  C274  1  0.07060000  0.83970000  0.36303000  1.0 -0.1498931837
C  C275  1  0.08640000  0.87800000  0.37938000  1.0 0.0605862107
C  C276  1  0.06740000  0.75170000  0.35809000  1.0 0.362082728
C  C277  1  0.06530000  0.67500000  0.35448000  1.0 0.362082728
C  C278  1  0.03380000  0.71910000  0.31470000  1.0 0.3712881988
C  C279  1  0.07680000  0.62840000  0.36793000  1.0 0.0677660348
C  C280  1  0.08480000  0.62300000  0.39780000  1.0 -0.1498931837
C  C281  1  0.09730000  0.58020000  0.40900000  1.0 0.0677660348
C  C282  1  0.09830000  0.54550000  0.36500000  1.0 0.05285008
C  C283  1  0.08150000  0.58710000  0.35150000  1.0 -0.1498931837
C  C284  1  0.00560000  0.72340000  0.28432000  1.0 0.040809491
C  C285  1  0.97410000  0.68520000  0.26832000  1.0 -0.139247698
C  C286  1  0.94570000  0.69140000  0.23970000  1.0 0.0677660348
C  C287  1  0.97270000  0.76910000  0.24224000  1.0 0.0876509885
C  C288  1  0.00290000  0.76630000  0.27099000  1.0 -0.1344816174
C  C289  1  0.57100000  0.93160000  0.22820000  1.0 0.0203640943
C  C290  1  0.47440000  0.94150000  0.22420000  1.0 -0.1185949866
C  C291  1  0.43700000  0.94530000  0.19630000  1.0 -0.0774859406
C  C292  1  0.49600000  0.93900000  0.17230000  1.0 -0.0629526202
C  C293  1  0.59300000  0.92910000  0.17620000  1.0 -0.1006479628
C  C294  1  0.63020000  0.92540000  0.20410000  1.0 -0.1498931837
C  C295  1  0.98050000  0.93940000  0.47150000  1.0 0.05285008
C  C296  1  0.92590000  0.92930000  0.49550000  1.0 -0.139247698
C  C297  1  0.96880000  0.90710000  0.51899000  1.0 0.040809491
C  C298  1  0.06370000  0.89780000  0.51770000  1.0 -0.139247698
C  C299  1  0.11850000  0.91060000  0.49220000  1.0 0.100336888
C  C300  1  0.91490000  0.89670000  0.54595000  1.0 0.3712881988
C  C301  1  0.77520000  0.89810000  0.57097000  1.0 0.3712881988
C  C302  1  0.90870000  0.86630000  0.59079000  1.0 0.3712881988
C  C303  1  0.67620000  0.91380000  0.57420000  1.0 0.040809491
C  C304  1  0.63180000  0.94090000  0.55190000  1.0 -0.1498931837
C  C305  1  0.53950000  0.95570000  0.55590000  1.0 0.0810530903
C  C306  1  0.53230000  0.92210000  0.60070000  1.0 0.0605862107
C  C307  1  0.62300000  0.90500000  0.59870000  1.0 -0.1498931837
C  C308  1  0.95880000  0.84400000  0.61553000  1.0 0.05285008
C  C309  1  0.90930000  0.82210000  0.63750000  1.0 -0.139247698
C  C310  1  0.96110000  0.79860000  0.65920000  1.0 0.0876509885
C  C311  1  0.10230000  0.82230000  0.63880000  1.0 0.0810530903
C  C312  1  0.05640000  0.84380000  0.61640000  1.0 -0.139247698
C  C313  1  0.88220000  0.66560000  0.91910000  1.0 0.0677660348
C  C314  1  0.89630000  0.70550000  0.90481000  1.0 -0.1708172241
C  C315  1  0.92080000  0.70410000  0.87534000  1.0 0.0677660348
C  C316  1  0.92940000  0.66030000  0.86303000  1.0 -0.1498931837
C  C317  1  0.91360000  0.62200000  0.87938000  1.0 0.0605862107
C  C318  1  0.93260000  0.74830000  0.85809000  1.0 0.362082728
C  C319  1  0.93470000  0.82500000  0.85448000  1.0 0.362082728
C  C320  1  0.96620000  0.78090000  0.81470000  1.0 0.3712881988
C  C321  1  0.92320000  0.87160000  0.86793000  1.0 0.0677660348
C  C322  1  0.91520000  0.87700000  0.89780000  1.0 -0.1498931837
C  C323  1  0.90270000  0.91980000  0.90900000  1.0 0.0677660348
C  C324  1  0.90170000  0.95450000  0.86500000  1.0 0.0605862107
C  C325  1  0.91850000  0.91290000  0.85150000  1.0 -0.1498931837
C  C326  1  0.99440000  0.77660000  0.78432000  1.0 0.040809491
C  C327  1  0.02590000  0.81480000  0.76832000  1.0 -0.139247698
C  C328  1  0.05430000  0.80860000  0.73970000  1.0 0.0677660348
C  C329  1  0.02730000  0.73090000  0.74224000  1.0 0.0810530903
C  C330  1  0.99710000  0.73370000  0.77099000  1.0 -0.1344816174
C  C331  1  0.42900000  0.56840000  0.72820000  1.0 0.0203640943
C  C332  1  0.52560000  0.55850000  0.72420000  1.0 -0.1185949866
C  C333  1  0.56300000  0.55470000  0.69630000  1.0 -0.0774859406
C  C334  1  0.50400000  0.56100000  0.67230000  1.0 -0.0629526202
C  C335  1  0.40700000  0.57090000  0.67620000  1.0 -0.1006479628
C  C336  1  0.36980000  0.57460000  0.70410000  1.0 -0.1498931837
I  I1  1  0.56623000  0.49637000  0.40312000  1.0 -0.2994312929
I  I2  1  0.82491000  0.57191000  0.44125000  1.0 -0.3958204772
I  I3  1  0.76819000  0.56801000  0.62552000  1.0 -0.4413823683
I  I4  1  0.78627000  0.50462000  0.53693000  1.0 -0.4671448481
I  I5  1  0.79569000  0.70142000  0.69529000  1.0 -0.4595002059
I  I6  1  0.62968000  0.82550000  0.67255000  1.0 -0.2994312929
I  I7  1  0.83460000  0.54140000  0.37060000  1.0 0.0333418568
I  I8  1  0.87000000  0.55760000  0.31090000  1.0 0.0078574481
I  I9  1  0.74320000  0.87750000  0.71770000  1.0 0.0605862107
I  I10  1  0.85290000  0.92370000  0.76030000  1.0 0.3135905627
I  I11  1  0.73590000  0.50130000  0.36290000  1.0 0.0605862107
I  I12  1  0.89400000  0.50570000  0.32530000  1.0 -0.0274854146
I  I13  1  0.43377000  0.00363000  0.90312000  1.0 -0.2912971339
I  I14  1  0.17509000  0.92809000  0.94125000  1.0 -0.3915057849
I  I15  1  0.23181000  0.93199000  0.12552000  1.0 -0.4413823683
I  I16  1  0.21373000  0.99538000  0.03693000  1.0 -0.4671448481
I  I17  1  0.20431000  0.79858000  0.19529000  1.0 -0.4595002059
I  I18  1  0.37032000  0.67450000  0.17255000  1.0 -0.2994312929
I  I19  1  0.16540000  0.95860000  0.87060000  1.0 0.040809491
I  I20  1  0.13000000  0.94240000  0.81090000  1.0 0.0078574481
I  I21  1  0.25680000  0.62250000  0.21770000  1.0 0.0605862107
I  I22  1  0.14710000  0.57630000  0.26030000  1.0 0.303690261
I  I23  1  0.26410000  0.99870000  0.86290000  1.0 0.0605862107
I  I24  1  0.10600000  0.99430000  0.82530000  1.0 -0.0212180596
I  I25  1  0.06623000  0.50363000  0.09688000  1.0 -0.2994312929
I  I26  1  0.32491000  0.42809000  0.05875000  1.0 -0.3915057849
I  I27  1  0.26819000  0.43199000  0.87448000  1.0 -0.4413823683
I  I28  1  0.28627000  0.49538000  0.96307000  1.0 -0.4671448481
I  I29  1  0.29569000  0.29858000  0.80471000  1.0 -0.4595002059
I  I30  1  0.12968000  0.17450000  0.82745000  1.0 -0.2994312929
I  I31  1  0.33460000  0.45860000  0.12940000  1.0 0.0333418568
I  I32  1  0.37000000  0.44240000  0.18910000  1.0 0.0078574481
I  I33  1  0.24320000  0.12250000  0.78230000  1.0 0.0605862107
I  I34  1  0.35290000  0.07630000  0.73970000  1.0 0.3135905627
I  I35  1  0.23590000  0.49870000  0.13710000  1.0 0.05285008
I  I36  1  0.39400000  0.49430000  0.17470000  1.0 -0.0212180596
I  I37  1  0.93377000  0.99637000  0.59688000  1.0 -0.2912971339
I  I38  1  0.67509000  0.07191000  0.55875000  1.0 -0.3915057849
I  I39  1  0.73181000  0.06801000  0.37448000  1.0 -0.4413823683
I  I40  1  0.71373000  0.00462000  0.46307000  1.0 -0.4671448481
I  I41  1  0.70431000  0.20142000  0.30471000  1.0 -0.4595002059
I  I42  1  0.87032000  0.32550000  0.32745000  1.0 -0.2994312929
I  I43  1  0.66540000  0.04140000  0.62940000  1.0 0.0333418568
I  I44  1  0.63000000  0.05760000  0.68910000  1.0 0.0038570843
I  I45  1  0.75680000  0.37750000  0.28230000  1.0 0.0605862107
I  I46  1  0.64710000  0.42370000  0.23970000  1.0 0.303690261
I  I47  1  0.76410000  0.00130000  0.63710000  1.0 0.0605862107
I  I48  1  0.60600000  0.00570000  0.67470000  1.0 -0.0274854146
I  I49  1  0.43377000  0.50363000  0.59688000  1.0 -0.2994312929
I  I50  1  0.17509000  0.42809000  0.55875000  1.0 -0.3915057849
I  I51  1  0.23181000  0.43199000  0.37448000  1.0 -0.4413823683
I  I52  1  0.21373000  0.49538000  0.46307000  1.0 -0.4671448481
I  I53  1  0.20431000  0.29858000  0.30471000  1.0 -0.4595002059
I  I54  1  0.37032000  0.17450000  0.32745000  1.0 -0.2994312929
I  I55  1  0.16540000  0.45860000  0.62940000  1.0 0.0333418568
I  I56  1  0.13000000  0.44240000  0.68910000  1.0 0.0078574481
I  I57  1  0.25680000  0.12250000  0.28230000  1.0 0.0605862107
I  I58  1  0.14710000  0.07630000  0.23970000  1.0 0.3135905627
I  I59  1  0.26410000  0.49870000  0.63710000  1.0 0.05285008
I  I60  1  0.10600000  0.49430000  0.67470000  1.0 -0.0212180596
I  I61  1  0.56623000  0.99637000  0.09688000  1.0 -0.2912971339
I  I62  1  0.82491000  0.07191000  0.05875000  1.0 -0.3958204772
I  I63  1  0.76819000  0.06801000  0.87448000  1.0 -0.4413823683
I  I64  1  0.78627000  0.00462000  0.96307000  1.0 -0.4671448481
I  I65  1  0.79569000  0.20142000  0.80471000  1.0 -0.4595002059
I  I66  1  0.62968000  0.32550000  0.82745000  1.0 -0.2994312929
I  I67  1  0.83460000  0.04140000  0.12940000  1.0 0.0333418568
I  I68  1  0.87000000  0.05760000  0.18910000  1.0 0.0038570843
I  I69  1  0.74320000  0.37750000  0.78230000  1.0 0.0605862107
I  I70  1  0.85290000  0.42370000  0.73970000  1.0 0.303690261
I  I71  1  0.73590000  0.00130000  0.13710000  1.0 0.0605862107
I  I72  1  0.89400000  0.00570000  0.17470000  1.0 -0.0274854146
I  I73  1  0.93377000  0.49637000  0.90312000  1.0 -0.2994312929
I  I74  1  0.67509000  0.57191000  0.94125000  1.0 -0.3958204772
I  I75  1  0.73181000  0.56801000  0.12552000  1.0 -0.4413823683
I  I76  1  0.71373000  0.50462000  0.03693000  1.0 -0.4671448481
I  I77  1  0.70431000  0.70142000  0.19529000  1.0 -0.4595002059
I  I78  1  0.87032000  0.82550000  0.17255000  1.0 -0.2994312929
I  I79  1  0.66540000  0.54140000  0.87060000  1.0 0.0333418568
I  I80  1  0.63000000  0.55760000  0.81090000  1.0 0.0078574481
I  I81  1  0.75680000  0.87750000  0.21770000  1.0 0.0605862107
I  I82  1  0.64710000  0.92370000  0.26030000  1.0 0.3135905627
I  I83  1  0.76410000  0.50130000  0.86290000  1.0 0.0605862107
I  I84  1  0.60600000  0.50570000  0.82530000  1.0 -0.0274854146
I  I85  1  0.06623000  0.00363000  0.40312000  1.0 -0.2912971339
I  I86  1  0.32491000  0.92809000  0.44125000  1.0 -0.3958204772
I  I87  1  0.26819000  0.93199000  0.62552000  1.0 -0.4413823683
I  I88  1  0.28627000  0.99538000  0.53693000  1.0 -0.4671448481
I  I89  1  0.29569000  0.79858000  0.69529000  1.0 -0.4595002059
I  I90  1  0.12968000  0.67450000  0.67255000  1.0 -0.2994312929
I  I91  1  0.33460000  0.95860000  0.37060000  1.0 0.040809491
I  I92  1  0.37000000  0.94240000  0.31090000  1.0 0.0078574481
I  I93  1  0.24320000  0.62250000  0.71770000  1.0 0.0605862107
I  I94  1  0.35290000  0.57630000  0.76030000  1.0 0.303690261
I  I95  1  0.23590000  0.99870000  0.36290000  1.0 0.0605862107
I  I96  1  0.39400000  0.99430000  0.32530000  1.0 -0.0212180596
N  N1  1  0.57560000  0.57280000  0.46863000  1.0 -0.1956604879
N  N2  1  0.32230000  0.59110000  0.54649000  1.0 -0.3915057849
N  N3  1  0.31630000  0.62330000  0.59364000  1.0 -0.3814532818
N  N4  1  0.45930000  0.62370000  0.56731000  1.0 -0.3814532818
N  N5  1  0.99100000  0.55220000  0.58008000  1.0 -0.1790662295
N  N6  1  0.55690000  0.70070000  0.65969000  1.0 -0.1857514691
N  N7  1  0.39030000  0.87660000  0.90733000  1.0 -0.1708172241
N  N8  1  0.42310000  0.71210000  0.87106000  1.0 -0.3814532818
N  N9  1  0.45680000  0.67590000  0.82585000  1.0 -0.3915057849
N  N10  1  0.45570000  0.75820000  0.82965000  1.0 -0.4086058635
N  N11  1  0.39270000  0.54140000  0.89358000  1.0 -0.1708172241
N  N12  1  0.55790000  0.73300000  0.72744000  1.0 -0.1790662295
N  N13  1  0.89370000  0.92810000  0.75480000  1.0 -0.0392601357
N  N14  1  0.42440000  0.92720000  0.96863000  1.0 -0.1956604879
N  N15  1  0.67770000  0.90890000  0.04649000  1.0 -0.3915057849
N  N16  1  0.68370000  0.87670000  0.09364000  1.0 -0.3814532818
N  N17  1  0.54070000  0.87630000  0.06731000  1.0 -0.3814532818
N  N18  1  0.00900000  0.94780000  0.08008000  1.0 -0.1790662295
N  N19  1  0.44310000  0.79930000  0.15969000  1.0 -0.1857514691
N  N20  1  0.60970000  0.62340000  0.40733000  1.0 -0.1708172241
N  N21  1  0.57690000  0.78790000  0.37106000  1.0 -0.3814532818
N  N22  1  0.54320000  0.82410000  0.32585000  1.0 -0.3915057849
N  N23  1  0.54430000  0.74180000  0.32965000  1.0 -0.4086058635
N  N24  1  0.60730000  0.95860000  0.39358000  1.0 -0.1708172241
N  N25  1  0.44210000  0.76700000  0.22744000  1.0 -0.1790662295
N  N26  1  0.10630000  0.57190000  0.25480000  1.0 -0.0392601357
N  N27  1  0.07560000  0.42720000  0.03137000  1.0 -0.1956604879
N  N28  1  0.82230000  0.40890000  0.95351000  1.0 -0.3915057849
N  N29  1  0.81630000  0.37670000  0.90636000  1.0 -0.3814532818
N  N30  1  0.95930000  0.37630000  0.93269000  1.0 -0.3814532818
N  N31  1  0.49100000  0.44780000  0.91992000  1.0 -0.1790662295
N  N32  1  0.05690000  0.29930000  0.84031000  1.0 -0.1790662295
N  N33  1  0.89030000  0.12340000  0.59267000  1.0 -0.1708172241
N  N34  1  0.92310000  0.28790000  0.62894000  1.0 -0.3814532818
N  N35  1  0.95680000  0.32410000  0.67415000  1.0 -0.3915057849
N  N36  1  0.95570000  0.24180000  0.67035000  1.0 -0.4086058635
N  N37  1  0.89270000  0.45860000  0.60642000  1.0 -0.1708172241
N  N38  1  0.05790000  0.26700000  0.77256000  1.0 -0.1790662295
N  N39  1  0.39370000  0.07190000  0.74520000  1.0 -0.0392601357
N  N40  1  0.92440000  0.07280000  0.53137000  1.0 -0.1956604879
N  N41  1  0.17770000  0.09110000  0.45351000  1.0 -0.3915057849
N  N42  1  0.18370000  0.12330000  0.40636000  1.0 -0.3814532818
N  N43  1  0.04070000  0.12370000  0.43269000  1.0 -0.3814532818
N  N44  1  0.50900000  0.05220000  0.41992000  1.0 -0.1790662295
N  N45  1  0.94310000  0.20070000  0.34031000  1.0 -0.1857514691
N  N46  1  0.10970000  0.37660000  0.09267000  1.0 -0.1708172241
N  N47  1  0.07690000  0.21210000  0.12894000  1.0 -0.3814532818
N  N48  1  0.04320000  0.17590000  0.17415000  1.0 -0.3915057849
N  N49  1  0.04430000  0.25820000  0.17035000  1.0 -0.4086058635
N  N50  1  0.10730000  0.04140000  0.10642000  1.0 -0.1708172241
N  N51  1  0.94210000  0.23300000  0.27256000  1.0 -0.1790662295
N  N52  1  0.60630000  0.42810000  0.24520000  1.0 -0.0392601357
N  N53  1  0.42440000  0.42720000  0.53137000  1.0 -0.1956604879
N  N54  1  0.67770000  0.40890000  0.45351000  1.0 -0.3915057849
N  N55  1  0.68370000  0.37670000  0.40636000  1.0 -0.3814532818
N  N56  1  0.54070000  0.37630000  0.43269000  1.0 -0.3814532818
N  N57  1  0.00900000  0.44780000  0.41992000  1.0 -0.1790662295
N  N58  1  0.44310000  0.29930000  0.34031000  1.0 -0.1790662295
N  N59  1  0.60970000  0.12340000  0.09267000  1.0 -0.1708172241
N  N60  1  0.57690000  0.28790000  0.12894000  1.0 -0.3814532818
N  N61  1  0.54320000  0.32410000  0.17415000  1.0 -0.3915057849
N  N62  1  0.54430000  0.24180000  0.17035000  1.0 -0.4086058635
N  N63  1  0.60730000  0.45860000  0.10642000  1.0 -0.1708172241
N  N64  1  0.44210000  0.26700000  0.27256000  1.0 -0.1790662295
N  N65  1  0.10630000  0.07190000  0.24520000  1.0 -0.0392601357
N  N66  1  0.57560000  0.07280000  0.03137000  1.0 -0.1956604879
N  N67  1  0.32230000  0.09110000  0.95351000  1.0 -0.3915057849
N  N68  1  0.31630000  0.12330000  0.90636000  1.0 -0.3814532818
N  N69  1  0.45930000  0.12370000  0.93269000  1.0 -0.3814532818
N  N70  1  0.99100000  0.05220000  0.91992000  1.0 -0.1790662295
N  N71  1  0.55690000  0.20070000  0.84031000  1.0 -0.1857514691
N  N72  1  0.39030000  0.37660000  0.59267000  1.0 -0.1708172241
N  N73  1  0.42310000  0.21210000  0.62894000  1.0 -0.3814532818
N  N74  1  0.45680000  0.17590000  0.67415000  1.0 -0.3915057849
N  N75  1  0.45570000  0.25820000  0.67035000  1.0 -0.4086058635
N  N76  1  0.39270000  0.04140000  0.60642000  1.0 -0.1708172241
N  N77  1  0.55790000  0.23300000  0.77256000  1.0 -0.1790662295
N  N78  1  0.89370000  0.42810000  0.74520000  1.0 -0.0392601357
N  N79  1  0.92440000  0.57280000  0.96863000  1.0 -0.1956604879
N  N80  1  0.17770000  0.59110000  0.04649000  1.0 -0.3915057849
N  N81  1  0.18370000  0.62330000  0.09364000  1.0 -0.3814532818
N  N82  1  0.04070000  0.62370000  0.06731000  1.0 -0.3814532818
N  N83  1  0.50900000  0.55220000  0.08008000  1.0 -0.1790662295
N  N84  1  0.94310000  0.70070000  0.15969000  1.0 -0.1857514691
N  N85  1  0.10970000  0.87660000  0.40733000  1.0 -0.1708172241
N  N86  1  0.07690000  0.71210000  0.37106000  1.0 -0.3814532818
N  N87  1  0.04320000  0.67590000  0.32585000  1.0 -0.3915057849
N  N88  1  0.04430000  0.75820000  0.32965000  1.0 -0.4086058635
N  N89  1  0.10730000  0.54140000  0.39358000  1.0 -0.1708172241
N  N90  1  0.94210000  0.73300000  0.22744000  1.0 -0.1790662295
N  N91  1  0.60630000  0.92810000  0.25480000  1.0 -0.0392601357
N  N92  1  0.07560000  0.92720000  0.46863000  1.0 -0.1956604879
N  N93  1  0.82230000  0.90890000  0.54649000  1.0 -0.3915057849
N  N94  1  0.81630000  0.87670000  0.59364000  1.0 -0.3814532818
N  N95  1  0.95930000  0.87630000  0.56731000  1.0 -0.3814532818
N  N96  1  0.49100000  0.94780000  0.58008000  1.0 -0.1790662295
N  N97  1  0.05690000  0.79930000  0.65969000  1.0 -0.1857514691
N  N98  1  0.89030000  0.62340000  0.90733000  1.0 -0.1708172241
N  N99  1  0.92310000  0.78790000  0.87106000  1.0 -0.3814532818
N  N100  1  0.95680000  0.82410000  0.82585000  1.0 -0.3915057849
N  N101  1  0.95570000  0.74180000  0.82965000  1.0 -0.4086058635
N  N102  1  0.89270000  0.95860000  0.89358000  1.0 -0.1708172241
N  N103  1  0.05790000  0.76700000  0.72744000  1.0 -0.1790662295
N  N104  1  0.39370000  0.57190000  0.75480000  1.0 -0.0392601357
O  O1  1  0.80420000  0.91890000  0.75810000  1.0 -0.2531854335
O  O2  1  0.95100000  0.93410000  0.77650000  1.0 -0.2841506512
O  O3  1  0.19580000  0.58110000  0.25810000  1.0 -0.2531854335
O  O4  1  0.04900000  0.56590000  0.27650000  1.0 -0.2841506512
O  O5  1  0.30420000  0.08110000  0.74190000  1.0 -0.2531854335
O  O6  1  0.45100000  0.06590000  0.72350000  1.0 -0.2841506512
O  O7  1  0.69580000  0.41890000  0.24190000  1.0 -0.2531854335
O  O8  1  0.54900000  0.43410000  0.22350000  1.0 -0.2912971339
O  O9  1  0.19580000  0.08110000  0.24190000  1.0 -0.2531854335
O  O10  1  0.04900000  0.06590000  0.22350000  1.0 -0.2841506512
O  O11  1  0.80420000  0.41890000  0.74190000  1.0 -0.2531854335
O  O12  1  0.95100000  0.43410000  0.72350000  1.0 -0.2912971339
O  O13  1  0.69580000  0.91890000  0.25810000  1.0 -0.2531854335
O  O14  1  0.54900000  0.93410000  0.27650000  1.0 -0.2841506512
O  O15  1  0.30420000  0.58110000  0.75810000  1.0 -0.2531854335
O  O16  1  0.45100000  0.56590000  0.77650000  1.0 -0.2841506512
