# DDEC6 charges by PACMAN v1.1 (https://github.com/mtap-research/PACMAN-charge/)
data_KEVXUH_ASR_pacman
_symmetry_space_group_name_H-M   'P 1'
_cell_length_a   13.93260000
_cell_length_b   28.59190000
_cell_length_c   45.93520000
_cell_angle_alpha   90.00000000
_cell_angle_beta   90.00000000
_cell_angle_gamma   90.00000000
_symmetry_Int_Tables_number   1
_chemical_formula_structural   Zn3H29C42I12N13O2
_chemical_formula_sum   'Zn24 H232 C336 I96 N104 O16'
_cell_volume   18298.72357726
_cell_formula_units_Z   8
loop_
 _symmetry_equiv_pos_site_id
 _symmetry_equiv_pos_as_xyz
  1  'x, y, z'
loop_
 _atom_site_type_symbol
 _atom_site_label
 _atom_site_symmetry_multiplicity
 _atom_site_fract_x
 _atom_site_fract_y
 _atom_site_fract_z
 _atom_site_occupancy
 _atom_site_charge
Zn  Zn1  1  0.64827000  0.56293000  0.43034000  1.0 0.4357973893
Zn  Zn2  1  0.85673000  0.52214000  0.58713000  1.0 0.4678519886
Zn  Zn3  1  0.63373000  0.74120000  0.68840000  1.0 0.4465316121
Zn  Zn4  1  0.35173000  0.93707000  0.93034000  1.0 0.434495065
Zn  Zn5  1  0.14327000  0.97786000  0.08713000  1.0 0.4678519886
Zn  Zn6  1  0.36627000  0.75880000  0.18840000  1.0 0.4465316121
Zn  Zn7  1  0.14827000  0.43707000  0.06966000  1.0 0.4357973893
Zn  Zn8  1  0.35673000  0.47786000  0.91287000  1.0 0.4678519886
Zn  Zn9  1  0.13373000  0.25880000  0.81160000  1.0 0.4465316121
Zn  Zn10  1  0.85173000  0.06293000  0.56966000  1.0 0.4357973893
Zn  Zn11  1  0.64327000  0.02214000  0.41287000  1.0 0.4678519886
Zn  Zn12  1  0.86627000  0.24120000  0.31160000  1.0 0.4465316121
Zn  Zn13  1  0.35173000  0.43707000  0.56966000  1.0 0.434495065
Zn  Zn14  1  0.14327000  0.47786000  0.41287000  1.0 0.4678519886
Zn  Zn15  1  0.36627000  0.25880000  0.31160000  1.0 0.4465316121
Zn  Zn16  1  0.64827000  0.06293000  0.06966000  1.0 0.4357973893
Zn  Zn17  1  0.85673000  0.02214000  0.91287000  1.0 0.4678519886
Zn  Zn18  1  0.63373000  0.24120000  0.81160000  1.0 0.4465316121
Zn  Zn19  1  0.85173000  0.56293000  0.93034000  1.0 0.434495065
Zn  Zn20  1  0.64327000  0.52214000  0.08713000  1.0 0.4678519886
Zn  Zn21  1  0.86627000  0.74120000  0.18840000  1.0 0.4465316121
Zn  Zn22  1  0.14827000  0.93707000  0.43034000  1.0 0.434495065
Zn  Zn23  1  0.35673000  0.97786000  0.58713000  1.0 0.4678519886
Zn  Zn24  1  0.13373000  0.75880000  0.68840000  1.0 0.4465316121
H  H1  1  0.45280000  0.54630000  0.45520000  1.0 0.1097673052
H  H2  1  0.36340000  0.56210000  0.49560000  1.0 0.1381812462
H  H3  1  0.59330000  0.61950000  0.53220000  1.0 0.1381812462
H  H4  1  0.68280000  0.59730000  0.49180000  1.0 0.1004552348
H  H5  1  0.16440000  0.55280000  0.53580000  1.0 0.1381812462
H  H6  1  0.01060000  0.52780000  0.54130000  1.0 0.1097673052
H  H7  1  0.99650000  0.58470000  0.61760000  1.0 0.1097673052
H  H8  1  0.15000000  0.61450000  0.61240000  1.0 0.1288408436
H  H9  1  0.34180000  0.67860000  0.63790000  1.0 0.1381812462
H  H10  1  0.42750000  0.71720000  0.67350000  1.0 0.1097673052
H  H11  1  0.66900000  0.67520000  0.63940000  1.0 0.1097673052
H  H12  1  0.59050000  0.64110000  0.60200000  1.0 0.1381812462
H  H13  1  0.36000000  0.83270000  0.93840000  1.0 0.1097673052
H  H14  1  0.39200000  0.76480000  0.91380000  1.0 0.1381812462
H  H15  1  0.44530000  0.84260000  0.84320000  1.0 0.1381812462
H  H16  1  0.42340000  0.90830000  0.87060000  1.0 0.1004552348
H  H17  1  0.42100000  0.64950000  0.90940000  1.0 0.1288408436
H  H18  1  0.39790000  0.57750000  0.92970000  1.0 0.1097673052
H  H19  1  0.39430000  0.51890000  0.85340000  1.0 0.1004552348
H  H20  1  0.42320000  0.58900000  0.83090000  1.0 0.1179291623
H  H21  1  0.52740000  0.65480000  0.77610000  1.0 0.1288408436
H  H22  1  0.57450000  0.66590000  0.72870000  1.0 0.1097673052
H  H23  1  0.52810000  0.79950000  0.73320000  1.0 0.1004552348
H  H24  1  0.47550000  0.79310000  0.78050000  1.0 0.1288408436
H  H25  1  0.04530000  0.93680000  0.74460000  1.0 0.1004552348
H  H26  1  0.12690000  0.94240000  0.70070000  1.0 0.1288408436
H  H27  1  0.04390000  0.93600000  0.65710000  1.0 0.1097673052
H  H28  1  0.87920000  0.92410000  0.65740000  1.0 0.1004552348
H  H29  1  0.79750000  0.91850000  0.70130000  1.0 0.0814899596
H  H30  1  0.54720000  0.95370000  0.95520000  1.0 0.1097673052
H  H31  1  0.63660000  0.93790000  0.99560000  1.0 0.1381812462
H  H32  1  0.40670000  0.88050000  0.03220000  1.0 0.1381812462
H  H33  1  0.31720000  0.90270000  0.99180000  1.0 0.1004552348
H  H34  1  0.83560000  0.94720000  0.03580000  1.0 0.1381812462
H  H35  1  0.98940000  0.97220000  0.04130000  1.0 0.1179291623
H  H36  1  0.00350000  0.91530000  0.11760000  1.0 0.1097673052
H  H37  1  0.85000000  0.88550000  0.11240000  1.0 0.1288408436
H  H38  1  0.65820000  0.82140000  0.13790000  1.0 0.1381812462
H  H39  1  0.57250000  0.78280000  0.17350000  1.0 0.1097673052
H  H40  1  0.33100000  0.82480000  0.13940000  1.0 0.1097673052
H  H41  1  0.40950000  0.85890000  0.10200000  1.0 0.1381812462
H  H42  1  0.64000000  0.66730000  0.43840000  1.0 0.1097673052
H  H43  1  0.60800000  0.73520000  0.41380000  1.0 0.1381812462
H  H44  1  0.55470000  0.65740000  0.34320000  1.0 0.1381812462
H  H45  1  0.57660000  0.59170000  0.37060000  1.0 0.1004552348
H  H46  1  0.57900000  0.85050000  0.40940000  1.0 0.1288408436
H  H47  1  0.60210000  0.92250000  0.42970000  1.0 0.1097673052
H  H48  1  0.60570000  0.98110000  0.35340000  1.0 0.1004552348
H  H49  1  0.57680000  0.91100000  0.33090000  1.0 0.1179291623
H  H50  1  0.47260000  0.84520000  0.27610000  1.0 0.1288408436
H  H51  1  0.42550000  0.83410000  0.22870000  1.0 0.1097673052
H  H52  1  0.47190000  0.70050000  0.23320000  1.0 0.1004552348
H  H53  1  0.52450000  0.70690000  0.28050000  1.0 0.1288408436
H  H54  1  0.95470000  0.56320000  0.24460000  1.0 0.1004552348
H  H55  1  0.87310000  0.55760000  0.20070000  1.0 0.1288408436
H  H56  1  0.95610000  0.56400000  0.15710000  1.0 0.1097673052
H  H57  1  0.12080000  0.57590000  0.15740000  1.0 0.1004552348
H  H58  1  0.20250000  0.58150000  0.20130000  1.0 0.0814899596
H  H59  1  0.95280000  0.45370000  0.04480000  1.0 0.1097673052
H  H60  1  0.86340000  0.43790000  0.00440000  1.0 0.1381812462
H  H61  1  0.09330000  0.38050000  0.96780000  1.0 0.1381812462
H  H62  1  0.18280000  0.40270000  0.00820000  1.0 0.1004552348
H  H63  1  0.66440000  0.44720000  0.96420000  1.0 0.1381812462
H  H64  1  0.51060000  0.47220000  0.95870000  1.0 0.1097673052
H  H65  1  0.49650000  0.41530000  0.88240000  1.0 0.1097673052
H  H66  1  0.65000000  0.38550000  0.88760000  1.0 0.1288408436
H  H67  1  0.84180000  0.32140000  0.86210000  1.0 0.1381812462
H  H68  1  0.92750000  0.28280000  0.82650000  1.0 0.1097673052
H  H69  1  0.16900000  0.32480000  0.86060000  1.0 0.1097673052
H  H70  1  0.09050000  0.35890000  0.89800000  1.0 0.1381812462
H  H71  1  0.86000000  0.16730000  0.56160000  1.0 0.1097673052
H  H72  1  0.89200000  0.23520000  0.58620000  1.0 0.1381812462
H  H73  1  0.94530000  0.15740000  0.65680000  1.0 0.1381812462
H  H74  1  0.92340000  0.09170000  0.62940000  1.0 0.1004552348
H  H75  1  0.92100000  0.35050000  0.59060000  1.0 0.1288408436
H  H76  1  0.89790000  0.42250000  0.57030000  1.0 0.1097673052
H  H77  1  0.89430000  0.48110000  0.64660000  1.0 0.1004552348
H  H78  1  0.92320000  0.41100000  0.66910000  1.0 0.1179291623
H  H79  1  0.02740000  0.34520000  0.72390000  1.0 0.1288408436
H  H80  1  0.07450000  0.33410000  0.77130000  1.0 0.1097673052
H  H81  1  0.02810000  0.20050000  0.76680000  1.0 0.1004552348
H  H82  1  0.97550000  0.20690000  0.71950000  1.0 0.1288408436
H  H83  1  0.54530000  0.06320000  0.75540000  1.0 0.1004552348
H  H84  1  0.62690000  0.05760000  0.79930000  1.0 0.1288408436
H  H85  1  0.54390000  0.06400000  0.84290000  1.0 0.1097673052
H  H86  1  0.37920000  0.07590000  0.84260000  1.0 0.1004552348
H  H87  1  0.29750000  0.08150000  0.79870000  1.0 0.0814899596
H  H88  1  0.04720000  0.04630000  0.54480000  1.0 0.1097673052
H  H89  1  0.13660000  0.06210000  0.50440000  1.0 0.1381812462
H  H90  1  0.90670000  0.11950000  0.46780000  1.0 0.1381812462
H  H91  1  0.81720000  0.09730000  0.50820000  1.0 0.1004552348
H  H92  1  0.33560000  0.05280000  0.46420000  1.0 0.1381812462
H  H93  1  0.48940000  0.02780000  0.45870000  1.0 0.1097673052
H  H94  1  0.50350000  0.08470000  0.38240000  1.0 0.1097673052
H  H95  1  0.35000000  0.11450000  0.38760000  1.0 0.1288408436
H  H96  1  0.15820000  0.17860000  0.36210000  1.0 0.1381812462
H  H97  1  0.07250000  0.21720000  0.32650000  1.0 0.1097673052
H  H98  1  0.83100000  0.17520000  0.36060000  1.0 0.1097673052
H  H99  1  0.90950000  0.14110000  0.39800000  1.0 0.1381812462
H  H100  1  0.14000000  0.33270000  0.06160000  1.0 0.1097673052
H  H101  1  0.10800000  0.26480000  0.08620000  1.0 0.1381812462
H  H102  1  0.05470000  0.34260000  0.15680000  1.0 0.1381812462
H  H103  1  0.07660000  0.40830000  0.12940000  1.0 0.1004552348
H  H104  1  0.07900000  0.14950000  0.09060000  1.0 0.1288408436
H  H105  1  0.10210000  0.07750000  0.07030000  1.0 0.1097673052
H  H106  1  0.10570000  0.01890000  0.14660000  1.0 0.1004552348
H  H107  1  0.07680000  0.08900000  0.16910000  1.0 0.1179291623
H  H108  1  0.97260000  0.15480000  0.22390000  1.0 0.1288408436
H  H109  1  0.92550000  0.16590000  0.27130000  1.0 0.1097673052
H  H110  1  0.97190000  0.29950000  0.26680000  1.0 0.1004552348
H  H111  1  0.02450000  0.29310000  0.21950000  1.0 0.1288408436
H  H112  1  0.45470000  0.43680000  0.25540000  1.0 0.1004552348
H  H113  1  0.37310000  0.44240000  0.29930000  1.0 0.1288408436
H  H114  1  0.45610000  0.43600000  0.34290000  1.0 0.1097673052
H  H115  1  0.62080000  0.42410000  0.34260000  1.0 0.1004552348
H  H116  1  0.70250000  0.41850000  0.29870000  1.0 0.0814899596
H  H117  1  0.54720000  0.45370000  0.54480000  1.0 0.1097673052
H  H118  1  0.63660000  0.43790000  0.50440000  1.0 0.1381812462
H  H119  1  0.40670000  0.38050000  0.46780000  1.0 0.1381812462
H  H120  1  0.31720000  0.40270000  0.50820000  1.0 0.1004552348
H  H121  1  0.83560000  0.44720000  0.46420000  1.0 0.1381812462
H  H122  1  0.98940000  0.47220000  0.45870000  1.0 0.1097673052
H  H123  1  0.00350000  0.41530000  0.38240000  1.0 0.1097673052
H  H124  1  0.85000000  0.38550000  0.38760000  1.0 0.1288408436
H  H125  1  0.65820000  0.32140000  0.36210000  1.0 0.1381812462
H  H126  1  0.57250000  0.28280000  0.32650000  1.0 0.1097673052
H  H127  1  0.33100000  0.32480000  0.36060000  1.0 0.1097673052
H  H128  1  0.40950000  0.35890000  0.39800000  1.0 0.1381812462
H  H129  1  0.64000000  0.16730000  0.06160000  1.0 0.1097673052
H  H130  1  0.60800000  0.23520000  0.08620000  1.0 0.1381812462
H  H131  1  0.55470000  0.15740000  0.15680000  1.0 0.1381812462
H  H132  1  0.57660000  0.09170000  0.12940000  1.0 0.1004552348
H  H133  1  0.57900000  0.35050000  0.09060000  1.0 0.1288408436
H  H134  1  0.60210000  0.42250000  0.07030000  1.0 0.1097673052
H  H135  1  0.60570000  0.48110000  0.14660000  1.0 0.1004552348
H  H136  1  0.57680000  0.41100000  0.16910000  1.0 0.1179291623
H  H137  1  0.47260000  0.34520000  0.22390000  1.0 0.1288408436
H  H138  1  0.42550000  0.33410000  0.27130000  1.0 0.1097673052
H  H139  1  0.47190000  0.20050000  0.26680000  1.0 0.1004552348
H  H140  1  0.52450000  0.20690000  0.21950000  1.0 0.1288408436
H  H141  1  0.95470000  0.06320000  0.25540000  1.0 0.1004552348
H  H142  1  0.87310000  0.05760000  0.29930000  1.0 0.1288408436
H  H143  1  0.95610000  0.06400000  0.34290000  1.0 0.1097673052
H  H144  1  0.12080000  0.07590000  0.34260000  1.0 0.1004552348
H  H145  1  0.20250000  0.08150000  0.29870000  1.0 0.0814899596
H  H146  1  0.45280000  0.04630000  0.04480000  1.0 0.1097673052
H  H147  1  0.36340000  0.06210000  0.00440000  1.0 0.1381812462
H  H148  1  0.59330000  0.11950000  0.96780000  1.0 0.1381812462
H  H149  1  0.68280000  0.09730000  0.00820000  1.0 0.1004552348
H  H150  1  0.16440000  0.05280000  0.96420000  1.0 0.1381812462
H  H151  1  0.01060000  0.02780000  0.95870000  1.0 0.1097673052
H  H152  1  0.99650000  0.08470000  0.88240000  1.0 0.1097673052
H  H153  1  0.15000000  0.11450000  0.88760000  1.0 0.1288408436
H  H154  1  0.34180000  0.17860000  0.86210000  1.0 0.1381812462
H  H155  1  0.42750000  0.21720000  0.82650000  1.0 0.1097673052
H  H156  1  0.66900000  0.17520000  0.86060000  1.0 0.1097673052
H  H157  1  0.59050000  0.14110000  0.89800000  1.0 0.1381812462
H  H158  1  0.36000000  0.33270000  0.56160000  1.0 0.1097673052
H  H159  1  0.39200000  0.26480000  0.58620000  1.0 0.1381812462
H  H160  1  0.44530000  0.34260000  0.65680000  1.0 0.1381812462
H  H161  1  0.42340000  0.40830000  0.62940000  1.0 0.1004552348
H  H162  1  0.42100000  0.14950000  0.59060000  1.0 0.1288408436
H  H163  1  0.39790000  0.07750000  0.57030000  1.0 0.1097673052
H  H164  1  0.39430000  0.01890000  0.64660000  1.0 0.1004552348
H  H165  1  0.42320000  0.08900000  0.66910000  1.0 0.1179291623
H  H166  1  0.52740000  0.15480000  0.72390000  1.0 0.1288408436
H  H167  1  0.57450000  0.16590000  0.77130000  1.0 0.1097673052
H  H168  1  0.52810000  0.29950000  0.76680000  1.0 0.1004552348
H  H169  1  0.47550000  0.29310000  0.71950000  1.0 0.1288408436
H  H170  1  0.04530000  0.43680000  0.75540000  1.0 0.1004552348
H  H171  1  0.12690000  0.44240000  0.79930000  1.0 0.1288408436
H  H172  1  0.04390000  0.43600000  0.84290000  1.0 0.1097673052
H  H173  1  0.87920000  0.42410000  0.84260000  1.0 0.1004552348
H  H174  1  0.79750000  0.41850000  0.79870000  1.0 0.0814899596
H  H175  1  0.04720000  0.54630000  0.95520000  1.0 0.1097673052
H  H176  1  0.13660000  0.56210000  0.99560000  1.0 0.1381812462
H  H177  1  0.90670000  0.61950000  0.03220000  1.0 0.1381812462
H  H178  1  0.81720000  0.59730000  0.99180000  1.0 0.1004552348
H  H179  1  0.33560000  0.55280000  0.03580000  1.0 0.1381812462
H  H180  1  0.48940000  0.52780000  0.04130000  1.0 0.1097673052
H  H181  1  0.50350000  0.58470000  0.11760000  1.0 0.1097673052
H  H182  1  0.35000000  0.61450000  0.11240000  1.0 0.1288408436
H  H183  1  0.15820000  0.67860000  0.13790000  1.0 0.1381812462
H  H184  1  0.07250000  0.71720000  0.17350000  1.0 0.1097673052
H  H185  1  0.83100000  0.67520000  0.13940000  1.0 0.1097673052
H  H186  1  0.90950000  0.64110000  0.10200000  1.0 0.1381812462
H  H187  1  0.14000000  0.83270000  0.43840000  1.0 0.1097673052
H  H188  1  0.10800000  0.76480000  0.41380000  1.0 0.1381812462
H  H189  1  0.05470000  0.84260000  0.34320000  1.0 0.1381812462
H  H190  1  0.07660000  0.90830000  0.37060000  1.0 0.1004552348
H  H191  1  0.07900000  0.64950000  0.40940000  1.0 0.1288408436
H  H192  1  0.10210000  0.57750000  0.42970000  1.0 0.1097673052
H  H193  1  0.10570000  0.51890000  0.35340000  1.0 0.1004552348
H  H194  1  0.07680000  0.58900000  0.33090000  1.0 0.1179291623
H  H195  1  0.97260000  0.65480000  0.27610000  1.0 0.1288408436
H  H196  1  0.92550000  0.66590000  0.22870000  1.0 0.1097673052
H  H197  1  0.97190000  0.79950000  0.23320000  1.0 0.1004552348
H  H198  1  0.02450000  0.79310000  0.28050000  1.0 0.1288408436
H  H199  1  0.45470000  0.93680000  0.24460000  1.0 0.1004552348
H  H200  1  0.37310000  0.94240000  0.20070000  1.0 0.1288408436
H  H201  1  0.45610000  0.93600000  0.15710000  1.0 0.1097673052
H  H202  1  0.62080000  0.92410000  0.15740000  1.0 0.1004552348
H  H203  1  0.70250000  0.91850000  0.20130000  1.0 0.0814899596
H  H204  1  0.95280000  0.95370000  0.45520000  1.0 0.1097673052
H  H205  1  0.86340000  0.93790000  0.49560000  1.0 0.1381812462
H  H206  1  0.09330000  0.88050000  0.53220000  1.0 0.1381812462
H  H207  1  0.18280000  0.90270000  0.49180000  1.0 0.1004552348
H  H208  1  0.66440000  0.94720000  0.53580000  1.0 0.1381812462
H  H209  1  0.51060000  0.97220000  0.54130000  1.0 0.1097673052
H  H210  1  0.49650000  0.91530000  0.61760000  1.0 0.1097673052
H  H211  1  0.65000000  0.88550000  0.61240000  1.0 0.1288408436
H  H212  1  0.84180000  0.82140000  0.63790000  1.0 0.1381812462
H  H213  1  0.92750000  0.78280000  0.67350000  1.0 0.1097673052
H  H214  1  0.16900000  0.82480000  0.63940000  1.0 0.1097673052
H  H215  1  0.09050000  0.85890000  0.60200000  1.0 0.1381812462
H  H216  1  0.86000000  0.66730000  0.93840000  1.0 0.1097673052
H  H217  1  0.89200000  0.73520000  0.91380000  1.0 0.1381812462
H  H218  1  0.94530000  0.65740000  0.84320000  1.0 0.1381812462
H  H219  1  0.92340000  0.59170000  0.87060000  1.0 0.1004552348
H  H220  1  0.92100000  0.85050000  0.90940000  1.0 0.1288408436
H  H221  1  0.89790000  0.92250000  0.92970000  1.0 0.1097673052
H  H222  1  0.89430000  0.98110000  0.85340000  1.0 0.1004552348
H  H223  1  0.92320000  0.91100000  0.83090000  1.0 0.1179291623
H  H224  1  0.02740000  0.84520000  0.77610000  1.0 0.1288408436
H  H225  1  0.07450000  0.83410000  0.72870000  1.0 0.1097673052
H  H226  1  0.02810000  0.70050000  0.73320000  1.0 0.1004552348
H  H227  1  0.97550000  0.70690000  0.78050000  1.0 0.1288408436
H  H228  1  0.54530000  0.56320000  0.74460000  1.0 0.1004552348
H  H229  1  0.62690000  0.55760000  0.70070000  1.0 0.1288408436
H  H230  1  0.54390000  0.56400000  0.65710000  1.0 0.1097673052
H  H231  1  0.37920000  0.57590000  0.65740000  1.0 0.1004552348
H  H232  1  0.29750000  0.58150000  0.70130000  1.0 0.0814899596
C  C1  1  0.48200000  0.56120000  0.47086000  1.0 0.0814899596
C  C2  1  0.42780000  0.57060000  0.49512000  1.0 -0.1582801234
C  C3  1  0.46920000  0.59290000  0.51917000  1.0 0.0514257253
C  C4  1  0.56340000  0.60380000  0.51695000  1.0 -0.139359691
C  C5  1  0.61700000  0.59180000  0.49217000  1.0 0.0814899596
C  C6  1  0.41390000  0.60360000  0.54536000  1.0 0.351241972
C  C7  1  0.27530000  0.60210000  0.57065000  1.0 0.3777777065
C  C8  1  0.40880000  0.63395000  0.59015000  1.0 0.3609321027
C  C9  1  0.17360000  0.58620000  0.57403000  1.0 0.0514257253
C  C10  1  0.13100000  0.55990000  0.55273000  1.0 -0.139359691
C  C11  1  0.03960000  0.54440000  0.55638000  1.0 0.0814899596
C  C12  1  0.03090000  0.57800000  0.60074000  1.0 0.0814899596
C  C13  1  0.12360000  0.59590000  0.59782000  1.0 -0.139359691
C  C14  1  0.45950000  0.65650000  0.61503000  1.0 0.0594410307
C  C15  1  0.40850000  0.67890000  0.63752000  1.0 -0.1498080771
C  C16  1  0.46050000  0.70130000  0.65892000  1.0 0.0814899596
C  C17  1  0.60240000  0.67720000  0.63859000  1.0 0.0705799699
C  C18  1  0.55560000  0.65610000  0.61648000  1.0 -0.1316490357
C  C19  1  0.37920000  0.83460000  0.91904000  1.0 0.0863142218
C  C20  1  0.39600000  0.79350000  0.90438000  1.0 -0.1582801234
C  C21  1  0.41930000  0.79617000  0.87497000  1.0 0.0594410307
C  C22  1  0.42900000  0.83981000  0.86274000  1.0 -0.1498080771
C  C23  1  0.41480000  0.87910000  0.87916000  1.0 0.0594410307
C  C24  1  0.43220000  0.75284000  0.85755000  1.0 0.3609321027
C  C25  1  0.43400000  0.67480000  0.85406000  1.0 0.3682819756
C  C26  1  0.46550000  0.71938000  0.81446000  1.0 0.3609321027
C  C27  1  0.42250000  0.62827000  0.86750000  1.0 0.0514257253
C  C28  1  0.41580000  0.62330000  0.89747000  1.0 -0.139359691
C  C29  1  0.40150000  0.57990000  0.90955000  1.0 0.0814899596
C  C30  1  0.40020000  0.54560000  0.86481000  1.0 0.0594410307
C  C31  1  0.41640000  0.58780000  0.85105000  1.0 -0.1498080771
C  C32  1  0.49360000  0.72413000  0.78390000  1.0 0.044820665
C  C33  1  0.52620000  0.68440000  0.76779000  1.0 -0.1498080771
C  C34  1  0.55570000  0.69170000  0.73965000  1.0 0.0814899596
C  C35  1  0.52790000  0.77030000  0.74217000  1.0 0.0814899596
C  C36  1  0.49570000  0.76659000  0.77054000  1.0 -0.1316490357
C  C37  1  0.91330000  0.92710000  0.72730000  1.0 0.0078465416
C  C38  1  0.01200000  0.93420000  0.72710000  1.0 -0.1316490357
C  C39  1  0.06090000  0.93760000  0.70080000  1.0 -0.0707248527
C  C40  1  0.01120000  0.93380000  0.67470000  1.0 -0.0707248527
C  C41  1  0.91250000  0.92660000  0.67490000  1.0 -0.0934565192
C  C42  1  0.86360000  0.92330000  0.70120000  1.0 -0.1498080771
C  C43  1  0.51800000  0.93880000  0.97086000  1.0 0.0814899596
C  C44  1  0.57220000  0.92940000  0.99512000  1.0 -0.1582801234
C  C45  1  0.53080000  0.90710000  0.01917000  1.0 0.0514257253
C  C46  1  0.43660000  0.89620000  0.01695000  1.0 -0.139359691
C  C47  1  0.38300000  0.90820000  0.99217000  1.0 0.0814899596
C  C48  1  0.58610000  0.89640000  0.04536000  1.0 0.351241972
C  C49  1  0.72470000  0.89790000  0.07065000  1.0 0.3777777065
C  C50  1  0.59120000  0.86605000  0.09015000  1.0 0.3682819756
C  C51  1  0.82640000  0.91380000  0.07403000  1.0 0.0514257253
C  C52  1  0.86900000  0.94010000  0.05273000  1.0 -0.139359691
C  C53  1  0.96040000  0.95560000  0.05638000  1.0 0.0814899596
C  C54  1  0.96910000  0.92200000  0.10074000  1.0 0.0814899596
C  C55  1  0.87640000  0.90410000  0.09782000  1.0 -0.139359691
C  C56  1  0.54050000  0.84350000  0.11503000  1.0 0.0594410307
C  C57  1  0.59150000  0.82110000  0.13752000  1.0 -0.1498080771
C  C58  1  0.53950000  0.79870000  0.15892000  1.0 0.0814899596
C  C59  1  0.39760000  0.82280000  0.13859000  1.0 0.0705799699
C  C60  1  0.44440000  0.84390000  0.11648000  1.0 -0.1316490357
C  C61  1  0.62080000  0.66540000  0.41904000  1.0 0.0863142218
C  C62  1  0.60400000  0.70650000  0.40438000  1.0 -0.1582801234
C  C63  1  0.58070000  0.70383000  0.37497000  1.0 0.0594410307
C  C64  1  0.57100000  0.66019000  0.36274000  1.0 -0.139359691
C  C65  1  0.58520000  0.62090000  0.37916000  1.0 0.0594410307
C  C66  1  0.56780000  0.74716000  0.35755000  1.0 0.3609321027
C  C67  1  0.56600000  0.82520000  0.35406000  1.0 0.3682819756
C  C68  1  0.53450000  0.78062000  0.31446000  1.0 0.3609321027
C  C69  1  0.57750000  0.87173000  0.36750000  1.0 0.0514257253
C  C70  1  0.58420000  0.87670000  0.39747000  1.0 -0.139359691
C  C71  1  0.59850000  0.92010000  0.40955000  1.0 0.0814899596
C  C72  1  0.59980000  0.95440000  0.36481000  1.0 0.0594410307
C  C73  1  0.58360000  0.91220000  0.35105000  1.0 -0.1498080771
C  C74  1  0.50640000  0.77587000  0.28390000  1.0 0.044820665
C  C75  1  0.47380000  0.81560000  0.26779000  1.0 -0.1498080771
C  C76  1  0.44430000  0.80830000  0.23965000  1.0 0.0814899596
C  C77  1  0.47210000  0.72970000  0.24217000  1.0 0.0814899596
C  C78  1  0.50430000  0.73341000  0.27054000  1.0 -0.1316490357
C  C79  1  0.08670000  0.57290000  0.22730000  1.0 0.0078465416
C  C80  1  0.98800000  0.56580000  0.22710000  1.0 -0.1316490357
C  C81  1  0.93910000  0.56240000  0.20080000  1.0 -0.0707248527
C  C82  1  0.98880000  0.56620000  0.17470000  1.0 -0.0707248527
C  C83  1  0.08750000  0.57340000  0.17490000  1.0 -0.0934565192
C  C84  1  0.13640000  0.57670000  0.20120000  1.0 -0.1498080771
C  C85  1  0.98200000  0.43880000  0.02914000  1.0 0.0814899596
C  C86  1  0.92780000  0.42940000  0.00488000  1.0 -0.1498080771
C  C87  1  0.96920000  0.40710000  0.98083000  1.0 0.0514257253
C  C88  1  0.06340000  0.39620000  0.98305000  1.0 -0.139359691
C  C89  1  0.11700000  0.40820000  0.00783000  1.0 0.0814899596
C  C90  1  0.91390000  0.39640000  0.95464000  1.0 0.351241972
C  C91  1  0.77530000  0.39790000  0.92935000  1.0 0.3777777065
C  C92  1  0.90880000  0.36605000  0.90985000  1.0 0.3682819756
C  C93  1  0.67360000  0.41380000  0.92597000  1.0 0.0514257253
C  C94  1  0.63100000  0.44010000  0.94727000  1.0 -0.139359691
C  C95  1  0.53960000  0.45560000  0.94362000  1.0 0.0814899596
C  C96  1  0.53090000  0.42200000  0.89926000  1.0 0.0814899596
C  C97  1  0.62360000  0.40410000  0.90218000  1.0 -0.1498080771
C  C98  1  0.95950000  0.34350000  0.88497000  1.0 0.0594410307
C  C99  1  0.90850000  0.32110000  0.86248000  1.0 -0.1498080771
C  C100  1  0.96050000  0.29870000  0.84108000  1.0 0.0814899596
C  C101  1  0.10240000  0.32280000  0.86141000  1.0 0.0705799699
C  C102  1  0.05560000  0.34390000  0.88352000  1.0 -0.1316490357
C  C103  1  0.87920000  0.16540000  0.58096000  1.0 0.0863142218
C  C104  1  0.89600000  0.20650000  0.59562000  1.0 -0.1582801234
C  C105  1  0.91930000  0.20383000  0.62503000  1.0 0.0594410307
C  C106  1  0.92900000  0.16019000  0.63726000  1.0 -0.139359691
C  C107  1  0.91480000  0.12090000  0.62084000  1.0 0.0594410307
C  C108  1  0.93220000  0.24716000  0.64245000  1.0 0.3609321027
C  C109  1  0.93400000  0.32520000  0.64594000  1.0 0.3682819756
C  C110  1  0.96550000  0.28062000  0.68554000  1.0 0.3609321027
C  C111  1  0.92250000  0.37173000  0.63250000  1.0 0.0514257253
C  C112  1  0.91580000  0.37670000  0.60253000  1.0 -0.139359691
C  C113  1  0.90150000  0.42010000  0.59045000  1.0 0.0814899596
C  C114  1  0.90020000  0.45440000  0.63519000  1.0 0.0594410307
C  C115  1  0.91640000  0.41220000  0.64895000  1.0 -0.1498080771
C  C116  1  0.99360000  0.27587000  0.71610000  1.0 0.044820665
C  C117  1  0.02620000  0.31560000  0.73221000  1.0 -0.1498080771
C  C118  1  0.05570000  0.30830000  0.76035000  1.0 0.0814899596
C  C119  1  0.02790000  0.22970000  0.75783000  1.0 0.0814899596
C  C120  1  0.99570000  0.23341000  0.72946000  1.0 -0.1316490357
C  C121  1  0.41330000  0.07290000  0.77270000  1.0 0.0078465416
C  C122  1  0.51200000  0.06580000  0.77290000  1.0 -0.1316490357
C  C123  1  0.56090000  0.06240000  0.79920000  1.0 -0.0707248527
C  C124  1  0.51120000  0.06620000  0.82530000  1.0 -0.0707248527
C  C125  1  0.41250000  0.07340000  0.82510000  1.0 -0.0934565192
C  C126  1  0.36360000  0.07670000  0.79880000  1.0 -0.1498080771
C  C127  1  0.01800000  0.06120000  0.52914000  1.0 0.0814899596
C  C128  1  0.07220000  0.07060000  0.50488000  1.0 -0.1498080771
C  C129  1  0.03080000  0.09290000  0.48083000  1.0 0.0514257253
C  C130  1  0.93660000  0.10380000  0.48305000  1.0 -0.139359691
C  C131  1  0.88300000  0.09180000  0.50783000  1.0 0.0814899596
C  C132  1  0.08610000  0.10360000  0.45464000  1.0 0.351241972
C  C133  1  0.22470000  0.10210000  0.42935000  1.0 0.3777777065
C  C134  1  0.09120000  0.13395000  0.40985000  1.0 0.3682819756
C  C135  1  0.32640000  0.08620000  0.42597000  1.0 0.0514257253
C  C136  1  0.36900000  0.05990000  0.44727000  1.0 -0.139359691
C  C137  1  0.46040000  0.04440000  0.44362000  1.0 0.0814899596
C  C138  1  0.46910000  0.07800000  0.39926000  1.0 0.0814899596
C  C139  1  0.37640000  0.09590000  0.40218000  1.0 -0.139359691
C  C140  1  0.04050000  0.15650000  0.38497000  1.0 0.0594410307
C  C141  1  0.09150000  0.17890000  0.36248000  1.0 -0.1498080771
C  C142  1  0.03950000  0.20130000  0.34108000  1.0 0.0814899596
C  C143  1  0.89760000  0.17720000  0.36141000  1.0 0.0705799699
C  C144  1  0.94440000  0.15610000  0.38352000  1.0 -0.1316490357
C  C145  1  0.12080000  0.33460000  0.08096000  1.0 0.0863142218
C  C146  1  0.10400000  0.29350000  0.09562000  1.0 -0.1582801234
C  C147  1  0.08070000  0.29617000  0.12503000  1.0 0.0594410307
C  C148  1  0.07100000  0.33981000  0.13726000  1.0 -0.139359691
C  C149  1  0.08520000  0.37910000  0.12084000  1.0 0.0594410307
C  C150  1  0.06780000  0.25284000  0.14245000  1.0 0.3609321027
C  C151  1  0.06600000  0.17480000  0.14594000  1.0 0.3682819756
C  C152  1  0.03450000  0.21938000  0.18554000  1.0 0.3609321027
C  C153  1  0.07750000  0.12827000  0.13250000  1.0 0.0514257253
C  C154  1  0.08420000  0.12330000  0.10253000  1.0 -0.139359691
C  C155  1  0.09850000  0.07990000  0.09045000  1.0 0.0814899596
C  C156  1  0.09980000  0.04560000  0.13519000  1.0 0.0594410307
C  C157  1  0.08360000  0.08780000  0.14895000  1.0 -0.1498080771
C  C158  1  0.00640000  0.22413000  0.21610000  1.0 0.044820665
C  C159  1  0.97380000  0.18440000  0.23221000  1.0 -0.1498080771
C  C160  1  0.94430000  0.19170000  0.26035000  1.0 0.0814899596
C  C161  1  0.97210000  0.27030000  0.25783000  1.0 0.0814899596
C  C162  1  0.00430000  0.26659000  0.22946000  1.0 -0.1316490357
C  C163  1  0.58670000  0.42710000  0.27270000  1.0 0.0078465416
C  C164  1  0.48800000  0.43420000  0.27290000  1.0 -0.1316490357
C  C165  1  0.43910000  0.43760000  0.29920000  1.0 -0.0707248527
C  C166  1  0.48880000  0.43380000  0.32530000  1.0 -0.0707248527
C  C167  1  0.58750000  0.42660000  0.32510000  1.0 -0.0934565192
C  C168  1  0.63640000  0.42330000  0.29880000  1.0 -0.1498080771
C  C169  1  0.51800000  0.43880000  0.52914000  1.0 0.0814899596
C  C170  1  0.57220000  0.42940000  0.50488000  1.0 -0.1498080771
C  C171  1  0.53080000  0.40710000  0.48083000  1.0 0.0514257253
C  C172  1  0.43660000  0.39620000  0.48305000  1.0 -0.139359691
C  C173  1  0.38300000  0.40820000  0.50783000  1.0 0.0814899596
C  C174  1  0.58610000  0.39640000  0.45464000  1.0 0.351241972
C  C175  1  0.72470000  0.39790000  0.42935000  1.0 0.3777777065
C  C176  1  0.59120000  0.36605000  0.40985000  1.0 0.3682819756
C  C177  1  0.82640000  0.41380000  0.42597000  1.0 0.0514257253
C  C178  1  0.86900000  0.44010000  0.44727000  1.0 -0.139359691
C  C179  1  0.96040000  0.45560000  0.44362000  1.0 0.0814899596
C  C180  1  0.96910000  0.42200000  0.39926000  1.0 0.0814899596
C  C181  1  0.87640000  0.40410000  0.40218000  1.0 -0.139359691
C  C182  1  0.54050000  0.34350000  0.38497000  1.0 0.0594410307
C  C183  1  0.59150000  0.32110000  0.36248000  1.0 -0.1498080771
C  C184  1  0.53950000  0.29870000  0.34108000  1.0 0.0814899596
C  C185  1  0.39760000  0.32280000  0.36141000  1.0 0.0705799699
C  C186  1  0.44440000  0.34390000  0.38352000  1.0 -0.1316490357
C  C187  1  0.62080000  0.16540000  0.08096000  1.0 0.0814899596
C  C188  1  0.60400000  0.20650000  0.09562000  1.0 -0.1582801234
C  C189  1  0.58070000  0.20383000  0.12503000  1.0 0.0594410307
C  C190  1  0.57100000  0.16019000  0.13726000  1.0 -0.139359691
C  C191  1  0.58520000  0.12090000  0.12084000  1.0 0.0594410307
C  C192  1  0.56780000  0.24716000  0.14245000  1.0 0.3609321027
C  C193  1  0.56600000  0.32520000  0.14594000  1.0 0.3682819756
C  C194  1  0.53450000  0.28062000  0.18554000  1.0 0.3609321027
C  C195  1  0.57750000  0.37173000  0.13250000  1.0 0.0514257253
C  C196  1  0.58420000  0.37670000  0.10253000  1.0 -0.139359691
C  C197  1  0.59850000  0.42010000  0.09045000  1.0 0.0814899596
C  C198  1  0.59980000  0.45440000  0.13519000  1.0 0.0594410307
C  C199  1  0.58360000  0.41220000  0.14895000  1.0 -0.1498080771
C  C200  1  0.50640000  0.27587000  0.21610000  1.0 0.044820665
C  C201  1  0.47380000  0.31560000  0.23221000  1.0 -0.1498080771
C  C202  1  0.44430000  0.30830000  0.26035000  1.0 0.0814899596
C  C203  1  0.47210000  0.22970000  0.25783000  1.0 0.0814899596
C  C204  1  0.50430000  0.23341000  0.22946000  1.0 -0.1316490357
C  C205  1  0.08670000  0.07290000  0.27270000  1.0 0.0078465416
C  C206  1  0.98800000  0.06580000  0.27290000  1.0 -0.1316490357
C  C207  1  0.93910000  0.06240000  0.29920000  1.0 -0.0707248527
C  C208  1  0.98880000  0.06620000  0.32530000  1.0 -0.0707248527
C  C209  1  0.08750000  0.07340000  0.32510000  1.0 -0.0934565192
C  C210  1  0.13640000  0.07670000  0.29880000  1.0 -0.1498080771
C  C211  1  0.48200000  0.06120000  0.02914000  1.0 0.0814899596
C  C212  1  0.42780000  0.07060000  0.00488000  1.0 -0.1498080771
C  C213  1  0.46920000  0.09290000  0.98083000  1.0 0.0514257253
C  C214  1  0.56340000  0.10380000  0.98305000  1.0 -0.139359691
C  C215  1  0.61700000  0.09180000  0.00783000  1.0 0.0814899596
C  C216  1  0.41390000  0.10360000  0.95464000  1.0 0.351241972
C  C217  1  0.27530000  0.10210000  0.92935000  1.0 0.3777777065
C  C218  1  0.40880000  0.13395000  0.90985000  1.0 0.3682819756
C  C219  1  0.17360000  0.08620000  0.92597000  1.0 0.0514257253
C  C220  1  0.13100000  0.05990000  0.94727000  1.0 -0.139359691
C  C221  1  0.03960000  0.04440000  0.94362000  1.0 0.0814899596
C  C222  1  0.03090000  0.07800000  0.89926000  1.0 0.0814899596
C  C223  1  0.12360000  0.09590000  0.90218000  1.0 -0.1498080771
C  C224  1  0.45950000  0.15650000  0.88497000  1.0 0.0594410307
C  C225  1  0.40850000  0.17890000  0.86248000  1.0 -0.1498080771
C  C226  1  0.46050000  0.20130000  0.84108000  1.0 0.0814899596
C  C227  1  0.60240000  0.17720000  0.86141000  1.0 0.0705799699
C  C228  1  0.55560000  0.15610000  0.88352000  1.0 -0.1316490357
C  C229  1  0.37920000  0.33460000  0.58096000  1.0 0.0863142218
C  C230  1  0.39600000  0.29350000  0.59562000  1.0 -0.1582801234
C  C231  1  0.41930000  0.29617000  0.62503000  1.0 0.0594410307
C  C232  1  0.42900000  0.33981000  0.63726000  1.0 -0.1498080771
C  C233  1  0.41480000  0.37910000  0.62084000  1.0 0.0594410307
C  C234  1  0.43220000  0.25284000  0.64245000  1.0 0.3609321027
C  C235  1  0.43400000  0.17480000  0.64594000  1.0 0.3682819756
C  C236  1  0.46550000  0.21938000  0.68554000  1.0 0.3609321027
C  C237  1  0.42250000  0.12827000  0.63250000  1.0 0.0514257253
C  C238  1  0.41580000  0.12330000  0.60253000  1.0 -0.139359691
C  C239  1  0.40150000  0.07990000  0.59045000  1.0 0.0814899596
C  C240  1  0.40020000  0.04560000  0.63519000  1.0 0.0594410307
C  C241  1  0.41640000  0.08780000  0.64895000  1.0 -0.1498080771
C  C242  1  0.49360000  0.22413000  0.71610000  1.0 0.044820665
C  C243  1  0.52620000  0.18440000  0.73221000  1.0 -0.1498080771
C  C244  1  0.55570000  0.19170000  0.76035000  1.0 0.0814899596
C  C245  1  0.52790000  0.27030000  0.75783000  1.0 0.0814899596
C  C246  1  0.49570000  0.26659000  0.72946000  1.0 -0.1316490357
C  C247  1  0.91330000  0.42710000  0.77270000  1.0 0.0078465416
C  C248  1  0.01200000  0.43420000  0.77290000  1.0 -0.1316490357
C  C249  1  0.06090000  0.43760000  0.79920000  1.0 -0.0707248527
C  C250  1  0.01120000  0.43380000  0.82530000  1.0 -0.0707248527
C  C251  1  0.91250000  0.42660000  0.82510000  1.0 -0.0934565192
C  C252  1  0.86360000  0.42330000  0.79880000  1.0 -0.1498080771
C  C253  1  0.01800000  0.56120000  0.97086000  1.0 0.0814899596
C  C254  1  0.07220000  0.57060000  0.99512000  1.0 -0.1582801234
C  C255  1  0.03080000  0.59290000  0.01917000  1.0 0.0514257253
C  C256  1  0.93660000  0.60380000  0.01695000  1.0 -0.139359691
C  C257  1  0.88300000  0.59180000  0.99217000  1.0 0.0814899596
C  C258  1  0.08610000  0.60360000  0.04536000  1.0 0.351241972
C  C259  1  0.22470000  0.60210000  0.07065000  1.0 0.3777777065
C  C260  1  0.09120000  0.63395000  0.09015000  1.0 0.3682819756
C  C261  1  0.32640000  0.58620000  0.07403000  1.0 0.0514257253
C  C262  1  0.36900000  0.55990000  0.05273000  1.0 -0.139359691
C  C263  1  0.46040000  0.54440000  0.05638000  1.0 0.0814899596
C  C264  1  0.46910000  0.57800000  0.10074000  1.0 0.0814899596
C  C265  1  0.37640000  0.59590000  0.09782000  1.0 -0.139359691
C  C266  1  0.04050000  0.65650000  0.11503000  1.0 0.0594410307
C  C267  1  0.09150000  0.67890000  0.13752000  1.0 -0.1498080771
C  C268  1  0.03950000  0.70130000  0.15892000  1.0 0.0814899596
C  C269  1  0.89760000  0.67720000  0.13859000  1.0 0.0705799699
C  C270  1  0.94440000  0.65610000  0.11648000  1.0 -0.1316490357
C  C271  1  0.12080000  0.83460000  0.41904000  1.0 0.0863142218
C  C272  1  0.10400000  0.79350000  0.40438000  1.0 -0.1582801234
C  C273  1  0.08070000  0.79617000  0.37497000  1.0 0.0594410307
C  C274  1  0.07100000  0.83981000  0.36274000  1.0 -0.139359691
C  C275  1  0.08520000  0.87910000  0.37916000  1.0 0.0594410307
C  C276  1  0.06780000  0.75284000  0.35755000  1.0 0.3609321027
C  C277  1  0.06600000  0.67480000  0.35406000  1.0 0.3682819756
C  C278  1  0.03450000  0.71938000  0.31446000  1.0 0.3609321027
C  C279  1  0.07750000  0.62827000  0.36750000  1.0 0.0514257253
C  C280  1  0.08420000  0.62330000  0.39747000  1.0 -0.139359691
C  C281  1  0.09850000  0.57990000  0.40955000  1.0 0.0814899596
C  C282  1  0.09980000  0.54560000  0.36481000  1.0 0.0594410307
C  C283  1  0.08360000  0.58780000  0.35105000  1.0 -0.1498080771
C  C284  1  0.00640000  0.72413000  0.28390000  1.0 0.044820665
C  C285  1  0.97380000  0.68440000  0.26779000  1.0 -0.1498080771
C  C286  1  0.94430000  0.69170000  0.23965000  1.0 0.0814899596
C  C287  1  0.97210000  0.77030000  0.24217000  1.0 0.0814899596
C  C288  1  0.00430000  0.76659000  0.27054000  1.0 -0.1316490357
C  C289  1  0.58670000  0.92710000  0.22730000  1.0 0.0078465416
C  C290  1  0.48800000  0.93420000  0.22710000  1.0 -0.1316490357
C  C291  1  0.43910000  0.93760000  0.20080000  1.0 -0.0707248527
C  C292  1  0.48880000  0.93380000  0.17470000  1.0 -0.0707248527
C  C293  1  0.58750000  0.92660000  0.17490000  1.0 -0.0934565192
C  C294  1  0.63640000  0.92330000  0.20120000  1.0 -0.1498080771
C  C295  1  0.98200000  0.93880000  0.47086000  1.0 0.0814899596
C  C296  1  0.92780000  0.92940000  0.49512000  1.0 -0.1582801234
C  C297  1  0.96920000  0.90710000  0.51917000  1.0 0.0514257253
C  C298  1  0.06340000  0.89620000  0.51695000  1.0 -0.139359691
C  C299  1  0.11700000  0.90820000  0.49217000  1.0 0.0814899596
C  C300  1  0.91390000  0.89640000  0.54536000  1.0 0.351241972
C  C301  1  0.77530000  0.89790000  0.57065000  1.0 0.3777777065
C  C302  1  0.90880000  0.86605000  0.59015000  1.0 0.3609321027
C  C303  1  0.67360000  0.91380000  0.57403000  1.0 0.0514257253
C  C304  1  0.63100000  0.94010000  0.55273000  1.0 -0.139359691
C  C305  1  0.53960000  0.95560000  0.55638000  1.0 0.0814899596
C  C306  1  0.53090000  0.92200000  0.60074000  1.0 0.0814899596
C  C307  1  0.62360000  0.90410000  0.59782000  1.0 -0.139359691
C  C308  1  0.95950000  0.84350000  0.61503000  1.0 0.0594410307
C  C309  1  0.90850000  0.82110000  0.63752000  1.0 -0.1498080771
C  C310  1  0.96050000  0.79870000  0.65892000  1.0 0.0814899596
C  C311  1  0.10240000  0.82280000  0.63859000  1.0 0.0705799699
C  C312  1  0.05560000  0.84390000  0.61648000  1.0 -0.1316490357
C  C313  1  0.87920000  0.66540000  0.91904000  1.0 0.0863142218
C  C314  1  0.89600000  0.70650000  0.90438000  1.0 -0.1582801234
C  C315  1  0.91930000  0.70383000  0.87497000  1.0 0.0594410307
C  C316  1  0.92900000  0.66019000  0.86274000  1.0 -0.139359691
C  C317  1  0.91480000  0.62090000  0.87916000  1.0 0.0594410307
C  C318  1  0.93220000  0.74716000  0.85755000  1.0 0.3609321027
C  C319  1  0.93400000  0.82520000  0.85406000  1.0 0.3682819756
C  C320  1  0.96550000  0.78062000  0.81446000  1.0 0.3609321027
C  C321  1  0.92250000  0.87173000  0.86750000  1.0 0.0514257253
C  C322  1  0.91580000  0.87670000  0.89747000  1.0 -0.139359691
C  C323  1  0.90150000  0.92010000  0.90955000  1.0 0.0814899596
C  C324  1  0.90020000  0.95440000  0.86481000  1.0 0.0594410307
C  C325  1  0.91640000  0.91220000  0.85105000  1.0 -0.1498080771
C  C326  1  0.99360000  0.77587000  0.78390000  1.0 0.044820665
C  C327  1  0.02620000  0.81560000  0.76779000  1.0 -0.1498080771
C  C328  1  0.05570000  0.80830000  0.73965000  1.0 0.0814899596
C  C329  1  0.02790000  0.72970000  0.74217000  1.0 0.0814899596
C  C330  1  0.99570000  0.73341000  0.77054000  1.0 -0.1316490357
C  C331  1  0.41330000  0.57290000  0.72730000  1.0 0.0078465416
C  C332  1  0.51200000  0.56580000  0.72710000  1.0 -0.1316490357
C  C333  1  0.56090000  0.56240000  0.70080000  1.0 -0.0707248527
C  C334  1  0.51120000  0.56620000  0.67470000  1.0 -0.0707248527
C  C335  1  0.41250000  0.57340000  0.67490000  1.0 -0.0934565192
C  C336  1  0.36360000  0.57670000  0.70120000  1.0 -0.1498080771
I  I1  1  0.56847000  0.49613000  0.40326000  1.0 -0.2986318733
I  I2  1  0.82625000  0.57237000  0.44156000  1.0 -0.4444012751
I  I3  1  0.76822000  0.56845000  0.62576000  1.0 -0.4444012751
I  I4  1  0.78495000  0.50475000  0.53733000  1.0 -0.4713190313
I  I5  1  0.79536000  0.70082000  0.69531000  1.0 -0.4497724975
I  I6  1  0.63149000  0.82603000  0.67275000  1.0 -0.3309010532
I  I7  1  0.82500000  0.54800000  0.36530000  1.0 0.0514257253
I  I8  1  0.86500000  0.56250000  0.30660000  1.0 -0.0410213423
I  I9  1  0.73270000  0.88030000  0.71980000  1.0 0.1634614576
I  I10  1  0.83600000  0.92430000  0.76490000  1.0 0.2784099489
I  I11  1  0.73870000  0.49280000  0.36330000  1.0 0.0514257253
I  I12  1  0.89700000  0.49000000  0.32610000  1.0 0.0001161682
I  I13  1  0.43153000  0.00387000  0.90326000  1.0 -0.2986318733
I  I14  1  0.17375000  0.92763000  0.94156000  1.0 -0.4444012751
I  I15  1  0.23178000  0.93155000  0.12576000  1.0 -0.4444012751
I  I16  1  0.21505000  0.99525000  0.03733000  1.0 -0.4713190313
I  I17  1  0.20464000  0.79918000  0.19531000  1.0 -0.4497724975
I  I18  1  0.36851000  0.67397000  0.17275000  1.0 -0.3309010532
I  I19  1  0.17500000  0.95200000  0.86530000  1.0 0.0594410307
I  I20  1  0.13500000  0.93750000  0.80660000  1.0 -0.0410213423
I  I21  1  0.26730000  0.61970000  0.21980000  1.0 0.1674485762
I  I22  1  0.16400000  0.57570000  0.26490000  1.0 0.2685324509
I  I23  1  0.26130000  0.00720000  0.86330000  1.0 0.0594410307
I  I24  1  0.10300000  0.01000000  0.82610000  1.0 -0.0008218846
I  I25  1  0.06847000  0.50387000  0.09674000  1.0 -0.2986318733
I  I26  1  0.32625000  0.42763000  0.05844000  1.0 -0.4444012751
I  I27  1  0.26822000  0.43155000  0.87424000  1.0 -0.4444012751
I  I28  1  0.28495000  0.49525000  0.96267000  1.0 -0.4713190313
I  I29  1  0.29536000  0.29918000  0.80469000  1.0 -0.4497724975
I  I30  1  0.13149000  0.17397000  0.82725000  1.0 -0.3309010532
I  I31  1  0.32500000  0.45200000  0.13470000  1.0 0.0514257253
I  I32  1  0.36500000  0.43750000  0.19340000  1.0 -0.0410213423
I  I33  1  0.23270000  0.11970000  0.78020000  1.0 0.1674485762
I  I34  1  0.33600000  0.07570000  0.73510000  1.0 0.2784099489
I  I35  1  0.23870000  0.50720000  0.13670000  1.0 0.0514257253
I  I36  1  0.39700000  0.51000000  0.17390000  1.0 -0.0008218846
I  I37  1  0.93153000  0.99613000  0.59674000  1.0 -0.2986318733
I  I38  1  0.67375000  0.07237000  0.55844000  1.0 -0.4497724975
I  I39  1  0.73178000  0.06845000  0.37424000  1.0 -0.4444012751
I  I40  1  0.71505000  0.00475000  0.46267000  1.0 -0.4713190313
I  I41  1  0.70464000  0.20082000  0.30469000  1.0 -0.4497724975
I  I42  1  0.86851000  0.32603000  0.32725000  1.0 -0.3309010532
I  I43  1  0.67500000  0.04800000  0.63470000  1.0 0.0514257253
I  I44  1  0.63500000  0.06250000  0.69340000  1.0 -0.0410213423
I  I45  1  0.76730000  0.38030000  0.28020000  1.0 0.1674485762
I  I46  1  0.66400000  0.42430000  0.23510000  1.0 0.2784099489
I  I47  1  0.76130000  0.99280000  0.63670000  1.0 0.0594410307
I  I48  1  0.60300000  0.99000000  0.67390000  1.0 -0.0008218846
I  I49  1  0.43153000  0.50387000  0.59674000  1.0 -0.2986318733
I  I50  1  0.17375000  0.42763000  0.55844000  1.0 -0.4444012751
I  I51  1  0.23178000  0.43155000  0.37424000  1.0 -0.4444012751
I  I52  1  0.21505000  0.49525000  0.46267000  1.0 -0.4713190313
I  I53  1  0.20464000  0.29918000  0.30469000  1.0 -0.4497724975
I  I54  1  0.36851000  0.17397000  0.32725000  1.0 -0.3309010532
I  I55  1  0.17500000  0.45200000  0.63470000  1.0 0.0514257253
I  I56  1  0.13500000  0.43750000  0.69340000  1.0 -0.0410213423
I  I57  1  0.26730000  0.11970000  0.28020000  1.0 0.1674485762
I  I58  1  0.16400000  0.07570000  0.23510000  1.0 0.2784099489
I  I59  1  0.26130000  0.50720000  0.63670000  1.0 0.0514257253
I  I60  1  0.10300000  0.51000000  0.67390000  1.0 -0.0008218846
I  I61  1  0.56847000  0.99613000  0.09674000  1.0 -0.2986318733
I  I62  1  0.82625000  0.07237000  0.05844000  1.0 -0.4497724975
I  I63  1  0.76822000  0.06845000  0.87424000  1.0 -0.4497724975
I  I64  1  0.78495000  0.00475000  0.96267000  1.0 -0.4713190313
I  I65  1  0.79536000  0.20082000  0.80469000  1.0 -0.4497724975
I  I66  1  0.63149000  0.32603000  0.82725000  1.0 -0.3309010532
I  I67  1  0.82500000  0.04800000  0.13470000  1.0 0.0514257253
I  I68  1  0.86500000  0.06250000  0.19340000  1.0 -0.0410213423
I  I69  1  0.73270000  0.38030000  0.78020000  1.0 0.1674485762
I  I70  1  0.83600000  0.42430000  0.73510000  1.0 0.2784099489
I  I71  1  0.73870000  0.99280000  0.13670000  1.0 0.0514257253
I  I72  1  0.89700000  0.99000000  0.17390000  1.0 -0.0008218846
I  I73  1  0.93153000  0.49613000  0.90326000  1.0 -0.2986318733
I  I74  1  0.67375000  0.57237000  0.94156000  1.0 -0.4444012751
I  I75  1  0.73178000  0.56845000  0.12576000  1.0 -0.4444012751
I  I76  1  0.71505000  0.50475000  0.03733000  1.0 -0.4713190313
I  I77  1  0.70464000  0.70082000  0.19531000  1.0 -0.4497724975
I  I78  1  0.86851000  0.82603000  0.17275000  1.0 -0.3309010532
I  I79  1  0.67500000  0.54800000  0.86530000  1.0 0.0594410307
I  I80  1  0.63500000  0.56250000  0.80660000  1.0 -0.0410213423
I  I81  1  0.76730000  0.88030000  0.21980000  1.0 0.1674485762
I  I82  1  0.66400000  0.92430000  0.26490000  1.0 0.2685324509
I  I83  1  0.76130000  0.49280000  0.86330000  1.0 0.0594410307
I  I84  1  0.60300000  0.49000000  0.82610000  1.0 -0.0008218846
I  I85  1  0.06847000  0.00387000  0.40326000  1.0 -0.2986318733
I  I86  1  0.32625000  0.92763000  0.44156000  1.0 -0.4444012751
I  I87  1  0.26822000  0.93155000  0.62576000  1.0 -0.4444012751
I  I88  1  0.28495000  0.99525000  0.53733000  1.0 -0.4713190313
I  I89  1  0.29536000  0.79918000  0.69531000  1.0 -0.4497724975
I  I90  1  0.13149000  0.67397000  0.67275000  1.0 -0.3309010532
I  I91  1  0.32500000  0.95200000  0.36530000  1.0 0.0514257253
I  I92  1  0.36500000  0.93750000  0.30660000  1.0 -0.0410213423
I  I93  1  0.23270000  0.61970000  0.71980000  1.0 0.1634614576
I  I94  1  0.33600000  0.57570000  0.76490000  1.0 0.2784099489
I  I95  1  0.23870000  0.00720000  0.36330000  1.0 0.0514257253
I  I96  1  0.39700000  0.01000000  0.32610000  1.0 0.0001161682
N  N1  1  0.57380000  0.57239000  0.46874000  1.0 -0.1873832253
N  N2  1  0.32260000  0.59164000  0.54596000  1.0 -0.3809807453
N  N3  1  0.31510000  0.62397000  0.59342000  1.0 -0.3809807453
N  N4  1  0.46030000  0.62479000  0.56699000  1.0 -0.3863466348
N  N5  1  0.99000000  0.55191000  0.58061000  1.0 -0.1809558265
N  N6  1  0.55610000  0.70120000  0.65960000  1.0 -0.1873832253
N  N7  1  0.38860000  0.87660000  0.90746000  1.0 -0.1809558265
N  N8  1  0.42250000  0.71221000  0.87090000  1.0 -0.4005252375
N  N9  1  0.45650000  0.67567000  0.82576000  1.0 -0.4005252375
N  N10  1  0.45410000  0.75848000  0.82947000  1.0 -0.4005252375
N  N11  1  0.39260000  0.54134000  0.89367000  1.0 -0.1749039184
N  N12  1  0.55850000  0.73327000  0.72734000  1.0 -0.1873832253
N  N13  1  0.86560000  0.92390000  0.75220000  1.0 -0.0260916113
N  N14  1  0.42620000  0.92761000  0.96874000  1.0 -0.1873832253
N  N15  1  0.67740000  0.90836000  0.04596000  1.0 -0.3809807453
N  N16  1  0.68490000  0.87603000  0.09342000  1.0 -0.3809807453
N  N17  1  0.53970000  0.87521000  0.06699000  1.0 -0.3863466348
N  N18  1  0.01000000  0.94809000  0.08061000  1.0 -0.1809558265
N  N19  1  0.44390000  0.79880000  0.15960000  1.0 -0.1873832253
N  N20  1  0.61140000  0.62340000  0.40746000  1.0 -0.1809558265
N  N21  1  0.57750000  0.78779000  0.37090000  1.0 -0.4005252375
N  N22  1  0.54350000  0.82433000  0.32576000  1.0 -0.4005252375
N  N23  1  0.54590000  0.74152000  0.32947000  1.0 -0.4005252375
N  N24  1  0.60740000  0.95866000  0.39367000  1.0 -0.1809558265
N  N25  1  0.44150000  0.76673000  0.22734000  1.0 -0.1809558265
N  N26  1  0.13440000  0.57610000  0.25220000  1.0 -0.0171389714
N  N27  1  0.07380000  0.42761000  0.03126000  1.0 -0.1873832253
N  N28  1  0.82260000  0.40836000  0.95404000  1.0 -0.3809807453
N  N29  1  0.81510000  0.37603000  0.90658000  1.0 -0.3809807453
N  N30  1  0.96030000  0.37521000  0.93301000  1.0 -0.3863466348
N  N31  1  0.49000000  0.44809000  0.91939000  1.0 -0.1809558265
N  N32  1  0.05610000  0.29880000  0.84040000  1.0 -0.1809558265
N  N33  1  0.88860000  0.12340000  0.59254000  1.0 -0.1809558265
N  N34  1  0.92250000  0.28779000  0.62910000  1.0 -0.4005252375
N  N35  1  0.95650000  0.32433000  0.67424000  1.0 -0.4005252375
N  N36  1  0.95410000  0.24152000  0.67053000  1.0 -0.4005252375
N  N37  1  0.89260000  0.45866000  0.60633000  1.0 -0.1749039184
N  N38  1  0.05850000  0.26673000  0.77266000  1.0 -0.1809558265
N  N39  1  0.36560000  0.07610000  0.74780000  1.0 -0.0260916113
N  N40  1  0.92620000  0.07239000  0.53126000  1.0 -0.1873832253
N  N41  1  0.17740000  0.09164000  0.45404000  1.0 -0.3809807453
N  N42  1  0.18490000  0.12397000  0.40658000  1.0 -0.3809807453
N  N43  1  0.03970000  0.12479000  0.43301000  1.0 -0.3863466348
N  N44  1  0.51000000  0.05191000  0.41939000  1.0 -0.1809558265
N  N45  1  0.94390000  0.20120000  0.34040000  1.0 -0.1873832253
N  N46  1  0.11140000  0.37660000  0.09254000  1.0 -0.1809558265
N  N47  1  0.07750000  0.21221000  0.12910000  1.0 -0.4005252375
N  N48  1  0.04350000  0.17567000  0.17424000  1.0 -0.4005252375
N  N49  1  0.04590000  0.25848000  0.17053000  1.0 -0.4005252375
N  N50  1  0.10740000  0.04134000  0.10633000  1.0 -0.1749039184
N  N51  1  0.94150000  0.23327000  0.27266000  1.0 -0.1873832253
N  N52  1  0.63440000  0.42390000  0.24780000  1.0 -0.0260916113
N  N53  1  0.42620000  0.42761000  0.53126000  1.0 -0.1873832253
N  N54  1  0.67740000  0.40836000  0.45404000  1.0 -0.3809807453
N  N55  1  0.68490000  0.37603000  0.40658000  1.0 -0.3809807453
N  N56  1  0.53970000  0.37521000  0.43301000  1.0 -0.3863466348
N  N57  1  0.01000000  0.44809000  0.41939000  1.0 -0.1809558265
N  N58  1  0.44390000  0.29880000  0.34040000  1.0 -0.1873832253
N  N59  1  0.61140000  0.12340000  0.09254000  1.0 -0.1809558265
N  N60  1  0.57750000  0.28779000  0.12910000  1.0 -0.4005252375
N  N61  1  0.54350000  0.32433000  0.17424000  1.0 -0.4005252375
N  N62  1  0.54590000  0.24152000  0.17053000  1.0 -0.4005252375
N  N63  1  0.60740000  0.45866000  0.10633000  1.0 -0.1749039184
N  N64  1  0.44150000  0.26673000  0.27266000  1.0 -0.1873832253
N  N65  1  0.13440000  0.07610000  0.24780000  1.0 -0.0260916113
N  N66  1  0.57380000  0.07239000  0.03126000  1.0 -0.1873832253
N  N67  1  0.32260000  0.09164000  0.95404000  1.0 -0.3809807453
N  N68  1  0.31510000  0.12397000  0.90658000  1.0 -0.3809807453
N  N69  1  0.46030000  0.12479000  0.93301000  1.0 -0.3863466348
N  N70  1  0.99000000  0.05191000  0.91939000  1.0 -0.1809558265
N  N71  1  0.55610000  0.20120000  0.84040000  1.0 -0.1809558265
N  N72  1  0.38860000  0.37660000  0.59254000  1.0 -0.1809558265
N  N73  1  0.42250000  0.21221000  0.62910000  1.0 -0.4005252375
N  N74  1  0.45650000  0.17567000  0.67424000  1.0 -0.4005252375
N  N75  1  0.45410000  0.25848000  0.67053000  1.0 -0.4005252375
N  N76  1  0.39260000  0.04134000  0.60633000  1.0 -0.1809558265
N  N77  1  0.55850000  0.23327000  0.77266000  1.0 -0.1809558265
N  N78  1  0.86560000  0.42390000  0.74780000  1.0 -0.0260916113
N  N79  1  0.92620000  0.57239000  0.96874000  1.0 -0.1873832253
N  N80  1  0.17740000  0.59164000  0.04596000  1.0 -0.3809807453
N  N81  1  0.18490000  0.62397000  0.09342000  1.0 -0.3809807453
N  N82  1  0.03970000  0.62479000  0.06699000  1.0 -0.3863466348
N  N83  1  0.51000000  0.55191000  0.08061000  1.0 -0.1809558265
N  N84  1  0.94390000  0.70120000  0.15960000  1.0 -0.1873832253
N  N85  1  0.11140000  0.87660000  0.40746000  1.0 -0.1809558265
N  N86  1  0.07750000  0.71221000  0.37090000  1.0 -0.4005252375
N  N87  1  0.04350000  0.67567000  0.32576000  1.0 -0.4005252375
N  N88  1  0.04590000  0.75848000  0.32947000  1.0 -0.4005252375
N  N89  1  0.10740000  0.54134000  0.39367000  1.0 -0.1809558265
N  N90  1  0.94150000  0.73327000  0.22734000  1.0 -0.1809558265
N  N91  1  0.63440000  0.92390000  0.25220000  1.0 -0.0171389714
N  N92  1  0.07380000  0.92761000  0.46874000  1.0 -0.1873832253
N  N93  1  0.82260000  0.90836000  0.54596000  1.0 -0.3809807453
N  N94  1  0.81510000  0.87603000  0.59342000  1.0 -0.3809807453
N  N95  1  0.96030000  0.87521000  0.56699000  1.0 -0.3863466348
N  N96  1  0.49000000  0.94809000  0.58061000  1.0 -0.1809558265
N  N97  1  0.05610000  0.79880000  0.65960000  1.0 -0.1873832253
N  N98  1  0.88860000  0.62340000  0.90746000  1.0 -0.1809558265
N  N99  1  0.92250000  0.78779000  0.87090000  1.0 -0.4005252375
N  N100  1  0.95650000  0.82433000  0.82576000  1.0 -0.4005252375
N  N101  1  0.95410000  0.74152000  0.82947000  1.0 -0.4005252375
N  N102  1  0.89260000  0.95866000  0.89367000  1.0 -0.1749039184
N  N103  1  0.05850000  0.76673000  0.72734000  1.0 -0.1873832253
N  N104  1  0.36560000  0.57610000  0.75220000  1.0 -0.0260916113
O  O1  1  0.77390000  0.91730000  0.75100000  1.0 -0.2623865868
O  O2  1  0.91060000  0.92730000  0.77630000  1.0 -0.2818418968
O  O3  1  0.22610000  0.58270000  0.25100000  1.0 -0.2623865868
O  O4  1  0.08940000  0.57270000  0.27630000  1.0 -0.2818418968
O  O5  1  0.27390000  0.08270000  0.74900000  1.0 -0.2623865868
O  O6  1  0.41060000  0.07270000  0.72370000  1.0 -0.2818418968
O  O7  1  0.72610000  0.41730000  0.24900000  1.0 -0.2623865868
O  O8  1  0.58940000  0.42730000  0.22370000  1.0 -0.2818418968
O  O9  1  0.22610000  0.08270000  0.24900000  1.0 -0.2623865868
O  O10  1  0.08940000  0.07270000  0.22370000  1.0 -0.2818418968
O  O11  1  0.77390000  0.41730000  0.74900000  1.0 -0.2623865868
O  O12  1  0.91060000  0.42730000  0.72370000  1.0 -0.2818418968
O  O13  1  0.72610000  0.91730000  0.25100000  1.0 -0.2623865868
O  O14  1  0.58940000  0.92730000  0.27630000  1.0 -0.2818418968
O  O15  1  0.27390000  0.58270000  0.75100000  1.0 -0.2623865868
O  O16  1  0.41060000  0.57270000  0.77630000  1.0 -0.2818418968
