# DDEC6 charges by PACMAN v1.1 (https://github.com/mtap-research/PACMAN-charge/)
data_KEVYES_ASR_pacman
_symmetry_space_group_name_H-M   'P 1'
_cell_length_a   14.02740000
_cell_length_b   28.73800000
_cell_length_c   46.20300000
_cell_angle_alpha   90.00000000
_cell_angle_beta   90.00000000
_cell_angle_gamma   90.00000000
_symmetry_Int_Tables_number   1
_chemical_formula_structural   Zn3H29C42I12N13O2
_chemical_formula_sum   'Zn24 H232 C336 I96 N104 O16'
_cell_volume   18625.32661770
_cell_formula_units_Z   8
loop_
 _symmetry_equiv_pos_site_id
 _symmetry_equiv_pos_as_xyz
  1  'x, y, z'
loop_
 _atom_site_type_symbol
 _atom_site_label
 _atom_site_symmetry_multiplicity
 _atom_site_fract_x
 _atom_site_fract_y
 _atom_site_fract_z
 _atom_site_occupancy
 _atom_site_charge
Zn  Zn1  1  0.64373000  0.56311000  0.43033000  1.0 0.4315686627
Zn  Zn2  1  0.85822000  0.52101000  0.58664000  1.0 0.4711493356
Zn  Zn3  1  0.63199000  0.74022000  0.68859000  1.0 0.4491356639
Zn  Zn4  1  0.35627000  0.93689000  0.93033000  1.0 0.4315686627
Zn  Zn5  1  0.14178000  0.97899000  0.08664000  1.0 0.4711493356
Zn  Zn6  1  0.36801000  0.75978000  0.18859000  1.0 0.4491356639
Zn  Zn7  1  0.14373000  0.43689000  0.06967000  1.0 0.4315686627
Zn  Zn8  1  0.35822000  0.47899000  0.91336000  1.0 0.4711493356
Zn  Zn9  1  0.13199000  0.25978000  0.81141000  1.0 0.4491356639
Zn  Zn10  1  0.85627000  0.06311000  0.56967000  1.0 0.4315686627
Zn  Zn11  1  0.64178000  0.02101000  0.41336000  1.0 0.4711493356
Zn  Zn12  1  0.86801000  0.24022000  0.31141000  1.0 0.4491356639
Zn  Zn13  1  0.35627000  0.43689000  0.56967000  1.0 0.4315686627
Zn  Zn14  1  0.14178000  0.47899000  0.41336000  1.0 0.4711493356
Zn  Zn15  1  0.36801000  0.25978000  0.31141000  1.0 0.4491356639
Zn  Zn16  1  0.64373000  0.06311000  0.06967000  1.0 0.4315686627
Zn  Zn17  1  0.85822000  0.02101000  0.91336000  1.0 0.4711493356
Zn  Zn18  1  0.63199000  0.24022000  0.81141000  1.0 0.4491356639
Zn  Zn19  1  0.85627000  0.56311000  0.93033000  1.0 0.4315686627
Zn  Zn20  1  0.64178000  0.52101000  0.08664000  1.0 0.4711493356
Zn  Zn21  1  0.86801000  0.74022000  0.18859000  1.0 0.4491356639
Zn  Zn22  1  0.14373000  0.93689000  0.43033000  1.0 0.4315686627
Zn  Zn23  1  0.35822000  0.97899000  0.58664000  1.0 0.4711493356
Zn  Zn24  1  0.13199000  0.75978000  0.68859000  1.0 0.4491356639
H  H1  1  0.45010000  0.54350000  0.45600000  1.0 0.09935037
H  H2  1  0.36180000  0.56140000  0.49650000  1.0 0.1313371235
H  H3  1  0.59280000  0.61530000  0.53370000  1.0 0.1313371235
H  H4  1  0.68190000  0.59130000  0.49200000  1.0 0.09935037
H  H5  1  0.16520000  0.55010000  0.53520000  1.0 0.1313371235
H  H6  1  0.01470000  0.52650000  0.54030000  1.0 0.1217142371
H  H7  1  0.99980000  0.58120000  0.61950000  1.0 0.1103547189
H  H8  1  0.14900000  0.61230000  0.61400000  1.0 0.1217142371
H  H9  1  0.34140000  0.68020000  0.63750000  1.0 0.1313371235
H  H10  1  0.42790000  0.71600000  0.67390000  1.0 0.1103547189
H  H11  1  0.66840000  0.67410000  0.64060000  1.0 0.1103547189
H  H12  1  0.59250000  0.63960000  0.60280000  1.0 0.1375832437
H  H13  1  0.36320000  0.83220000  0.93840000  1.0 0.1103547189
H  H14  1  0.39370000  0.76470000  0.91500000  1.0 0.1375832437
H  H15  1  0.44980000  0.84160000  0.84380000  1.0 0.1313371235
H  H16  1  0.42010000  0.90740000  0.87130000  1.0 0.0882427205
H  H17  1  0.41660000  0.64920000  0.91110000  1.0 0.1313371235
H  H18  1  0.40200000  0.57760000  0.92890000  1.0 0.1103547189
H  H19  1  0.39280000  0.51880000  0.85500000  1.0 0.09935037
H  H20  1  0.43060000  0.58940000  0.83170000  1.0 0.1217142371
H  H21  1  0.52480000  0.65570000  0.77680000  1.0 0.1313371235
H  H22  1  0.57410000  0.66420000  0.73010000  1.0 0.1103547189
H  H23  1  0.52650000  0.79850000  0.73290000  1.0 0.09935037
H  H24  1  0.47870000  0.79110000  0.78230000  1.0 0.1217142371
H  H25  1  0.05610000  0.94050000  0.73960000  1.0 0.1103547189
H  H26  1  0.11950000  0.95010000  0.69360000  1.0 0.1313371235
H  H27  1  0.02350000  0.94000000  0.65320000  1.0 0.09935037
H  H28  1  0.86430000  0.92020000  0.65880000  1.0 0.09935037
H  H29  1  0.80090000  0.91060000  0.70480000  1.0 0.0882427205
H  H30  1  0.54990000  0.95650000  0.95600000  1.0 0.09935037
H  H31  1  0.63820000  0.93860000  0.99650000  1.0 0.1313371235
H  H32  1  0.40720000  0.88470000  0.03370000  1.0 0.1313371235
H  H33  1  0.31810000  0.90870000  0.99200000  1.0 0.09935037
H  H34  1  0.83480000  0.94990000  0.03520000  1.0 0.1313371235
H  H35  1  0.98530000  0.97350000  0.04030000  1.0 0.1217142371
H  H36  1  0.00020000  0.91880000  0.11950000  1.0 0.1103547189
H  H37  1  0.85100000  0.88770000  0.11400000  1.0 0.1217142371
H  H38  1  0.65860000  0.81980000  0.13750000  1.0 0.1313371235
H  H39  1  0.57210000  0.78400000  0.17390000  1.0 0.1103547189
H  H40  1  0.33160000  0.82590000  0.14060000  1.0 0.1103547189
H  H41  1  0.40750000  0.86040000  0.10280000  1.0 0.1375832437
H  H42  1  0.63680000  0.66780000  0.43840000  1.0 0.1103547189
H  H43  1  0.60630000  0.73530000  0.41500000  1.0 0.1375832437
H  H44  1  0.55020000  0.65840000  0.34380000  1.0 0.1313371235
H  H45  1  0.57990000  0.59260000  0.37130000  1.0 0.0882427205
H  H46  1  0.58340000  0.85080000  0.41110000  1.0 0.1313371235
H  H47  1  0.59800000  0.92240000  0.42890000  1.0 0.1103547189
H  H48  1  0.60720000  0.98120000  0.35500000  1.0 0.09935037
H  H49  1  0.56940000  0.91060000  0.33170000  1.0 0.1217142371
H  H50  1  0.47520000  0.84430000  0.27680000  1.0 0.1313371235
H  H51  1  0.42590000  0.83580000  0.23010000  1.0 0.1103547189
H  H52  1  0.47350000  0.70150000  0.23290000  1.0 0.09935037
H  H53  1  0.52130000  0.70890000  0.28230000  1.0 0.1217142371
H  H54  1  0.94390000  0.55950000  0.23960000  1.0 0.1103547189
H  H55  1  0.88050000  0.54990000  0.19360000  1.0 0.1313371235
H  H56  1  0.97650000  0.56000000  0.15320000  1.0 0.09935037
H  H57  1  0.13570000  0.57980000  0.15880000  1.0 0.09935037
H  H58  1  0.19910000  0.58940000  0.20480000  1.0 0.0882427205
H  H59  1  0.95010000  0.45650000  0.04400000  1.0 0.09935037
H  H60  1  0.86180000  0.43860000  0.00350000  1.0 0.1313371235
H  H61  1  0.09280000  0.38470000  0.96630000  1.0 0.1313371235
H  H62  1  0.18190000  0.40870000  0.00800000  1.0 0.09935037
H  H63  1  0.66520000  0.44990000  0.96480000  1.0 0.1313371235
H  H64  1  0.51470000  0.47350000  0.95970000  1.0 0.1217142371
H  H65  1  0.49980000  0.41880000  0.88050000  1.0 0.1103547189
H  H66  1  0.64900000  0.38770000  0.88600000  1.0 0.1217142371
H  H67  1  0.84140000  0.31980000  0.86250000  1.0 0.1313371235
H  H68  1  0.92790000  0.28400000  0.82610000  1.0 0.1103547189
H  H69  1  0.16840000  0.32590000  0.85940000  1.0 0.1103547189
H  H70  1  0.09250000  0.36040000  0.89720000  1.0 0.1375832437
H  H71  1  0.86320000  0.16780000  0.56160000  1.0 0.1103547189
H  H72  1  0.89370000  0.23530000  0.58500000  1.0 0.1375832437
H  H73  1  0.94980000  0.15840000  0.65620000  1.0 0.1313371235
H  H74  1  0.92010000  0.09260000  0.62870000  1.0 0.0882427205
H  H75  1  0.91660000  0.35080000  0.58890000  1.0 0.1313371235
H  H76  1  0.90200000  0.42240000  0.57110000  1.0 0.1103547189
H  H77  1  0.89280000  0.48120000  0.64500000  1.0 0.09935037
H  H78  1  0.93060000  0.41060000  0.66830000  1.0 0.1217142371
H  H79  1  0.02480000  0.34430000  0.72320000  1.0 0.1313371235
H  H80  1  0.07410000  0.33580000  0.76990000  1.0 0.1103547189
H  H81  1  0.02650000  0.20150000  0.76710000  1.0 0.09935037
H  H82  1  0.97870000  0.20890000  0.71770000  1.0 0.1217142371
H  H83  1  0.55610000  0.05950000  0.76040000  1.0 0.1103547189
H  H84  1  0.61950000  0.04990000  0.80640000  1.0 0.1313371235
H  H85  1  0.52350000  0.06000000  0.84680000  1.0 0.09935037
H  H86  1  0.36430000  0.07980000  0.84120000  1.0 0.09935037
H  H87  1  0.30090000  0.08940000  0.79520000  1.0 0.0882427205
H  H88  1  0.04990000  0.04350000  0.54400000  1.0 0.09935037
H  H89  1  0.13820000  0.06140000  0.50350000  1.0 0.1313371235
H  H90  1  0.90720000  0.11530000  0.46630000  1.0 0.1313371235
H  H91  1  0.81810000  0.09130000  0.50800000  1.0 0.09935037
H  H92  1  0.33480000  0.05010000  0.46480000  1.0 0.1313371235
H  H93  1  0.48530000  0.02650000  0.45970000  1.0 0.1217142371
H  H94  1  0.50020000  0.08120000  0.38050000  1.0 0.1103547189
H  H95  1  0.35100000  0.11230000  0.38600000  1.0 0.1217142371
H  H96  1  0.15860000  0.18020000  0.36250000  1.0 0.1313371235
H  H97  1  0.07210000  0.21600000  0.32610000  1.0 0.1103547189
H  H98  1  0.83160000  0.17410000  0.35940000  1.0 0.1103547189
H  H99  1  0.90750000  0.13960000  0.39720000  1.0 0.1375832437
H  H100  1  0.13680000  0.33220000  0.06160000  1.0 0.1103547189
H  H101  1  0.10630000  0.26470000  0.08500000  1.0 0.1375832437
H  H102  1  0.05020000  0.34160000  0.15620000  1.0 0.1313371235
H  H103  1  0.07990000  0.40740000  0.12870000  1.0 0.0882427205
H  H104  1  0.08340000  0.14920000  0.08890000  1.0 0.1313371235
H  H105  1  0.09800000  0.07760000  0.07110000  1.0 0.1103547189
H  H106  1  0.10720000  0.01880000  0.14500000  1.0 0.09935037
H  H107  1  0.06940000  0.08940000  0.16830000  1.0 0.1217142371
H  H108  1  0.97520000  0.15570000  0.22320000  1.0 0.1313371235
H  H109  1  0.92590000  0.16420000  0.26990000  1.0 0.1103547189
H  H110  1  0.97350000  0.29850000  0.26710000  1.0 0.09935037
H  H111  1  0.02130000  0.29110000  0.21770000  1.0 0.1217142371
H  H112  1  0.44390000  0.44050000  0.26040000  1.0 0.1103547189
H  H113  1  0.38050000  0.45010000  0.30640000  1.0 0.1313371235
H  H114  1  0.47650000  0.44000000  0.34680000  1.0 0.09935037
H  H115  1  0.63570000  0.42020000  0.34120000  1.0 0.09935037
H  H116  1  0.69910000  0.41060000  0.29520000  1.0 0.0882427205
H  H117  1  0.54990000  0.45650000  0.54400000  1.0 0.09935037
H  H118  1  0.63820000  0.43860000  0.50350000  1.0 0.1313371235
H  H119  1  0.40720000  0.38470000  0.46630000  1.0 0.1313371235
H  H120  1  0.31810000  0.40870000  0.50800000  1.0 0.09935037
H  H121  1  0.83480000  0.44990000  0.46480000  1.0 0.1313371235
H  H122  1  0.98530000  0.47350000  0.45970000  1.0 0.1217142371
H  H123  1  0.00020000  0.41880000  0.38050000  1.0 0.1103547189
H  H124  1  0.85100000  0.38770000  0.38600000  1.0 0.1217142371
H  H125  1  0.65860000  0.31980000  0.36250000  1.0 0.1313371235
H  H126  1  0.57210000  0.28400000  0.32610000  1.0 0.1103547189
H  H127  1  0.33160000  0.32590000  0.35940000  1.0 0.1103547189
H  H128  1  0.40750000  0.36040000  0.39720000  1.0 0.1375832437
H  H129  1  0.63680000  0.16780000  0.06160000  1.0 0.1103547189
H  H130  1  0.60630000  0.23530000  0.08500000  1.0 0.1375832437
H  H131  1  0.55020000  0.15840000  0.15620000  1.0 0.1313371235
H  H132  1  0.57990000  0.09260000  0.12870000  1.0 0.0882427205
H  H133  1  0.58340000  0.35080000  0.08890000  1.0 0.1313371235
H  H134  1  0.59800000  0.42240000  0.07110000  1.0 0.1103547189
H  H135  1  0.60720000  0.48120000  0.14500000  1.0 0.09935037
H  H136  1  0.56940000  0.41060000  0.16830000  1.0 0.1217142371
H  H137  1  0.47520000  0.34430000  0.22320000  1.0 0.1313371235
H  H138  1  0.42590000  0.33580000  0.26990000  1.0 0.1103547189
H  H139  1  0.47350000  0.20150000  0.26710000  1.0 0.09935037
H  H140  1  0.52130000  0.20890000  0.21770000  1.0 0.1217142371
H  H141  1  0.94390000  0.05950000  0.26040000  1.0 0.1103547189
H  H142  1  0.88050000  0.04990000  0.30640000  1.0 0.1313371235
H  H143  1  0.97650000  0.06000000  0.34680000  1.0 0.09935037
H  H144  1  0.13570000  0.07980000  0.34120000  1.0 0.09935037
H  H145  1  0.19910000  0.08940000  0.29520000  1.0 0.0882427205
H  H146  1  0.45010000  0.04350000  0.04400000  1.0 0.09935037
H  H147  1  0.36180000  0.06140000  0.00350000  1.0 0.1313371235
H  H148  1  0.59280000  0.11530000  0.96630000  1.0 0.1313371235
H  H149  1  0.68190000  0.09130000  0.00800000  1.0 0.09935037
H  H150  1  0.16520000  0.05010000  0.96480000  1.0 0.1313371235
H  H151  1  0.01470000  0.02650000  0.95970000  1.0 0.1217142371
H  H152  1  0.99980000  0.08120000  0.88050000  1.0 0.1103547189
H  H153  1  0.14900000  0.11230000  0.88600000  1.0 0.1217142371
H  H154  1  0.34140000  0.18020000  0.86250000  1.0 0.1313371235
H  H155  1  0.42790000  0.21600000  0.82610000  1.0 0.1103547189
H  H156  1  0.66840000  0.17410000  0.85940000  1.0 0.1103547189
H  H157  1  0.59250000  0.13960000  0.89720000  1.0 0.1375832437
H  H158  1  0.36320000  0.33220000  0.56160000  1.0 0.1103547189
H  H159  1  0.39370000  0.26470000  0.58500000  1.0 0.1375832437
H  H160  1  0.44980000  0.34160000  0.65620000  1.0 0.1313371235
H  H161  1  0.42010000  0.40740000  0.62870000  1.0 0.0882427205
H  H162  1  0.41660000  0.14920000  0.58890000  1.0 0.1313371235
H  H163  1  0.40200000  0.07760000  0.57110000  1.0 0.1103547189
H  H164  1  0.39280000  0.01880000  0.64500000  1.0 0.09935037
H  H165  1  0.43060000  0.08940000  0.66830000  1.0 0.1217142371
H  H166  1  0.52480000  0.15570000  0.72320000  1.0 0.1313371235
H  H167  1  0.57410000  0.16420000  0.76990000  1.0 0.1103547189
H  H168  1  0.52650000  0.29850000  0.76710000  1.0 0.09935037
H  H169  1  0.47870000  0.29110000  0.71770000  1.0 0.1217142371
H  H170  1  0.05610000  0.44050000  0.76040000  1.0 0.1103547189
H  H171  1  0.11950000  0.45010000  0.80640000  1.0 0.1313371235
H  H172  1  0.02350000  0.44000000  0.84680000  1.0 0.09935037
H  H173  1  0.86430000  0.42020000  0.84120000  1.0 0.09935037
H  H174  1  0.80090000  0.41060000  0.79520000  1.0 0.0882427205
H  H175  1  0.04990000  0.54350000  0.95600000  1.0 0.09935037
H  H176  1  0.13820000  0.56140000  0.99650000  1.0 0.1313371235
H  H177  1  0.90720000  0.61530000  0.03370000  1.0 0.1313371235
H  H178  1  0.81810000  0.59130000  0.99200000  1.0 0.09935037
H  H179  1  0.33480000  0.55010000  0.03520000  1.0 0.1313371235
H  H180  1  0.48530000  0.52650000  0.04030000  1.0 0.1217142371
H  H181  1  0.50020000  0.58120000  0.11950000  1.0 0.1103547189
H  H182  1  0.35100000  0.61230000  0.11400000  1.0 0.1217142371
H  H183  1  0.15860000  0.68020000  0.13750000  1.0 0.1313371235
H  H184  1  0.07210000  0.71600000  0.17390000  1.0 0.1103547189
H  H185  1  0.83160000  0.67410000  0.14060000  1.0 0.1103547189
H  H186  1  0.90750000  0.63960000  0.10280000  1.0 0.1375832437
H  H187  1  0.13680000  0.83220000  0.43840000  1.0 0.1103547189
H  H188  1  0.10630000  0.76470000  0.41500000  1.0 0.1375832437
H  H189  1  0.05020000  0.84160000  0.34380000  1.0 0.1313371235
H  H190  1  0.07990000  0.90740000  0.37130000  1.0 0.0882427205
H  H191  1  0.08340000  0.64920000  0.41110000  1.0 0.1313371235
H  H192  1  0.09800000  0.57760000  0.42890000  1.0 0.1103547189
H  H193  1  0.10720000  0.51880000  0.35500000  1.0 0.09935037
H  H194  1  0.06940000  0.58940000  0.33170000  1.0 0.1217142371
H  H195  1  0.97520000  0.65570000  0.27680000  1.0 0.1313371235
H  H196  1  0.92590000  0.66420000  0.23010000  1.0 0.1103547189
H  H197  1  0.97350000  0.79850000  0.23290000  1.0 0.09935037
H  H198  1  0.02130000  0.79110000  0.28230000  1.0 0.1217142371
H  H199  1  0.44390000  0.94050000  0.23960000  1.0 0.1103547189
H  H200  1  0.38050000  0.95010000  0.19360000  1.0 0.1313371235
H  H201  1  0.47650000  0.94000000  0.15320000  1.0 0.09935037
H  H202  1  0.63570000  0.92020000  0.15880000  1.0 0.09935037
H  H203  1  0.69910000  0.91060000  0.20480000  1.0 0.0882427205
H  H204  1  0.95010000  0.95650000  0.45600000  1.0 0.09935037
H  H205  1  0.86180000  0.93860000  0.49650000  1.0 0.1313371235
H  H206  1  0.09280000  0.88470000  0.53370000  1.0 0.1313371235
H  H207  1  0.18190000  0.90870000  0.49200000  1.0 0.09935037
H  H208  1  0.66520000  0.94990000  0.53520000  1.0 0.1313371235
H  H209  1  0.51470000  0.97350000  0.54030000  1.0 0.1217142371
H  H210  1  0.49980000  0.91880000  0.61950000  1.0 0.1103547189
H  H211  1  0.64900000  0.88770000  0.61400000  1.0 0.1217142371
H  H212  1  0.84140000  0.81980000  0.63750000  1.0 0.1313371235
H  H213  1  0.92790000  0.78400000  0.67390000  1.0 0.1103547189
H  H214  1  0.16840000  0.82590000  0.64060000  1.0 0.1103547189
H  H215  1  0.09250000  0.86040000  0.60280000  1.0 0.1375832437
H  H216  1  0.86320000  0.66780000  0.93840000  1.0 0.1103547189
H  H217  1  0.89370000  0.73530000  0.91500000  1.0 0.1375832437
H  H218  1  0.94980000  0.65840000  0.84380000  1.0 0.1313371235
H  H219  1  0.92010000  0.59260000  0.87130000  1.0 0.0882427205
H  H220  1  0.91660000  0.85080000  0.91110000  1.0 0.1313371235
H  H221  1  0.90200000  0.92240000  0.92890000  1.0 0.1103547189
H  H222  1  0.89280000  0.98120000  0.85500000  1.0 0.09935037
H  H223  1  0.93060000  0.91060000  0.83170000  1.0 0.1217142371
H  H224  1  0.02480000  0.84430000  0.77680000  1.0 0.1313371235
H  H225  1  0.07410000  0.83580000  0.73010000  1.0 0.1103547189
H  H226  1  0.02650000  0.70150000  0.73290000  1.0 0.09935037
H  H227  1  0.97870000  0.70890000  0.78230000  1.0 0.1217142371
H  H228  1  0.55610000  0.55950000  0.73960000  1.0 0.1103547189
H  H229  1  0.61950000  0.54990000  0.69360000  1.0 0.1313371235
H  H230  1  0.52350000  0.56000000  0.65320000  1.0 0.09935037
H  H231  1  0.36430000  0.57980000  0.65880000  1.0 0.09935037
H  H232  1  0.30090000  0.58940000  0.70480000  1.0 0.0882427205
C  C1  1  0.47930000  0.55920000  0.47120000  1.0 0.0597926651
C  C2  1  0.42600000  0.56950000  0.49590000  1.0 -0.1311313597
C  C3  1  0.46670000  0.59120000  0.51930000  1.0 0.031896851
C  C4  1  0.56240000  0.60090000  0.51820000  1.0 -0.1311313597
C  C5  1  0.61600000  0.58800000  0.49210000  1.0 0.09935037
C  C6  1  0.41500000  0.60240000  0.54620000  1.0 0.3715798762
C  C7  1  0.27730000  0.60070000  0.57100000  1.0 0.3715798762
C  C8  1  0.40740000  0.63260000  0.59170000  1.0 0.3586094332
C  C9  1  0.17540000  0.58550000  0.57520000  1.0 0.0597926651
C  C10  1  0.13130000  0.55740000  0.55180000  1.0 -0.1415952199
C  C11  1  0.04310000  0.54300000  0.55530000  1.0 0.0597926651
C  C12  1  0.03280000  0.57630000  0.60230000  1.0 0.0662117543
C  C13  1  0.12320000  0.59410000  0.59930000  1.0 -0.1492603677
C  C14  1  0.45740000  0.65350000  0.61580000  1.0 0.0419668015
C  C15  1  0.40760000  0.67840000  0.63770000  1.0 -0.1492603677
C  C16  1  0.46020000  0.70000000  0.65940000  1.0 0.0798454447
C  C17  1  0.60220000  0.67560000  0.63970000  1.0 0.0882427205
C  C18  1  0.55690000  0.65400000  0.61720000  1.0 -0.1492603677
C  C19  1  0.38240000  0.83380000  0.91920000  1.0 0.0662117543
C  C20  1  0.39800000  0.79310000  0.90540000  1.0 -0.1653448539
C  C21  1  0.42110000  0.79550000  0.87570000  1.0 0.0662117543
C  C22  1  0.43180000  0.83880000  0.86310000  1.0 -0.1415952199
C  C23  1  0.41490000  0.87830000  0.88000000  1.0 0.0798454447
C  C24  1  0.43450000  0.75160000  0.85850000  1.0 0.3586094332
C  C25  1  0.43700000  0.67480000  0.85500000  1.0 0.3715798762
C  C26  1  0.46740000  0.71870000  0.81530000  1.0 0.3908316148
C  C27  1  0.42440000  0.62800000  0.86790000  1.0 0.0517364828
C  C28  1  0.41480000  0.62350000  0.89890000  1.0 -0.1492603677
C  C29  1  0.40330000  0.58090000  0.90890000  1.0 0.0597926651
C  C30  1  0.40080000  0.54550000  0.86610000  1.0 0.09935037
C  C31  1  0.42060000  0.58850000  0.85160000  1.0 -0.1415952199
C  C32  1  0.49630000  0.72300000  0.78420000  1.0 0.0419668015
C  C33  1  0.52550000  0.68520000  0.76840000  1.0 -0.1311313597
C  C34  1  0.55580000  0.69040000  0.74050000  1.0 0.0597926651
C  C35  1  0.52860000  0.76960000  0.74190000  1.0 0.09935037
C  C36  1  0.49750000  0.76500000  0.77190000  1.0 -0.1222846685
C  C37  1  0.92220000  0.92460000  0.72670000  1.0 0.0133143148
C  C38  1  0.01770000  0.93640000  0.72340000  1.0 -0.1222846685
C  C39  1  0.05600000  0.94220000  0.69580000  1.0 -0.0701002851
C  C40  1  0.99800000  0.93610000  0.67160000  1.0 -0.063602888
C  C41  1  0.90300000  0.92430000  0.67500000  1.0 -0.0971293254
C  C42  1  0.86500000  0.91850000  0.70250000  1.0 -0.1492603677
C  C43  1  0.52070000  0.94080000  0.97120000  1.0 0.0597926651
C  C44  1  0.57400000  0.93050000  0.99590000  1.0 -0.1311313597
C  C45  1  0.53330000  0.90880000  0.01930000  1.0 0.031896851
C  C46  1  0.43760000  0.89910000  0.01820000  1.0 -0.1311313597
C  C47  1  0.38400000  0.91200000  0.99210000  1.0 0.09935037
C  C48  1  0.58500000  0.89760000  0.04620000  1.0 0.3715798762
C  C49  1  0.72270000  0.89930000  0.07100000  1.0 0.3715798762
C  C50  1  0.59260000  0.86740000  0.09170000  1.0 0.3586094332
C  C51  1  0.82460000  0.91450000  0.07520000  1.0 0.0597926651
C  C52  1  0.86870000  0.94260000  0.05180000  1.0 -0.1415952199
C  C53  1  0.95690000  0.95700000  0.05530000  1.0 0.0597926651
C  C54  1  0.96720000  0.92370000  0.10230000  1.0 0.0662117543
C  C55  1  0.87680000  0.90590000  0.09930000  1.0 -0.1492603677
C  C56  1  0.54260000  0.84650000  0.11580000  1.0 0.0419668015
C  C57  1  0.59240000  0.82160000  0.13770000  1.0 -0.1492603677
C  C58  1  0.53980000  0.80000000  0.15940000  1.0 0.0798454447
C  C59  1  0.39780000  0.82440000  0.13970000  1.0 0.0882427205
C  C60  1  0.44310000  0.84600000  0.11720000  1.0 -0.1492603677
C  C61  1  0.61760000  0.66620000  0.41920000  1.0 0.0662117543
C  C62  1  0.60200000  0.70690000  0.40540000  1.0 -0.1653448539
C  C63  1  0.57890000  0.70450000  0.37570000  1.0 0.0597926651
C  C64  1  0.56820000  0.66120000  0.36310000  1.0 -0.1415952199
C  C65  1  0.58510000  0.62170000  0.38000000  1.0 0.0798454447
C  C66  1  0.56550000  0.74840000  0.35850000  1.0 0.3715798762
C  C67  1  0.56300000  0.82520000  0.35500000  1.0 0.3715798762
C  C68  1  0.53260000  0.78130000  0.31530000  1.0 0.3908316148
C  C69  1  0.57560000  0.87200000  0.36790000  1.0 0.0517364828
C  C70  1  0.58520000  0.87650000  0.39890000  1.0 -0.1492603677
C  C71  1  0.59670000  0.91910000  0.40890000  1.0 0.0597926651
C  C72  1  0.59920000  0.95450000  0.36610000  1.0 0.09935037
C  C73  1  0.57940000  0.91150000  0.35160000  1.0 -0.1415952199
C  C74  1  0.50370000  0.77700000  0.28420000  1.0 0.0419668015
C  C75  1  0.47450000  0.81480000  0.26840000  1.0 -0.1311313597
C  C76  1  0.44420000  0.80960000  0.24050000  1.0 0.0597926651
C  C77  1  0.47140000  0.73040000  0.24190000  1.0 0.09935037
C  C78  1  0.50250000  0.73500000  0.27190000  1.0 -0.1222846685
C  C79  1  0.07780000  0.57540000  0.22670000  1.0 0.0133143148
C  C80  1  0.98230000  0.56360000  0.22340000  1.0 -0.1222846685
C  C81  1  0.94400000  0.55780000  0.19580000  1.0 -0.0701002851
C  C82  1  0.00200000  0.56390000  0.17160000  1.0 -0.063602888
C  C83  1  0.09700000  0.57570000  0.17500000  1.0 -0.0971293254
C  C84  1  0.13500000  0.58150000  0.20250000  1.0 -0.1492603677
C  C85  1  0.97930000  0.44080000  0.02880000  1.0 0.0597926651
C  C86  1  0.92600000  0.43050000  0.00410000  1.0 -0.1311313597
C  C87  1  0.96670000  0.40880000  0.98070000  1.0 0.031896851
C  C88  1  0.06240000  0.39910000  0.98180000  1.0 -0.1311313597
C  C89  1  0.11600000  0.41200000  0.00790000  1.0 0.09935037
C  C90  1  0.91500000  0.39760000  0.95380000  1.0 0.3715798762
C  C91  1  0.77730000  0.39930000  0.92900000  1.0 0.3715798762
C  C92  1  0.90740000  0.36740000  0.90830000  1.0 0.3586094332
C  C93  1  0.67540000  0.41450000  0.92480000  1.0 0.0597926651
C  C94  1  0.63130000  0.44260000  0.94820000  1.0 -0.1415952199
C  C95  1  0.54310000  0.45700000  0.94470000  1.0 0.0597926651
C  C96  1  0.53280000  0.42370000  0.89770000  1.0 0.0662117543
C  C97  1  0.62320000  0.40590000  0.90070000  1.0 -0.1492603677
C  C98  1  0.95740000  0.34650000  0.88420000  1.0 0.0419668015
C  C99  1  0.90760000  0.32160000  0.86230000  1.0 -0.1492603677
C  C100  1  0.96020000  0.30000000  0.84060000  1.0 0.0798454447
C  C101  1  0.10220000  0.32440000  0.86030000  1.0 0.0882427205
C  C102  1  0.05690000  0.34600000  0.88280000  1.0 -0.1492603677
C  C103  1  0.88240000  0.16620000  0.58080000  1.0 0.0662117543
C  C104  1  0.89800000  0.20690000  0.59460000  1.0 -0.1653448539
C  C105  1  0.92110000  0.20450000  0.62430000  1.0 0.0662117543
C  C106  1  0.93180000  0.16120000  0.63690000  1.0 -0.1415952199
C  C107  1  0.91490000  0.12170000  0.62000000  1.0 0.0798454447
C  C108  1  0.93450000  0.24840000  0.64150000  1.0 0.3586094332
C  C109  1  0.93700000  0.32520000  0.64500000  1.0 0.3715798762
C  C110  1  0.96740000  0.28130000  0.68470000  1.0 0.3908316148
C  C111  1  0.92440000  0.37200000  0.63210000  1.0 0.0517364828
C  C112  1  0.91480000  0.37650000  0.60110000  1.0 -0.1492603677
C  C113  1  0.90330000  0.41910000  0.59110000  1.0 0.0597926651
C  C114  1  0.90080000  0.45450000  0.63390000  1.0 0.09935037
C  C115  1  0.92060000  0.41150000  0.64840000  1.0 -0.1415952199
C  C116  1  0.99630000  0.27700000  0.71580000  1.0 0.0419668015
C  C117  1  0.02550000  0.31480000  0.73160000  1.0 -0.1311313597
C  C118  1  0.05580000  0.30960000  0.75950000  1.0 0.0597926651
C  C119  1  0.02860000  0.23040000  0.75810000  1.0 0.09935037
C  C120  1  0.99750000  0.23500000  0.72810000  1.0 -0.1222846685
C  C121  1  0.42220000  0.07540000  0.77330000  1.0 0.0133143148
C  C122  1  0.51770000  0.06360000  0.77660000  1.0 -0.1222846685
C  C123  1  0.55600000  0.05780000  0.80420000  1.0 -0.0701002851
C  C124  1  0.49800000  0.06390000  0.82840000  1.0 -0.063602888
C  C125  1  0.40300000  0.07570000  0.82500000  1.0 -0.0971293254
C  C126  1  0.36500000  0.08150000  0.79750000  1.0 -0.1492603677
C  C127  1  0.02070000  0.05920000  0.52880000  1.0 0.0597926651
C  C128  1  0.07400000  0.06950000  0.50410000  1.0 -0.1311313597
C  C129  1  0.03330000  0.09120000  0.48070000  1.0 0.031896851
C  C130  1  0.93760000  0.10090000  0.48180000  1.0 -0.1311313597
C  C131  1  0.88400000  0.08800000  0.50790000  1.0 0.09935037
C  C132  1  0.08500000  0.10240000  0.45380000  1.0 0.3715798762
C  C133  1  0.22270000  0.10070000  0.42900000  1.0 0.3715798762
C  C134  1  0.09260000  0.13260000  0.40830000  1.0 0.3586094332
C  C135  1  0.32460000  0.08550000  0.42480000  1.0 0.0597926651
C  C136  1  0.36870000  0.05740000  0.44820000  1.0 -0.1415952199
C  C137  1  0.45690000  0.04300000  0.44470000  1.0 0.0597926651
C  C138  1  0.46720000  0.07630000  0.39770000  1.0 0.0662117543
C  C139  1  0.37680000  0.09410000  0.40070000  1.0 -0.1492603677
C  C140  1  0.04260000  0.15350000  0.38420000  1.0 0.0419668015
C  C141  1  0.09240000  0.17840000  0.36230000  1.0 -0.1492603677
C  C142  1  0.03980000  0.20000000  0.34060000  1.0 0.0798454447
C  C143  1  0.89780000  0.17560000  0.36030000  1.0 0.0882427205
C  C144  1  0.94310000  0.15400000  0.38280000  1.0 -0.1492603677
C  C145  1  0.11760000  0.33380000  0.08080000  1.0 0.0662117543
C  C146  1  0.10200000  0.29310000  0.09460000  1.0 -0.1653448539
C  C147  1  0.07890000  0.29550000  0.12430000  1.0 0.0597926651
C  C148  1  0.06820000  0.33880000  0.13690000  1.0 -0.1415952199
C  C149  1  0.08510000  0.37830000  0.12000000  1.0 0.0798454447
C  C150  1  0.06550000  0.25160000  0.14150000  1.0 0.3586094332
C  C151  1  0.06300000  0.17480000  0.14500000  1.0 0.3715798762
C  C152  1  0.03260000  0.21870000  0.18470000  1.0 0.3908316148
C  C153  1  0.07560000  0.12800000  0.13210000  1.0 0.0517364828
C  C154  1  0.08520000  0.12350000  0.10110000  1.0 -0.1492603677
C  C155  1  0.09670000  0.08090000  0.09110000  1.0 0.0597926651
C  C156  1  0.09920000  0.04550000  0.13390000  1.0 0.09935037
C  C157  1  0.07940000  0.08850000  0.14840000  1.0 -0.1415952199
C  C158  1  0.00370000  0.22300000  0.21580000  1.0 0.0419668015
C  C159  1  0.97450000  0.18520000  0.23160000  1.0 -0.1311313597
C  C160  1  0.94420000  0.19040000  0.25950000  1.0 0.0597926651
C  C161  1  0.97140000  0.26960000  0.25810000  1.0 0.09935037
C  C162  1  0.00250000  0.26500000  0.22810000  1.0 -0.1222846685
C  C163  1  0.57780000  0.42460000  0.27330000  1.0 0.0133143148
C  C164  1  0.48230000  0.43640000  0.27660000  1.0 -0.1222846685
C  C165  1  0.44400000  0.44220000  0.30420000  1.0 -0.0701002851
C  C166  1  0.50200000  0.43610000  0.32840000  1.0 -0.063602888
C  C167  1  0.59700000  0.42430000  0.32500000  1.0 -0.0971293254
C  C168  1  0.63500000  0.41850000  0.29750000  1.0 -0.1492603677
C  C169  1  0.52070000  0.44080000  0.52880000  1.0 0.0597926651
C  C170  1  0.57400000  0.43050000  0.50410000  1.0 -0.1311313597
C  C171  1  0.53330000  0.40880000  0.48070000  1.0 0.031896851
C  C172  1  0.43760000  0.39910000  0.48180000  1.0 -0.1311313597
C  C173  1  0.38400000  0.41200000  0.50790000  1.0 0.09935037
C  C174  1  0.58500000  0.39760000  0.45380000  1.0 0.3715798762
C  C175  1  0.72270000  0.39930000  0.42900000  1.0 0.3715798762
C  C176  1  0.59260000  0.36740000  0.40830000  1.0 0.3586094332
C  C177  1  0.82460000  0.41450000  0.42480000  1.0 0.0597926651
C  C178  1  0.86870000  0.44260000  0.44820000  1.0 -0.1415952199
C  C179  1  0.95690000  0.45700000  0.44470000  1.0 0.0597926651
C  C180  1  0.96720000  0.42370000  0.39770000  1.0 0.0662117543
C  C181  1  0.87680000  0.40590000  0.40070000  1.0 -0.1492603677
C  C182  1  0.54260000  0.34650000  0.38420000  1.0 0.0419668015
C  C183  1  0.59240000  0.32160000  0.36230000  1.0 -0.1492603677
C  C184  1  0.53980000  0.30000000  0.34060000  1.0 0.0798454447
C  C185  1  0.39780000  0.32440000  0.36030000  1.0 0.0882427205
C  C186  1  0.44310000  0.34600000  0.38280000  1.0 -0.1492603677
C  C187  1  0.61760000  0.16620000  0.08080000  1.0 0.0662117543
C  C188  1  0.60200000  0.20690000  0.09460000  1.0 -0.1653448539
C  C189  1  0.57890000  0.20450000  0.12430000  1.0 0.0662117543
C  C190  1  0.56820000  0.16120000  0.13690000  1.0 -0.1415952199
C  C191  1  0.58510000  0.12170000  0.12000000  1.0 0.0798454447
C  C192  1  0.56550000  0.24840000  0.14150000  1.0 0.3586094332
C  C193  1  0.56300000  0.32520000  0.14500000  1.0 0.3715798762
C  C194  1  0.53260000  0.28130000  0.18470000  1.0 0.3908316148
C  C195  1  0.57560000  0.37200000  0.13210000  1.0 0.0517364828
C  C196  1  0.58520000  0.37650000  0.10110000  1.0 -0.1492603677
C  C197  1  0.59670000  0.41910000  0.09110000  1.0 0.0597926651
C  C198  1  0.59920000  0.45450000  0.13390000  1.0 0.09935037
C  C199  1  0.57940000  0.41150000  0.14840000  1.0 -0.1415952199
C  C200  1  0.50370000  0.27700000  0.21580000  1.0 0.0419668015
C  C201  1  0.47450000  0.31480000  0.23160000  1.0 -0.1311313597
C  C202  1  0.44420000  0.30960000  0.25950000  1.0 0.0597926651
C  C203  1  0.47140000  0.23040000  0.25810000  1.0 0.09935037
C  C204  1  0.50250000  0.23500000  0.22810000  1.0 -0.1222846685
C  C205  1  0.07780000  0.07540000  0.27330000  1.0 0.0133143148
C  C206  1  0.98230000  0.06360000  0.27660000  1.0 -0.1222846685
C  C207  1  0.94400000  0.05780000  0.30420000  1.0 -0.0701002851
C  C208  1  0.00200000  0.06390000  0.32840000  1.0 -0.063602888
C  C209  1  0.09700000  0.07570000  0.32500000  1.0 -0.0971293254
C  C210  1  0.13500000  0.08150000  0.29750000  1.0 -0.1492603677
C  C211  1  0.47930000  0.05920000  0.02880000  1.0 0.0597926651
C  C212  1  0.42600000  0.06950000  0.00410000  1.0 -0.1311313597
C  C213  1  0.46670000  0.09120000  0.98070000  1.0 0.031896851
C  C214  1  0.56240000  0.10090000  0.98180000  1.0 -0.1311313597
C  C215  1  0.61600000  0.08800000  0.00790000  1.0 0.09935037
C  C216  1  0.41500000  0.10240000  0.95380000  1.0 0.3715798762
C  C217  1  0.27730000  0.10070000  0.92900000  1.0 0.3715798762
C  C218  1  0.40740000  0.13260000  0.90830000  1.0 0.3586094332
C  C219  1  0.17540000  0.08550000  0.92480000  1.0 0.0597926651
C  C220  1  0.13130000  0.05740000  0.94820000  1.0 -0.1415952199
C  C221  1  0.04310000  0.04300000  0.94470000  1.0 0.0597926651
C  C222  1  0.03280000  0.07630000  0.89770000  1.0 0.0662117543
C  C223  1  0.12320000  0.09410000  0.90070000  1.0 -0.1492603677
C  C224  1  0.45740000  0.15350000  0.88420000  1.0 0.0419668015
C  C225  1  0.40760000  0.17840000  0.86230000  1.0 -0.1492603677
C  C226  1  0.46020000  0.20000000  0.84060000  1.0 0.0798454447
C  C227  1  0.60220000  0.17560000  0.86030000  1.0 0.0882427205
C  C228  1  0.55690000  0.15400000  0.88280000  1.0 -0.1492603677
C  C229  1  0.38240000  0.33380000  0.58080000  1.0 0.0662117543
C  C230  1  0.39800000  0.29310000  0.59460000  1.0 -0.1653448539
C  C231  1  0.42110000  0.29550000  0.62430000  1.0 0.0662117543
C  C232  1  0.43180000  0.33880000  0.63690000  1.0 -0.1415952199
C  C233  1  0.41490000  0.37830000  0.62000000  1.0 0.0798454447
C  C234  1  0.43450000  0.25160000  0.64150000  1.0 0.3586094332
C  C235  1  0.43700000  0.17480000  0.64500000  1.0 0.3715798762
C  C236  1  0.46740000  0.21870000  0.68470000  1.0 0.3908316148
C  C237  1  0.42440000  0.12800000  0.63210000  1.0 0.0517364828
C  C238  1  0.41480000  0.12350000  0.60110000  1.0 -0.1492603677
C  C239  1  0.40330000  0.08090000  0.59110000  1.0 0.0597926651
C  C240  1  0.40080000  0.04550000  0.63390000  1.0 0.09935037
C  C241  1  0.42060000  0.08850000  0.64840000  1.0 -0.1415952199
C  C242  1  0.49630000  0.22300000  0.71580000  1.0 0.0419668015
C  C243  1  0.52550000  0.18520000  0.73160000  1.0 -0.1311313597
C  C244  1  0.55580000  0.19040000  0.75950000  1.0 0.0597926651
C  C245  1  0.52860000  0.26960000  0.75810000  1.0 0.09935037
C  C246  1  0.49750000  0.26500000  0.72810000  1.0 -0.1222846685
C  C247  1  0.92220000  0.42460000  0.77330000  1.0 0.0133143148
C  C248  1  0.01770000  0.43640000  0.77660000  1.0 -0.1222846685
C  C249  1  0.05600000  0.44220000  0.80420000  1.0 -0.0701002851
C  C250  1  0.99800000  0.43610000  0.82840000  1.0 -0.063602888
C  C251  1  0.90300000  0.42430000  0.82500000  1.0 -0.0971293254
C  C252  1  0.86500000  0.41850000  0.79750000  1.0 -0.1492603677
C  C253  1  0.02070000  0.55920000  0.97120000  1.0 0.0597926651
C  C254  1  0.07400000  0.56950000  0.99590000  1.0 -0.1311313597
C  C255  1  0.03330000  0.59120000  0.01930000  1.0 0.031896851
C  C256  1  0.93760000  0.60090000  0.01820000  1.0 -0.1311313597
C  C257  1  0.88400000  0.58800000  0.99210000  1.0 0.09935037
C  C258  1  0.08500000  0.60240000  0.04620000  1.0 0.3715798762
C  C259  1  0.22270000  0.60070000  0.07100000  1.0 0.3715798762
C  C260  1  0.09260000  0.63260000  0.09170000  1.0 0.3586094332
C  C261  1  0.32460000  0.58550000  0.07520000  1.0 0.0597926651
C  C262  1  0.36870000  0.55740000  0.05180000  1.0 -0.1415952199
C  C263  1  0.45690000  0.54300000  0.05530000  1.0 0.0597926651
C  C264  1  0.46720000  0.57630000  0.10230000  1.0 0.0662117543
C  C265  1  0.37680000  0.59410000  0.09930000  1.0 -0.1492603677
C  C266  1  0.04260000  0.65350000  0.11580000  1.0 0.0419668015
C  C267  1  0.09240000  0.67840000  0.13770000  1.0 -0.1492603677
C  C268  1  0.03980000  0.70000000  0.15940000  1.0 0.0798454447
C  C269  1  0.89780000  0.67560000  0.13970000  1.0 0.0882427205
C  C270  1  0.94310000  0.65400000  0.11720000  1.0 -0.1492603677
C  C271  1  0.11760000  0.83380000  0.41920000  1.0 0.0662117543
C  C272  1  0.10200000  0.79310000  0.40540000  1.0 -0.1653448539
C  C273  1  0.07890000  0.79550000  0.37570000  1.0 0.0597926651
C  C274  1  0.06820000  0.83880000  0.36310000  1.0 -0.1415952199
C  C275  1  0.08510000  0.87830000  0.38000000  1.0 0.0798454447
C  C276  1  0.06550000  0.75160000  0.35850000  1.0 0.3715798762
C  C277  1  0.06300000  0.67480000  0.35500000  1.0 0.3715798762
C  C278  1  0.03260000  0.71870000  0.31530000  1.0 0.3908316148
C  C279  1  0.07560000  0.62800000  0.36790000  1.0 0.0517364828
C  C280  1  0.08520000  0.62350000  0.39890000  1.0 -0.1492603677
C  C281  1  0.09670000  0.58090000  0.40890000  1.0 0.0597926651
C  C282  1  0.09920000  0.54550000  0.36610000  1.0 0.09935037
C  C283  1  0.07940000  0.58850000  0.35160000  1.0 -0.1415952199
C  C284  1  0.00370000  0.72300000  0.28420000  1.0 0.0419668015
C  C285  1  0.97450000  0.68520000  0.26840000  1.0 -0.1311313597
C  C286  1  0.94420000  0.69040000  0.24050000  1.0 0.0597926651
C  C287  1  0.97140000  0.76960000  0.24190000  1.0 0.09935037
C  C288  1  0.00250000  0.76500000  0.27190000  1.0 -0.1222846685
C  C289  1  0.57780000  0.92460000  0.22670000  1.0 0.0150861451
C  C290  1  0.48230000  0.93640000  0.22340000  1.0 -0.1222846685
C  C291  1  0.44400000  0.94220000  0.19580000  1.0 -0.0701002851
C  C292  1  0.50200000  0.93610000  0.17160000  1.0 -0.063602888
C  C293  1  0.59700000  0.92430000  0.17500000  1.0 -0.0971293254
C  C294  1  0.63500000  0.91850000  0.20250000  1.0 -0.1492603677
C  C295  1  0.97930000  0.94080000  0.47120000  1.0 0.0597926651
C  C296  1  0.92600000  0.93050000  0.49590000  1.0 -0.1311313597
C  C297  1  0.96670000  0.90880000  0.51930000  1.0 0.031896851
C  C298  1  0.06240000  0.89910000  0.51820000  1.0 -0.1311313597
C  C299  1  0.11600000  0.91200000  0.49210000  1.0 0.09935037
C  C300  1  0.91500000  0.89760000  0.54620000  1.0 0.3715798762
C  C301  1  0.77730000  0.89930000  0.57100000  1.0 0.3715798762
C  C302  1  0.90740000  0.86740000  0.59170000  1.0 0.3586094332
C  C303  1  0.67540000  0.91450000  0.57520000  1.0 0.0597926651
C  C304  1  0.63130000  0.94260000  0.55180000  1.0 -0.1415952199
C  C305  1  0.54310000  0.95700000  0.55530000  1.0 0.0597926651
C  C306  1  0.53280000  0.92370000  0.60230000  1.0 0.0662117543
C  C307  1  0.62320000  0.90590000  0.59930000  1.0 -0.1492603677
C  C308  1  0.95740000  0.84650000  0.61580000  1.0 0.0419668015
C  C309  1  0.90760000  0.82160000  0.63770000  1.0 -0.1492603677
C  C310  1  0.96020000  0.80000000  0.65940000  1.0 0.0798454447
C  C311  1  0.10220000  0.82440000  0.63970000  1.0 0.0882427205
C  C312  1  0.05690000  0.84600000  0.61720000  1.0 -0.1492603677
C  C313  1  0.88240000  0.66620000  0.91920000  1.0 0.0662117543
C  C314  1  0.89800000  0.70690000  0.90540000  1.0 -0.1653448539
C  C315  1  0.92110000  0.70450000  0.87570000  1.0 0.0662117543
C  C316  1  0.93180000  0.66120000  0.86310000  1.0 -0.1415952199
C  C317  1  0.91490000  0.62170000  0.88000000  1.0 0.0798454447
C  C318  1  0.93450000  0.74840000  0.85850000  1.0 0.3586094332
C  C319  1  0.93700000  0.82520000  0.85500000  1.0 0.3715798762
C  C320  1  0.96740000  0.78130000  0.81530000  1.0 0.3908316148
C  C321  1  0.92440000  0.87200000  0.86790000  1.0 0.0517364828
C  C322  1  0.91480000  0.87650000  0.89890000  1.0 -0.1492603677
C  C323  1  0.90330000  0.91910000  0.90890000  1.0 0.0597926651
C  C324  1  0.90080000  0.95450000  0.86610000  1.0 0.09935037
C  C325  1  0.92060000  0.91150000  0.85160000  1.0 -0.1415952199
C  C326  1  0.99630000  0.77700000  0.78420000  1.0 0.0419668015
C  C327  1  0.02550000  0.81480000  0.76840000  1.0 -0.1311313597
C  C328  1  0.05580000  0.80960000  0.74050000  1.0 0.0597926651
C  C329  1  0.02860000  0.73040000  0.74190000  1.0 0.09935037
C  C330  1  0.99750000  0.73500000  0.77190000  1.0 -0.1222846685
C  C331  1  0.42220000  0.57540000  0.72670000  1.0 0.0133143148
C  C332  1  0.51770000  0.56360000  0.72340000  1.0 -0.1222846685
C  C333  1  0.55600000  0.55780000  0.69580000  1.0 -0.0701002851
C  C334  1  0.49800000  0.56390000  0.67160000  1.0 -0.063602888
C  C335  1  0.40300000  0.57570000  0.67500000  1.0 -0.0971293254
C  C336  1  0.36500000  0.58150000  0.70250000  1.0 -0.1492603677
I  I1  1  0.56325000  0.49733000  0.40299000  1.0 -0.2919079931
I  I2  1  0.82201000  0.57142000  0.44103000  1.0 -0.397759282
I  I3  1  0.76819000  0.56717000  0.62509000  1.0 -0.4530776786
I  I4  1  0.78822000  0.50403000  0.53655000  1.0 -0.4627939062
I  I5  1  0.79546000  0.70237000  0.69514000  1.0 -0.4627939062
I  I6  1  0.62649000  0.82421000  0.67218000  1.0 -0.3115530358
I  I7  1  0.83230000  0.54850000  0.36920000  1.0 0.0419668015
I  I8  1  0.87560000  0.55440000  0.31000000  1.0 0.0029569995
I  I9  1  0.73170000  0.49860000  0.36290000  1.0 0.0597926651
I  I10  1  0.88900000  0.50000000  0.32550000  1.0 -0.0170390512
I  I11  1  0.74290000  0.87280000  0.71793000  1.0 0.0597926651
I  I12  1  0.84470000  0.92370000  0.75980000  1.0 0.3269588118
I  I13  1  0.43675000  0.00267000  0.90299000  1.0 -0.2919079931
I  I14  1  0.17799000  0.92858000  0.94103000  1.0 -0.397759282
I  I15  1  0.23181000  0.93283000  0.12509000  1.0 -0.4530776786
I  I16  1  0.21178000  0.99597000  0.03655000  1.0 -0.4627939062
I  I17  1  0.20454000  0.79763000  0.19514000  1.0 -0.4627939062
I  I18  1  0.37351000  0.67579000  0.17218000  1.0 -0.3115530358
I  I19  1  0.16770000  0.95150000  0.86920000  1.0 0.0419668015
I  I20  1  0.12440000  0.94560000  0.81000000  1.0 0.0029569995
I  I21  1  0.26830000  0.00140000  0.86290000  1.0 0.0517364828
I  I22  1  0.11100000  0.00000000  0.82550000  1.0 -0.0170390512
I  I23  1  0.25710000  0.62720000  0.21793000  1.0 0.0597926651
I  I24  1  0.15530000  0.57630000  0.25980000  1.0 0.3269588118
I  I25  1  0.06325000  0.50267000  0.09701000  1.0 -0.2919079931
I  I26  1  0.32201000  0.42858000  0.05897000  1.0 -0.397759282
I  I27  1  0.26819000  0.43283000  0.87491000  1.0 -0.4530776786
I  I28  1  0.28822000  0.49597000  0.96345000  1.0 -0.4627939062
I  I29  1  0.29546000  0.29763000  0.80486000  1.0 -0.4627939062
I  I30  1  0.12649000  0.17579000  0.82782000  1.0 -0.3115530358
I  I31  1  0.33230000  0.45150000  0.13080000  1.0 0.0419668015
I  I32  1  0.37560000  0.44560000  0.19000000  1.0 0.0029569995
I  I33  1  0.23170000  0.50140000  0.13710000  1.0 0.0597926651
I  I34  1  0.38900000  0.50000000  0.17450000  1.0 -0.0170390512
I  I35  1  0.24290000  0.12720000  0.78207000  1.0 0.0597926651
I  I36  1  0.34470000  0.07630000  0.74020000  1.0 0.3269588118
I  I37  1  0.93675000  0.99733000  0.59701000  1.0 -0.2919079931
I  I38  1  0.67799000  0.07142000  0.55897000  1.0 -0.397759282
I  I39  1  0.73181000  0.06717000  0.37491000  1.0 -0.4530776786
I  I40  1  0.71178000  0.00403000  0.46345000  1.0 -0.4627939062
I  I41  1  0.70454000  0.20237000  0.30486000  1.0 -0.4627939062
I  I42  1  0.87351000  0.32421000  0.32782000  1.0 -0.3115530358
I  I43  1  0.66770000  0.04850000  0.63080000  1.0 0.0419668015
I  I44  1  0.62440000  0.05440000  0.69000000  1.0 0.0029569995
I  I45  1  0.76830000  0.99860000  0.63710000  1.0 0.0597926651
I  I46  1  0.61100000  0.00000000  0.67450000  1.0 -0.0170390512
I  I47  1  0.75710000  0.37280000  0.28207000  1.0 0.0597926651
I  I48  1  0.65530000  0.42370000  0.24020000  1.0 0.3269588118
I  I49  1  0.43675000  0.50267000  0.59701000  1.0 -0.2919079931
I  I50  1  0.17799000  0.42858000  0.55897000  1.0 -0.397759282
I  I51  1  0.23181000  0.43283000  0.37491000  1.0 -0.4530776786
I  I52  1  0.21178000  0.49597000  0.46345000  1.0 -0.4627939062
I  I53  1  0.20454000  0.29763000  0.30486000  1.0 -0.4627939062
I  I54  1  0.37351000  0.17579000  0.32782000  1.0 -0.3115530358
I  I55  1  0.16770000  0.45150000  0.63080000  1.0 0.0419668015
I  I56  1  0.12440000  0.44560000  0.69000000  1.0 0.0029569995
I  I57  1  0.26830000  0.50140000  0.63710000  1.0 0.0597926651
I  I58  1  0.11100000  0.50000000  0.67450000  1.0 -0.0170390512
I  I59  1  0.25710000  0.12720000  0.28207000  1.0 0.0597926651
I  I60  1  0.15530000  0.07630000  0.24020000  1.0 0.3269588118
I  I61  1  0.56325000  0.99733000  0.09701000  1.0 -0.2919079931
I  I62  1  0.82201000  0.07142000  0.05897000  1.0 -0.397759282
I  I63  1  0.76819000  0.06717000  0.87491000  1.0 -0.4530776786
I  I64  1  0.78822000  0.00403000  0.96345000  1.0 -0.4627939062
I  I65  1  0.79546000  0.20237000  0.80486000  1.0 -0.4627939062
I  I66  1  0.62649000  0.32421000  0.82782000  1.0 -0.3115530358
I  I67  1  0.83230000  0.04850000  0.13080000  1.0 0.0419668015
I  I68  1  0.87560000  0.05440000  0.19000000  1.0 0.0029569995
I  I69  1  0.73170000  0.99860000  0.13710000  1.0 0.0597926651
I  I70  1  0.88900000  0.00000000  0.17450000  1.0 -0.0170390512
I  I71  1  0.74290000  0.37280000  0.78207000  1.0 0.0597926651
I  I72  1  0.84470000  0.42370000  0.74020000  1.0 0.3269588118
I  I73  1  0.93675000  0.49733000  0.90299000  1.0 -0.2919079931
I  I74  1  0.67799000  0.57142000  0.94103000  1.0 -0.397759282
I  I75  1  0.73181000  0.56717000  0.12509000  1.0 -0.4530776786
I  I76  1  0.71178000  0.50403000  0.03655000  1.0 -0.4627939062
I  I77  1  0.70454000  0.70237000  0.19514000  1.0 -0.4627939062
I  I78  1  0.87351000  0.82421000  0.17218000  1.0 -0.3115530358
I  I79  1  0.66770000  0.54850000  0.86920000  1.0 0.0419668015
I  I80  1  0.62440000  0.55440000  0.81000000  1.0 0.0029569995
I  I81  1  0.76830000  0.49860000  0.86290000  1.0 0.0597926651
I  I82  1  0.61100000  0.50000000  0.82550000  1.0 -0.0170390512
I  I83  1  0.75710000  0.87280000  0.21793000  1.0 0.0597926651
I  I84  1  0.65530000  0.92370000  0.25980000  1.0 0.3269588118
I  I85  1  0.06325000  0.00267000  0.40299000  1.0 -0.2919079931
I  I86  1  0.32201000  0.92858000  0.44103000  1.0 -0.397759282
I  I87  1  0.26819000  0.93283000  0.62509000  1.0 -0.4530776786
I  I88  1  0.28822000  0.99597000  0.53655000  1.0 -0.4627939062
I  I89  1  0.29546000  0.79763000  0.69514000  1.0 -0.4627939062
I  I90  1  0.12649000  0.67579000  0.67218000  1.0 -0.3115530358
I  I91  1  0.33230000  0.95150000  0.36920000  1.0 0.0419668015
I  I92  1  0.37560000  0.94560000  0.31000000  1.0 0.0029569995
I  I93  1  0.23170000  0.00140000  0.36290000  1.0 0.0517364828
I  I94  1  0.38900000  0.00000000  0.32550000  1.0 -0.0170390512
I  I95  1  0.24290000  0.62720000  0.71793000  1.0 0.0597926651
I  I96  1  0.34470000  0.57630000  0.75980000  1.0 0.3269588118
N  N1  1  0.57370000  0.57170000  0.46860000  1.0 -0.196613227
N  N2  1  0.32210000  0.59020000  0.54697000  1.0 -0.3748642178
N  N3  1  0.31680000  0.62270000  0.59443000  1.0 -0.383302507
N  N4  1  0.45940000  0.62240000  0.56740000  1.0 -0.3909876822
N  N5  1  0.98980000  0.55130000  0.58030000  1.0 -0.1784794116
N  N6  1  0.55680000  0.69860000  0.66034000  1.0 -0.196613227
N  N7  1  0.39210000  0.87640000  0.90768000  1.0 -0.1865393401
N  N8  1  0.42300000  0.71200000  0.87155000  1.0 -0.3909876822
N  N9  1  0.45770000  0.67530000  0.82605000  1.0 -0.397759282
N  N10  1  0.45640000  0.75830000  0.83006000  1.0 -0.4186825501
N  N11  1  0.39360000  0.54240000  0.89360000  1.0 -0.1784794116
N  N12  1  0.56000000  0.73260000  0.72736000  1.0 -0.1865393401
N  N13  1  0.88630000  0.91910000  0.75290000  1.0 -0.0170390512
N  N14  1  0.42630000  0.92830000  0.96860000  1.0 -0.196613227
N  N15  1  0.67790000  0.90980000  0.04697000  1.0 -0.3748642178
N  N16  1  0.68320000  0.87730000  0.09443000  1.0 -0.383302507
N  N17  1  0.54060000  0.87760000  0.06740000  1.0 -0.3909876822
N  N18  1  0.01020000  0.94870000  0.08030000  1.0 -0.1784794116
N  N19  1  0.44320000  0.80140000  0.16034000  1.0 -0.196613227
N  N20  1  0.60790000  0.62360000  0.40768000  1.0 -0.1865393401
N  N21  1  0.57700000  0.78800000  0.37155000  1.0 -0.3909876822
N  N22  1  0.54230000  0.82470000  0.32605000  1.0 -0.397759282
N  N23  1  0.54360000  0.74170000  0.33006000  1.0 -0.4186825501
N  N24  1  0.60640000  0.95760000  0.39360000  1.0 -0.1784794116
N  N25  1  0.44000000  0.76740000  0.22736000  1.0 -0.1865393401
N  N26  1  0.11370000  0.58090000  0.25290000  1.0 -0.0170390512
N  N27  1  0.07370000  0.42830000  0.03140000  1.0 -0.196613227
N  N28  1  0.82210000  0.40980000  0.95303000  1.0 -0.3748642178
N  N29  1  0.81680000  0.37730000  0.90557000  1.0 -0.383302507
N  N30  1  0.95940000  0.37760000  0.93260000  1.0 -0.3909876822
N  N31  1  0.48980000  0.44870000  0.91970000  1.0 -0.1784794116
N  N32  1  0.05680000  0.30140000  0.83966000  1.0 -0.196613227
N  N33  1  0.89210000  0.12360000  0.59232000  1.0 -0.1865393401
N  N34  1  0.92300000  0.28800000  0.62845000  1.0 -0.3909876822
N  N35  1  0.95770000  0.32470000  0.67395000  1.0 -0.397759282
N  N36  1  0.95640000  0.24170000  0.66994000  1.0 -0.4186825501
N  N37  1  0.89360000  0.45760000  0.60640000  1.0 -0.1784794116
N  N38  1  0.06000000  0.26740000  0.77264000  1.0 -0.1865393401
N  N39  1  0.38630000  0.08090000  0.74710000  1.0 -0.0170390512
N  N40  1  0.92630000  0.07170000  0.53140000  1.0 -0.196613227
N  N41  1  0.17790000  0.09020000  0.45303000  1.0 -0.3748642178
N  N42  1  0.18320000  0.12270000  0.40557000  1.0 -0.383302507
N  N43  1  0.04060000  0.12240000  0.43260000  1.0 -0.3909876822
N  N44  1  0.51020000  0.05130000  0.41970000  1.0 -0.1784794116
N  N45  1  0.94320000  0.19860000  0.33966000  1.0 -0.1865393401
N  N46  1  0.10790000  0.37640000  0.09232000  1.0 -0.1865393401
N  N47  1  0.07700000  0.21200000  0.12845000  1.0 -0.3909876822
N  N48  1  0.04230000  0.17530000  0.17395000  1.0 -0.397759282
N  N49  1  0.04360000  0.25830000  0.16994000  1.0 -0.4186825501
N  N50  1  0.10640000  0.04240000  0.10640000  1.0 -0.1784794116
N  N51  1  0.94000000  0.23260000  0.27264000  1.0 -0.1865393401
N  N52  1  0.61370000  0.41910000  0.24710000  1.0 -0.0170390512
N  N53  1  0.42630000  0.42830000  0.53140000  1.0 -0.196613227
N  N54  1  0.67790000  0.40980000  0.45303000  1.0 -0.3748642178
N  N55  1  0.68320000  0.37730000  0.40557000  1.0 -0.383302507
N  N56  1  0.54060000  0.37760000  0.43260000  1.0 -0.3909876822
N  N57  1  0.01020000  0.44870000  0.41970000  1.0 -0.1784794116
N  N58  1  0.44320000  0.30140000  0.33966000  1.0 -0.1865393401
N  N59  1  0.60790000  0.12360000  0.09232000  1.0 -0.1865393401
N  N60  1  0.57700000  0.28800000  0.12845000  1.0 -0.3909876822
N  N61  1  0.54230000  0.32470000  0.17395000  1.0 -0.397759282
N  N62  1  0.54360000  0.24170000  0.16994000  1.0 -0.4186825501
N  N63  1  0.60640000  0.45760000  0.10640000  1.0 -0.1784794116
N  N64  1  0.44000000  0.26740000  0.27264000  1.0 -0.1865393401
N  N65  1  0.11370000  0.08090000  0.24710000  1.0 -0.0170390512
N  N66  1  0.57370000  0.07170000  0.03140000  1.0 -0.196613227
N  N67  1  0.32210000  0.09020000  0.95303000  1.0 -0.3748642178
N  N68  1  0.31680000  0.12270000  0.90557000  1.0 -0.383302507
N  N69  1  0.45940000  0.12240000  0.93260000  1.0 -0.3909876822
N  N70  1  0.98980000  0.05130000  0.91970000  1.0 -0.1784794116
N  N71  1  0.55680000  0.19860000  0.83966000  1.0 -0.196613227
N  N72  1  0.39210000  0.37640000  0.59232000  1.0 -0.1865393401
N  N73  1  0.42300000  0.21200000  0.62845000  1.0 -0.3909876822
N  N74  1  0.45770000  0.17530000  0.67395000  1.0 -0.397759282
N  N75  1  0.45640000  0.25830000  0.66994000  1.0 -0.4186825501
N  N76  1  0.39360000  0.04240000  0.60640000  1.0 -0.1784794116
N  N77  1  0.56000000  0.23260000  0.77264000  1.0 -0.1865393401
N  N78  1  0.88630000  0.41910000  0.74710000  1.0 -0.0170390512
N  N79  1  0.92630000  0.57170000  0.96860000  1.0 -0.196613227
N  N80  1  0.17790000  0.59020000  0.04697000  1.0 -0.3748642178
N  N81  1  0.18320000  0.62270000  0.09443000  1.0 -0.383302507
N  N82  1  0.04060000  0.62240000  0.06740000  1.0 -0.3909876822
N  N83  1  0.51020000  0.55130000  0.08030000  1.0 -0.1784794116
N  N84  1  0.94320000  0.69860000  0.16034000  1.0 -0.196613227
N  N85  1  0.10790000  0.87640000  0.40768000  1.0 -0.1865393401
N  N86  1  0.07700000  0.71200000  0.37155000  1.0 -0.3909876822
N  N87  1  0.04230000  0.67530000  0.32605000  1.0 -0.397759282
N  N88  1  0.04360000  0.75830000  0.33006000  1.0 -0.4186825501
N  N89  1  0.10640000  0.54240000  0.39360000  1.0 -0.1784794116
N  N90  1  0.94000000  0.73260000  0.22736000  1.0 -0.1865393401
N  N91  1  0.61370000  0.91910000  0.25290000  1.0 -0.0170390512
N  N92  1  0.07370000  0.92830000  0.46860000  1.0 -0.196613227
N  N93  1  0.82210000  0.90980000  0.54697000  1.0 -0.3748642178
N  N94  1  0.81680000  0.87730000  0.59443000  1.0 -0.383302507
N  N95  1  0.95940000  0.87760000  0.56740000  1.0 -0.3909876822
N  N96  1  0.48980000  0.94870000  0.58030000  1.0 -0.1784794116
N  N97  1  0.05680000  0.80140000  0.66034000  1.0 -0.196613227
N  N98  1  0.89210000  0.62360000  0.90768000  1.0 -0.1865393401
N  N99  1  0.92300000  0.78800000  0.87155000  1.0 -0.3909876822
N  N100  1  0.95770000  0.82470000  0.82605000  1.0 -0.397759282
N  N101  1  0.95640000  0.74170000  0.83006000  1.0 -0.4186825501
N  N102  1  0.89360000  0.95760000  0.89360000  1.0 -0.1784794116
N  N103  1  0.06000000  0.76740000  0.72736000  1.0 -0.1865393401
N  N104  1  0.38630000  0.58090000  0.75290000  1.0 -0.0170390512
O  O1  1  0.79780000  0.90810000  0.75570000  1.0 -0.2554304367
O  O2  1  0.94100000  0.92500000  0.77500000  1.0 -0.2954582618
O  O3  1  0.20220000  0.59190000  0.25570000  1.0 -0.2554304367
O  O4  1  0.05900000  0.57500000  0.27500000  1.0 -0.2954582618
O  O5  1  0.29780000  0.09190000  0.74430000  1.0 -0.2554304367
O  O6  1  0.44100000  0.07500000  0.72500000  1.0 -0.2954582618
O  O7  1  0.70220000  0.40810000  0.24430000  1.0 -0.2554304367
O  O8  1  0.55900000  0.42500000  0.22500000  1.0 -0.2954582618
O  O9  1  0.20220000  0.09190000  0.24430000  1.0 -0.2554304367
O  O10  1  0.05900000  0.07500000  0.22500000  1.0 -0.2954582618
O  O11  1  0.79780000  0.40810000  0.74430000  1.0 -0.2554304367
O  O12  1  0.94100000  0.42500000  0.72500000  1.0 -0.2954582618
O  O13  1  0.70220000  0.90810000  0.25570000  1.0 -0.2554304367
O  O14  1  0.55900000  0.92500000  0.27500000  1.0 -0.2954582618
O  O15  1  0.29780000  0.59190000  0.75570000  1.0 -0.2554304367
O  O16  1  0.44100000  0.57500000  0.77500000  1.0 -0.2954582618
