# DDEC6 charges by PACMAN v1.1 (https://github.com/mtap-research/PACMAN-charge/)
data_KEVYAO_ASR_pacman
_symmetry_space_group_name_H-M   'P 1'
_cell_length_a   13.93600000
_cell_length_b   28.60350000
_cell_length_c   45.91980000
_cell_angle_alpha   90.00000000
_cell_angle_beta   90.00000000
_cell_angle_gamma   90.00000000
_symmetry_Int_Tables_number   1
_chemical_formula_structural   Zn3H29C42I12N13O2
_chemical_formula_sum   'Zn24 H232 C336 I96 N104 O16'
_cell_volume   18304.47610224
_cell_formula_units_Z   8
loop_
 _symmetry_equiv_pos_site_id
 _symmetry_equiv_pos_as_xyz
  1  'x, y, z'
loop_
 _atom_site_type_symbol
 _atom_site_label
 _atom_site_symmetry_multiplicity
 _atom_site_fract_x
 _atom_site_fract_y
 _atom_site_fract_z
 _atom_site_occupancy
 _atom_site_charge
Zn  Zn1  1  0.64794000  0.56295000  0.43035000  1.0 0.4270304788
Zn  Zn2  1  0.85684000  0.52208000  0.58705000  1.0 0.46348329
Zn  Zn3  1  0.63357000  0.74113000  0.68843000  1.0 0.4424840856
Zn  Zn4  1  0.35206000  0.93705000  0.93035000  1.0 0.4270304788
Zn  Zn5  1  0.14316000  0.97792000  0.08705000  1.0 0.4650877576
Zn  Zn6  1  0.36643000  0.75887000  0.18843000  1.0 0.4424840856
Zn  Zn7  1  0.14794000  0.43705000  0.06965000  1.0 0.4270304788
Zn  Zn8  1  0.35684000  0.47792000  0.91295000  1.0 0.46348329
Zn  Zn9  1  0.13357000  0.25887000  0.81157000  1.0 0.4424840856
Zn  Zn10  1  0.85206000  0.06295000  0.56965000  1.0 0.4270304788
Zn  Zn11  1  0.64316000  0.02208000  0.41295000  1.0 0.46348329
Zn  Zn12  1  0.86643000  0.24113000  0.31157000  1.0 0.4424840856
Zn  Zn13  1  0.35206000  0.43705000  0.56965000  1.0 0.4270304788
Zn  Zn14  1  0.14316000  0.47792000  0.41295000  1.0 0.46348329
Zn  Zn15  1  0.36643000  0.25887000  0.31157000  1.0 0.4424840856
Zn  Zn16  1  0.64794000  0.06295000  0.06965000  1.0 0.4270304788
Zn  Zn17  1  0.85684000  0.02208000  0.91295000  1.0 0.46348329
Zn  Zn18  1  0.63357000  0.24113000  0.81157000  1.0 0.4424840856
Zn  Zn19  1  0.85206000  0.56295000  0.93035000  1.0 0.4270304788
Zn  Zn20  1  0.64316000  0.52208000  0.08705000  1.0 0.46348329
Zn  Zn21  1  0.86643000  0.74113000  0.18843000  1.0 0.4424840856
Zn  Zn22  1  0.14794000  0.93705000  0.43035000  1.0 0.4270304788
Zn  Zn23  1  0.35684000  0.97792000  0.58705000  1.0 0.46348329
Zn  Zn24  1  0.13357000  0.75887000  0.68843000  1.0 0.4424840856
H  H1  1  0.45200000  0.54650000  0.45530000  1.0 0.1085546028
H  H2  1  0.36300000  0.56250000  0.49540000  1.0 0.1374859471
H  H3  1  0.59340000  0.61940000  0.53230000  1.0 0.1374859471
H  H4  1  0.68320000  0.59730000  0.49170000  1.0 0.1011024951
H  H5  1  0.16520000  0.55160000  0.53610000  1.0 0.1374859471
H  H6  1  0.01080000  0.52840000  0.54100000  1.0 0.1177033974
H  H7  1  0.99560000  0.58450000  0.61750000  1.0 0.1085546028
H  H8  1  0.14950000  0.61490000  0.61260000  1.0 0.1285916948
H  H9  1  0.34170000  0.67800000  0.63830000  1.0 0.1374859471
H  H10  1  0.42720000  0.71750000  0.67340000  1.0 0.1085546028
H  H11  1  0.66860000  0.67470000  0.63910000  1.0 0.1085546028
H  H12  1  0.58980000  0.64040000  0.60210000  1.0 0.1374859471
H  H13  1  0.35980000  0.83250000  0.93840000  1.0 0.1085546028
H  H14  1  0.39180000  0.76470000  0.91380000  1.0 0.1374859471
H  H15  1  0.44390000  0.84280000  0.84330000  1.0 0.1374859471
H  H16  1  0.42350000  0.90800000  0.87050000  1.0 0.1011024951
H  H17  1  0.42180000  0.64950000  0.90980000  1.0 0.1285916948
H  H18  1  0.39740000  0.57760000  0.92990000  1.0 0.1085546028
H  H19  1  0.39440000  0.51900000  0.85340000  1.0 0.1011024951
H  H20  1  0.42390000  0.58850000  0.83120000  1.0 0.1177033974
H  H21  1  0.52760000  0.65470000  0.77630000  1.0 0.1285916948
H  H22  1  0.57480000  0.66590000  0.72860000  1.0 0.1085546028
H  H23  1  0.52730000  0.79940000  0.73320000  1.0 0.1011024951
H  H24  1  0.47610000  0.79300000  0.78060000  1.0 0.1285916948
H  H25  1  0.04530000  0.93750000  0.74460000  1.0 0.1085546028
H  H26  1  0.12700000  0.94330000  0.70080000  1.0 0.1285916948
H  H27  1  0.04410000  0.93670000  0.65710000  1.0 0.1085546028
H  H28  1  0.87970000  0.92420000  0.65740000  1.0 0.0897130949
H  H29  1  0.79800000  0.91830000  0.70130000  1.0 0.0819632723
H  H30  1  0.54800000  0.95350000  0.95530000  1.0 0.1085546028
H  H31  1  0.63700000  0.93750000  0.99540000  1.0 0.1374859471
H  H32  1  0.40660000  0.88060000  0.03230000  1.0 0.1374859471
H  H33  1  0.31680000  0.90270000  0.99170000  1.0 0.1011024951
H  H34  1  0.83480000  0.94840000  0.03610000  1.0 0.1374859471
H  H35  1  0.98920000  0.97160000  0.04100000  1.0 0.1177033974
H  H36  1  0.00440000  0.91550000  0.11750000  1.0 0.1085546028
H  H37  1  0.85050000  0.88510000  0.11260000  1.0 0.1285916948
H  H38  1  0.65830000  0.82200000  0.13830000  1.0 0.1374859471
H  H39  1  0.57280000  0.78250000  0.17340000  1.0 0.1085546028
H  H40  1  0.33140000  0.82530000  0.13910000  1.0 0.1085546028
H  H41  1  0.41020000  0.85960000  0.10210000  1.0 0.1374859471
H  H42  1  0.64020000  0.66750000  0.43840000  1.0 0.1085546028
H  H43  1  0.60820000  0.73530000  0.41380000  1.0 0.1374859471
H  H44  1  0.55610000  0.65720000  0.34330000  1.0 0.1374859471
H  H45  1  0.57650000  0.59200000  0.37050000  1.0 0.1011024951
H  H46  1  0.57820000  0.85050000  0.40980000  1.0 0.1285916948
H  H47  1  0.60260000  0.92240000  0.42990000  1.0 0.1085546028
H  H48  1  0.60560000  0.98100000  0.35340000  1.0 0.1011024951
H  H49  1  0.57610000  0.91150000  0.33120000  1.0 0.1177033974
H  H50  1  0.47240000  0.84530000  0.27630000  1.0 0.1285916948
H  H51  1  0.42520000  0.83410000  0.22860000  1.0 0.1085546028
H  H52  1  0.47270000  0.70060000  0.23320000  1.0 0.1011024951
H  H53  1  0.52390000  0.70700000  0.28060000  1.0 0.1285916948
H  H54  1  0.95470000  0.56250000  0.24460000  1.0 0.1011024951
H  H55  1  0.87300000  0.55670000  0.20080000  1.0 0.1285916948
H  H56  1  0.95590000  0.56330000  0.15710000  1.0 0.1085546028
H  H57  1  0.12030000  0.57580000  0.15740000  1.0 0.0897130949
H  H58  1  0.20200000  0.58170000  0.20130000  1.0 0.0819632723
H  H59  1  0.95200000  0.45350000  0.04470000  1.0 0.1085546028
H  H60  1  0.86300000  0.43750000  0.00460000  1.0 0.1374859471
H  H61  1  0.09340000  0.38060000  0.96770000  1.0 0.1374859471
H  H62  1  0.18320000  0.40270000  0.00830000  1.0 0.1011024951
H  H63  1  0.66520000  0.44840000  0.96390000  1.0 0.1374859471
H  H64  1  0.51080000  0.47160000  0.95900000  1.0 0.1177033974
H  H65  1  0.49560000  0.41550000  0.88250000  1.0 0.1085546028
H  H66  1  0.64950000  0.38510000  0.88740000  1.0 0.1285916948
H  H67  1  0.84170000  0.32200000  0.86170000  1.0 0.1374859471
H  H68  1  0.92720000  0.28250000  0.82660000  1.0 0.1085546028
H  H69  1  0.16860000  0.32530000  0.86090000  1.0 0.1085546028
H  H70  1  0.08980000  0.35960000  0.89790000  1.0 0.1374859471
H  H71  1  0.85980000  0.16750000  0.56160000  1.0 0.1085546028
H  H72  1  0.89180000  0.23530000  0.58620000  1.0 0.1374859471
H  H73  1  0.94390000  0.15720000  0.65670000  1.0 0.1374859471
H  H74  1  0.92350000  0.09200000  0.62950000  1.0 0.1011024951
H  H75  1  0.92180000  0.35050000  0.59020000  1.0 0.1285916948
H  H76  1  0.89740000  0.42240000  0.57010000  1.0 0.1085546028
H  H77  1  0.89440000  0.48100000  0.64660000  1.0 0.1011024951
H  H78  1  0.92390000  0.41150000  0.66880000  1.0 0.1177033974
H  H79  1  0.02760000  0.34530000  0.72370000  1.0 0.1285916948
H  H80  1  0.07480000  0.33410000  0.77140000  1.0 0.1085546028
H  H81  1  0.02730000  0.20060000  0.76680000  1.0 0.1011024951
H  H82  1  0.97610000  0.20700000  0.71940000  1.0 0.1285916948
H  H83  1  0.54530000  0.06250000  0.75540000  1.0 0.1011024951
H  H84  1  0.62700000  0.05670000  0.79920000  1.0 0.1285916948
H  H85  1  0.54410000  0.06330000  0.84290000  1.0 0.1085546028
H  H86  1  0.37970000  0.07580000  0.84260000  1.0 0.0897130949
H  H87  1  0.29800000  0.08170000  0.79870000  1.0 0.0819632723
H  H88  1  0.04800000  0.04650000  0.54470000  1.0 0.1085546028
H  H89  1  0.13700000  0.06250000  0.50460000  1.0 0.1374859471
H  H90  1  0.90660000  0.11940000  0.46770000  1.0 0.1374859471
H  H91  1  0.81680000  0.09730000  0.50830000  1.0 0.1011024951
H  H92  1  0.33480000  0.05160000  0.46390000  1.0 0.1374859471
H  H93  1  0.48920000  0.02840000  0.45900000  1.0 0.1177033974
H  H94  1  0.50440000  0.08450000  0.38250000  1.0 0.1085546028
H  H95  1  0.35050000  0.11490000  0.38740000  1.0 0.1285916948
H  H96  1  0.15830000  0.17800000  0.36170000  1.0 0.1374859471
H  H97  1  0.07280000  0.21750000  0.32660000  1.0 0.1085546028
H  H98  1  0.83140000  0.17470000  0.36090000  1.0 0.1085546028
H  H99  1  0.91020000  0.14040000  0.39790000  1.0 0.1285916948
H  H100  1  0.14020000  0.33250000  0.06160000  1.0 0.1085546028
H  H101  1  0.10820000  0.26470000  0.08620000  1.0 0.1374859471
H  H102  1  0.05610000  0.34280000  0.15670000  1.0 0.1374859471
H  H103  1  0.07650000  0.40800000  0.12950000  1.0 0.1011024951
H  H104  1  0.07820000  0.14950000  0.09020000  1.0 0.1285916948
H  H105  1  0.10260000  0.07760000  0.07010000  1.0 0.1085546028
H  H106  1  0.10560000  0.01900000  0.14660000  1.0 0.1011024951
H  H107  1  0.07610000  0.08850000  0.16880000  1.0 0.1177033974
H  H108  1  0.97240000  0.15470000  0.22370000  1.0 0.1285916948
H  H109  1  0.92520000  0.16590000  0.27140000  1.0 0.1085546028
H  H110  1  0.97270000  0.29940000  0.26680000  1.0 0.1011024951
H  H111  1  0.02390000  0.29300000  0.21940000  1.0 0.1285916948
H  H112  1  0.45470000  0.43750000  0.25540000  1.0 0.1085546028
H  H113  1  0.37300000  0.44330000  0.29920000  1.0 0.1285916948
H  H114  1  0.45590000  0.43670000  0.34290000  1.0 0.1011024951
H  H115  1  0.62030000  0.42420000  0.34260000  1.0 0.0897130949
H  H116  1  0.70200000  0.41830000  0.29870000  1.0 0.0897130949
H  H117  1  0.54800000  0.45350000  0.54470000  1.0 0.1085546028
H  H118  1  0.63700000  0.43750000  0.50460000  1.0 0.1374859471
H  H119  1  0.40660000  0.38060000  0.46770000  1.0 0.1374859471
H  H120  1  0.31680000  0.40270000  0.50830000  1.0 0.1011024951
H  H121  1  0.83480000  0.44840000  0.46390000  1.0 0.1374859471
H  H122  1  0.98920000  0.47160000  0.45900000  1.0 0.1177033974
H  H123  1  0.00440000  0.41550000  0.38250000  1.0 0.1085546028
H  H124  1  0.85050000  0.38510000  0.38740000  1.0 0.1285916948
H  H125  1  0.65830000  0.32200000  0.36170000  1.0 0.1374859471
H  H126  1  0.57280000  0.28250000  0.32660000  1.0 0.1085546028
H  H127  1  0.33140000  0.32530000  0.36090000  1.0 0.1085546028
H  H128  1  0.41020000  0.35960000  0.39790000  1.0 0.1374859471
H  H129  1  0.64020000  0.16750000  0.06160000  1.0 0.1085546028
H  H130  1  0.60820000  0.23530000  0.08620000  1.0 0.1374859471
H  H131  1  0.55610000  0.15720000  0.15670000  1.0 0.1374859471
H  H132  1  0.57650000  0.09200000  0.12950000  1.0 0.1011024951
H  H133  1  0.57820000  0.35050000  0.09020000  1.0 0.1285916948
H  H134  1  0.60260000  0.42240000  0.07010000  1.0 0.1085546028
H  H135  1  0.60560000  0.48100000  0.14660000  1.0 0.1011024951
H  H136  1  0.57610000  0.41150000  0.16880000  1.0 0.1177033974
H  H137  1  0.47240000  0.34530000  0.22370000  1.0 0.1285916948
H  H138  1  0.42520000  0.33410000  0.27140000  1.0 0.1085546028
H  H139  1  0.47270000  0.20060000  0.26680000  1.0 0.1011024951
H  H140  1  0.52390000  0.20700000  0.21940000  1.0 0.1285916948
H  H141  1  0.95470000  0.06250000  0.25540000  1.0 0.1011024951
H  H142  1  0.87300000  0.05670000  0.29920000  1.0 0.1285916948
H  H143  1  0.95590000  0.06330000  0.34290000  1.0 0.1085546028
H  H144  1  0.12030000  0.07580000  0.34260000  1.0 0.0897130949
H  H145  1  0.20200000  0.08170000  0.29870000  1.0 0.0819632723
H  H146  1  0.45200000  0.04650000  0.04470000  1.0 0.1085546028
H  H147  1  0.36300000  0.06250000  0.00460000  1.0 0.1374859471
H  H148  1  0.59340000  0.11940000  0.96770000  1.0 0.1374859471
H  H149  1  0.68320000  0.09730000  0.00830000  1.0 0.1011024951
H  H150  1  0.16520000  0.05160000  0.96390000  1.0 0.1374859471
H  H151  1  0.01080000  0.02840000  0.95900000  1.0 0.1177033974
H  H152  1  0.99560000  0.08450000  0.88250000  1.0 0.1085546028
H  H153  1  0.14950000  0.11490000  0.88740000  1.0 0.1285916948
H  H154  1  0.34170000  0.17800000  0.86170000  1.0 0.1374859471
H  H155  1  0.42720000  0.21750000  0.82660000  1.0 0.1085546028
H  H156  1  0.66860000  0.17470000  0.86090000  1.0 0.1085546028
H  H157  1  0.58980000  0.14040000  0.89790000  1.0 0.1374859471
H  H158  1  0.35980000  0.33250000  0.56160000  1.0 0.1085546028
H  H159  1  0.39180000  0.26470000  0.58620000  1.0 0.1374859471
H  H160  1  0.44390000  0.34280000  0.65670000  1.0 0.1374859471
H  H161  1  0.42350000  0.40800000  0.62950000  1.0 0.1011024951
H  H162  1  0.42180000  0.14950000  0.59020000  1.0 0.1285916948
H  H163  1  0.39740000  0.07760000  0.57010000  1.0 0.1085546028
H  H164  1  0.39440000  0.01900000  0.64660000  1.0 0.1011024951
H  H165  1  0.42390000  0.08850000  0.66880000  1.0 0.1177033974
H  H166  1  0.52760000  0.15470000  0.72370000  1.0 0.1285916948
H  H167  1  0.57480000  0.16590000  0.77140000  1.0 0.1085546028
H  H168  1  0.52730000  0.29940000  0.76680000  1.0 0.1011024951
H  H169  1  0.47610000  0.29300000  0.71940000  1.0 0.1285916948
H  H170  1  0.04530000  0.43750000  0.75540000  1.0 0.1085546028
H  H171  1  0.12700000  0.44330000  0.79920000  1.0 0.1285916948
H  H172  1  0.04410000  0.43670000  0.84290000  1.0 0.1011024951
H  H173  1  0.87970000  0.42420000  0.84260000  1.0 0.0897130949
H  H174  1  0.79800000  0.41830000  0.79870000  1.0 0.0819632723
H  H175  1  0.04800000  0.54650000  0.95530000  1.0 0.1085546028
H  H176  1  0.13700000  0.56250000  0.99540000  1.0 0.1374859471
H  H177  1  0.90660000  0.61940000  0.03230000  1.0 0.1374859471
H  H178  1  0.81680000  0.59730000  0.99170000  1.0 0.1011024951
H  H179  1  0.33480000  0.55160000  0.03610000  1.0 0.1374859471
H  H180  1  0.48920000  0.52840000  0.04100000  1.0 0.1177033974
H  H181  1  0.50440000  0.58450000  0.11750000  1.0 0.1085546028
H  H182  1  0.35050000  0.61490000  0.11260000  1.0 0.1285916948
H  H183  1  0.15830000  0.67800000  0.13830000  1.0 0.1374859471
H  H184  1  0.07280000  0.71750000  0.17340000  1.0 0.1085546028
H  H185  1  0.83140000  0.67470000  0.13910000  1.0 0.1085546028
H  H186  1  0.91020000  0.64040000  0.10210000  1.0 0.1374859471
H  H187  1  0.14020000  0.83250000  0.43840000  1.0 0.1085546028
H  H188  1  0.10820000  0.76470000  0.41380000  1.0 0.1374859471
H  H189  1  0.05610000  0.84280000  0.34330000  1.0 0.1374859471
H  H190  1  0.07650000  0.90800000  0.37050000  1.0 0.1011024951
H  H191  1  0.07820000  0.64950000  0.40980000  1.0 0.1285916948
H  H192  1  0.10260000  0.57760000  0.42990000  1.0 0.1085546028
H  H193  1  0.10560000  0.51900000  0.35340000  1.0 0.1011024951
H  H194  1  0.07610000  0.58850000  0.33120000  1.0 0.1177033974
H  H195  1  0.97240000  0.65470000  0.27630000  1.0 0.1285916948
H  H196  1  0.92520000  0.66590000  0.22860000  1.0 0.1085546028
H  H197  1  0.97270000  0.79940000  0.23320000  1.0 0.1011024951
H  H198  1  0.02390000  0.79300000  0.28060000  1.0 0.1285916948
H  H199  1  0.45470000  0.93750000  0.24460000  1.0 0.1085546028
H  H200  1  0.37300000  0.94330000  0.20080000  1.0 0.1285916948
H  H201  1  0.45590000  0.93670000  0.15710000  1.0 0.1011024951
H  H202  1  0.62030000  0.92420000  0.15740000  1.0 0.0897130949
H  H203  1  0.70200000  0.91830000  0.20130000  1.0 0.0897130949
H  H204  1  0.95200000  0.95350000  0.45530000  1.0 0.1085546028
H  H205  1  0.86300000  0.93750000  0.49540000  1.0 0.1374859471
H  H206  1  0.09340000  0.88060000  0.53230000  1.0 0.1374859471
H  H207  1  0.18320000  0.90270000  0.49170000  1.0 0.1011024951
H  H208  1  0.66520000  0.94840000  0.53610000  1.0 0.1374859471
H  H209  1  0.51080000  0.97160000  0.54100000  1.0 0.1177033974
H  H210  1  0.49560000  0.91550000  0.61750000  1.0 0.1085546028
H  H211  1  0.64950000  0.88510000  0.61260000  1.0 0.1285916948
H  H212  1  0.84170000  0.82200000  0.63830000  1.0 0.1374859471
H  H213  1  0.92720000  0.78250000  0.67340000  1.0 0.1085546028
H  H214  1  0.16860000  0.82530000  0.63910000  1.0 0.1085546028
H  H215  1  0.08980000  0.85960000  0.60210000  1.0 0.1374859471
H  H216  1  0.85980000  0.66750000  0.93840000  1.0 0.1085546028
H  H217  1  0.89180000  0.73530000  0.91380000  1.0 0.1374859471
H  H218  1  0.94390000  0.65720000  0.84330000  1.0 0.1374859471
H  H219  1  0.92350000  0.59200000  0.87050000  1.0 0.1011024951
H  H220  1  0.92180000  0.85050000  0.90980000  1.0 0.1285916948
H  H221  1  0.89740000  0.92240000  0.92990000  1.0 0.1085546028
H  H222  1  0.89440000  0.98100000  0.85340000  1.0 0.1011024951
H  H223  1  0.92390000  0.91150000  0.83120000  1.0 0.1177033974
H  H224  1  0.02760000  0.84530000  0.77630000  1.0 0.1285916948
H  H225  1  0.07480000  0.83410000  0.72860000  1.0 0.1085546028
H  H226  1  0.02730000  0.70060000  0.73320000  1.0 0.1011024951
H  H227  1  0.97610000  0.70700000  0.78060000  1.0 0.1285916948
H  H228  1  0.54530000  0.56250000  0.74460000  1.0 0.1011024951
H  H229  1  0.62700000  0.55670000  0.70080000  1.0 0.1285916948
H  H230  1  0.54410000  0.56330000  0.65710000  1.0 0.1085546028
H  H231  1  0.37970000  0.57580000  0.65740000  1.0 0.0897130949
H  H232  1  0.29800000  0.58170000  0.70130000  1.0 0.0819632723
C  C1  1  0.48130000  0.56130000  0.47101000  1.0 0.0819632723
C  C2  1  0.42760000  0.57070000  0.49509000  1.0 -0.1496520226
C  C3  1  0.46890000  0.59270000  0.51942000  1.0 0.0436465025
C  C4  1  0.56340000  0.60360000  0.51704000  1.0 -0.1385514278
C  C5  1  0.61750000  0.59180000  0.49207000  1.0 0.0819632723
C  C6  1  0.41400000  0.60360000  0.54551000  1.0 0.3495112221
C  C7  1  0.27530000  0.60180000  0.57065000  1.0 0.3796971004
C  C8  1  0.40870000  0.63380000  0.59020000  1.0 0.3681626337
C  C9  1  0.17360000  0.58640000  0.57414000  1.0 0.0503762777
C  C10  1  0.13110000  0.55950000  0.55283000  1.0 -0.1313148462
C  C11  1  0.03990000  0.54460000  0.55621000  1.0 0.070821074
C  C12  1  0.03010000  0.57800000  0.60071000  1.0 0.0897130949
C  C13  1  0.12340000  0.59630000  0.59802000  1.0 -0.1496520226
C  C14  1  0.45980000  0.65620000  0.61522000  1.0 0.0603562724
C  C15  1  0.40840000  0.67870000  0.63782000  1.0 -0.1496520226
C  C16  1  0.46020000  0.70140000  0.65896000  1.0 0.0819632723
C  C17  1  0.60210000  0.67680000  0.63842000  1.0 0.0603562724
C  C18  1  0.55510000  0.65570000  0.61655000  1.0 -0.1313148462
C  C19  1  0.37920000  0.83440000  0.91910000  1.0 0.0897130949
C  C20  1  0.39600000  0.79340000  0.90439000  1.0 -0.1559798359
C  C21  1  0.41940000  0.79602000  0.87506000  1.0 0.0603562724
C  C22  1  0.42830000  0.83992000  0.86291000  1.0 -0.1385514278
C  C23  1  0.41480000  0.87890000  0.87910000  1.0 0.0603562724
C  C24  1  0.43220000  0.75279000  0.85764000  1.0 0.3641442901
C  C25  1  0.43400000  0.67478000  0.85414000  1.0 0.3681626337
C  C26  1  0.46550000  0.71917000  0.81455000  1.0 0.3681626337
C  C27  1  0.42260000  0.62831000  0.86754000  1.0 0.0503762777
C  C28  1  0.41610000  0.62340000  0.89779000  1.0 -0.1385514278
C  C29  1  0.40130000  0.58010000  0.90975000  1.0 0.0819632723
C  C30  1  0.40030000  0.54570000  0.86488000  1.0 0.0603562724
C  C31  1  0.41670000  0.58750000  0.85135000  1.0 -0.1559798359
C  C32  1  0.49390000  0.72382000  0.78386000  1.0 0.0503762777
C  C33  1  0.52630000  0.68430000  0.76795000  1.0 -0.1385514278
C  C34  1  0.55590000  0.69160000  0.73964000  1.0 0.0819632723
C  C35  1  0.52770000  0.77030000  0.74218000  1.0 0.0819632723
C  C36  1  0.49600000  0.76650000  0.77055000  1.0 -0.1385514278
C  C37  1  0.91360000  0.92730000  0.72730000  1.0 0.0071043763
C  C38  1  0.01210000  0.93480000  0.72720000  1.0 -0.1313148462
C  C39  1  0.06100000  0.93830000  0.70090000  1.0 -0.0726478308
C  C40  1  0.01140000  0.93430000  0.67470000  1.0 -0.0726478308
C  C41  1  0.91290000  0.92680000  0.67490000  1.0 -0.0902076502
C  C42  1  0.86390000  0.92330000  0.70120000  1.0 -0.1496520226
C  C43  1  0.51870000  0.93870000  0.97101000  1.0 0.0819632723
C  C44  1  0.57240000  0.92930000  0.99509000  1.0 -0.1496520226
C  C45  1  0.53110000  0.90730000  0.01942000  1.0 0.0436465025
C  C46  1  0.43660000  0.89640000  0.01704000  1.0 -0.1385514278
C  C47  1  0.38250000  0.90820000  0.99207000  1.0 0.0819632723
C  C48  1  0.58600000  0.89640000  0.04551000  1.0 0.3495112221
C  C49  1  0.72470000  0.89820000  0.07065000  1.0 0.3796971004
C  C50  1  0.59130000  0.86620000  0.09020000  1.0 0.3681626337
C  C51  1  0.82640000  0.91360000  0.07414000  1.0 0.0503762777
C  C52  1  0.86890000  0.94050000  0.05283000  1.0 -0.1385514278
C  C53  1  0.96010000  0.95540000  0.05621000  1.0 0.070821074
C  C54  1  0.96990000  0.92200000  0.10071000  1.0 0.0897130949
C  C55  1  0.87660000  0.90370000  0.09802000  1.0 -0.1496520226
C  C56  1  0.54020000  0.84380000  0.11522000  1.0 0.0603562724
C  C57  1  0.59160000  0.82130000  0.13782000  1.0 -0.1496520226
C  C58  1  0.53980000  0.79860000  0.15896000  1.0 0.0819632723
C  C59  1  0.39790000  0.82320000  0.13842000  1.0 0.0603562724
C  C60  1  0.44490000  0.84430000  0.11655000  1.0 -0.1313148462
C  C61  1  0.62080000  0.66560000  0.41910000  1.0 0.0819632723
C  C62  1  0.60400000  0.70660000  0.40439000  1.0 -0.1559798359
C  C63  1  0.58060000  0.70398000  0.37506000  1.0 0.0603562724
C  C64  1  0.57170000  0.66008000  0.36291000  1.0 -0.1385514278
C  C65  1  0.58520000  0.62110000  0.37910000  1.0 0.0603562724
C  C66  1  0.56780000  0.74721000  0.35764000  1.0 0.3641442901
C  C67  1  0.56600000  0.82522000  0.35414000  1.0 0.3681626337
C  C68  1  0.53450000  0.78083000  0.31455000  1.0 0.3681626337
C  C69  1  0.57740000  0.87169000  0.36754000  1.0 0.0503762777
C  C70  1  0.58390000  0.87660000  0.39779000  1.0 -0.1385514278
C  C71  1  0.59870000  0.91990000  0.40975000  1.0 0.0819632723
C  C72  1  0.59970000  0.95430000  0.36488000  1.0 0.0603562724
C  C73  1  0.58330000  0.91250000  0.35135000  1.0 -0.1496520226
C  C74  1  0.50610000  0.77618000  0.28386000  1.0 0.0503762777
C  C75  1  0.47370000  0.81570000  0.26795000  1.0 -0.1385514278
C  C76  1  0.44410000  0.80840000  0.23964000  1.0 0.0819632723
C  C77  1  0.47230000  0.72970000  0.24218000  1.0 0.0819632723
C  C78  1  0.50400000  0.73350000  0.27055000  1.0 -0.1385514278
C  C79  1  0.08640000  0.57270000  0.22730000  1.0 0.0071043763
C  C80  1  0.98790000  0.56520000  0.22720000  1.0 -0.1313148462
C  C81  1  0.93900000  0.56170000  0.20090000  1.0 -0.0726478308
C  C82  1  0.98860000  0.56570000  0.17470000  1.0 -0.0726478308
C  C83  1  0.08710000  0.57320000  0.17490000  1.0 -0.0902076502
C  C84  1  0.13610000  0.57670000  0.20120000  1.0 -0.1496520226
C  C85  1  0.98130000  0.43870000  0.02899000  1.0 0.0819632723
C  C86  1  0.92760000  0.42930000  0.00491000  1.0 -0.1496520226
C  C87  1  0.96890000  0.40730000  0.98058000  1.0 0.0436465025
C  C88  1  0.06340000  0.39640000  0.98296000  1.0 -0.1385514278
C  C89  1  0.11750000  0.40820000  0.00793000  1.0 0.0819632723
C  C90  1  0.91400000  0.39640000  0.95449000  1.0 0.3495112221
C  C91  1  0.77530000  0.39820000  0.92935000  1.0 0.3796971004
C  C92  1  0.90870000  0.36620000  0.90980000  1.0 0.3681626337
C  C93  1  0.67360000  0.41360000  0.92586000  1.0 0.0503762777
C  C94  1  0.63110000  0.44050000  0.94717000  1.0 -0.1313148462
C  C95  1  0.53990000  0.45540000  0.94379000  1.0 0.070821074
C  C96  1  0.53010000  0.42200000  0.89929000  1.0 0.0897130949
C  C97  1  0.62340000  0.40370000  0.90198000  1.0 -0.1496520226
C  C98  1  0.95980000  0.34380000  0.88478000  1.0 0.0603562724
C  C99  1  0.90840000  0.32130000  0.86218000  1.0 -0.1496520226
C  C100  1  0.96020000  0.29860000  0.84104000  1.0 0.0819632723
C  C101  1  0.10210000  0.32320000  0.86158000  1.0 0.070821074
C  C102  1  0.05510000  0.34430000  0.88345000  1.0 -0.1313148462
C  C103  1  0.87920000  0.16560000  0.58090000  1.0 0.0897130949
C  C104  1  0.89600000  0.20660000  0.59561000  1.0 -0.1559798359
C  C105  1  0.91940000  0.20398000  0.62494000  1.0 0.0603562724
C  C106  1  0.92830000  0.16008000  0.63709000  1.0 -0.1385514278
C  C107  1  0.91480000  0.12110000  0.62090000  1.0 0.0603562724
C  C108  1  0.93220000  0.24721000  0.64236000  1.0 0.3641442901
C  C109  1  0.93400000  0.32522000  0.64586000  1.0 0.3681626337
C  C110  1  0.96550000  0.28083000  0.68545000  1.0 0.3681626337
C  C111  1  0.92260000  0.37169000  0.63246000  1.0 0.0503762777
C  C112  1  0.91610000  0.37660000  0.60221000  1.0 -0.1385514278
C  C113  1  0.90130000  0.41990000  0.59025000  1.0 0.0819632723
C  C114  1  0.90030000  0.45430000  0.63512000  1.0 0.0603562724
C  C115  1  0.91670000  0.41250000  0.64865000  1.0 -0.1496520226
C  C116  1  0.99390000  0.27618000  0.71614000  1.0 0.0503762777
C  C117  1  0.02630000  0.31570000  0.73205000  1.0 -0.1385514278
C  C118  1  0.05590000  0.30840000  0.76036000  1.0 0.0819632723
C  C119  1  0.02770000  0.22970000  0.75782000  1.0 0.0819632723
C  C120  1  0.99600000  0.23350000  0.72945000  1.0 -0.1385514278
C  C121  1  0.41360000  0.07270000  0.77270000  1.0 0.0071043763
C  C122  1  0.51210000  0.06520000  0.77280000  1.0 -0.1313148462
C  C123  1  0.56100000  0.06170000  0.79910000  1.0 -0.0726478308
C  C124  1  0.51140000  0.06570000  0.82530000  1.0 -0.0726478308
C  C125  1  0.41290000  0.07320000  0.82510000  1.0 -0.0902076502
C  C126  1  0.36390000  0.07670000  0.79880000  1.0 -0.1496520226
C  C127  1  0.01870000  0.06130000  0.52899000  1.0 0.0819632723
C  C128  1  0.07240000  0.07070000  0.50491000  1.0 -0.1496520226
C  C129  1  0.03110000  0.09270000  0.48058000  1.0 0.0436465025
C  C130  1  0.93660000  0.10360000  0.48296000  1.0 -0.1385514278
C  C131  1  0.88250000  0.09180000  0.50793000  1.0 0.0819632723
C  C132  1  0.08600000  0.10360000  0.45449000  1.0 0.3495112221
C  C133  1  0.22470000  0.10180000  0.42935000  1.0 0.3796971004
C  C134  1  0.09130000  0.13380000  0.40980000  1.0 0.3681626337
C  C135  1  0.32640000  0.08640000  0.42586000  1.0 0.0503762777
C  C136  1  0.36890000  0.05950000  0.44717000  1.0 -0.1313148462
C  C137  1  0.46010000  0.04460000  0.44379000  1.0 0.070821074
C  C138  1  0.46990000  0.07800000  0.39929000  1.0 0.0897130949
C  C139  1  0.37660000  0.09630000  0.40198000  1.0 -0.1496520226
C  C140  1  0.04020000  0.15620000  0.38478000  1.0 0.0603562724
C  C141  1  0.09160000  0.17870000  0.36218000  1.0 -0.1496520226
C  C142  1  0.03980000  0.20140000  0.34104000  1.0 0.0819632723
C  C143  1  0.89790000  0.17680000  0.36158000  1.0 0.070821074
C  C144  1  0.94490000  0.15570000  0.38345000  1.0 -0.1313148462
C  C145  1  0.12080000  0.33440000  0.08090000  1.0 0.0819632723
C  C146  1  0.10400000  0.29340000  0.09561000  1.0 -0.1559798359
C  C147  1  0.08060000  0.29602000  0.12494000  1.0 0.0603562724
C  C148  1  0.07170000  0.33992000  0.13709000  1.0 -0.1385514278
C  C149  1  0.08520000  0.37890000  0.12090000  1.0 0.0603562724
C  C150  1  0.06780000  0.25279000  0.14236000  1.0 0.3641442901
C  C151  1  0.06600000  0.17478000  0.14586000  1.0 0.3681626337
C  C152  1  0.03450000  0.21917000  0.18545000  1.0 0.3681626337
C  C153  1  0.07740000  0.12831000  0.13246000  1.0 0.0503762777
C  C154  1  0.08390000  0.12340000  0.10221000  1.0 -0.1385514278
C  C155  1  0.09870000  0.08010000  0.09025000  1.0 0.0819632723
C  C156  1  0.09970000  0.04570000  0.13512000  1.0 0.0603562724
C  C157  1  0.08330000  0.08750000  0.14865000  1.0 -0.1559798359
C  C158  1  0.00610000  0.22382000  0.21614000  1.0 0.0503762777
C  C159  1  0.97370000  0.18430000  0.23205000  1.0 -0.1385514278
C  C160  1  0.94410000  0.19160000  0.26036000  1.0 0.0819632723
C  C161  1  0.97230000  0.27030000  0.25782000  1.0 0.0819632723
C  C162  1  0.00400000  0.26650000  0.22945000  1.0 -0.1385514278
C  C163  1  0.58640000  0.42730000  0.27270000  1.0 0.0071043763
C  C164  1  0.48790000  0.43480000  0.27280000  1.0 -0.1313148462
C  C165  1  0.43900000  0.43830000  0.29910000  1.0 -0.0726478308
C  C166  1  0.48860000  0.43430000  0.32530000  1.0 -0.0726478308
C  C167  1  0.58710000  0.42680000  0.32510000  1.0 -0.0902076502
C  C168  1  0.63610000  0.42330000  0.29880000  1.0 -0.1496520226
C  C169  1  0.51870000  0.43870000  0.52899000  1.0 0.0819632723
C  C170  1  0.57240000  0.42930000  0.50491000  1.0 -0.1496520226
C  C171  1  0.53110000  0.40730000  0.48058000  1.0 0.0436465025
C  C172  1  0.43660000  0.39640000  0.48296000  1.0 -0.1385514278
C  C173  1  0.38250000  0.40820000  0.50793000  1.0 0.0819632723
C  C174  1  0.58600000  0.39640000  0.45449000  1.0 0.3495112221
C  C175  1  0.72470000  0.39820000  0.42935000  1.0 0.3796971004
C  C176  1  0.59130000  0.36620000  0.40980000  1.0 0.3681626337
C  C177  1  0.82640000  0.41360000  0.42586000  1.0 0.0503762777
C  C178  1  0.86890000  0.44050000  0.44717000  1.0 -0.1385514278
C  C179  1  0.96010000  0.45540000  0.44379000  1.0 0.070821074
C  C180  1  0.96990000  0.42200000  0.39929000  1.0 0.0897130949
C  C181  1  0.87660000  0.40370000  0.40198000  1.0 -0.1496520226
C  C182  1  0.54020000  0.34380000  0.38478000  1.0 0.0603562724
C  C183  1  0.59160000  0.32130000  0.36218000  1.0 -0.1496520226
C  C184  1  0.53980000  0.29860000  0.34104000  1.0 0.0819632723
C  C185  1  0.39790000  0.32320000  0.36158000  1.0 0.0603562724
C  C186  1  0.44490000  0.34430000  0.38345000  1.0 -0.1313148462
C  C187  1  0.62080000  0.16560000  0.08090000  1.0 0.0819632723
C  C188  1  0.60400000  0.20660000  0.09561000  1.0 -0.1559798359
C  C189  1  0.58060000  0.20398000  0.12494000  1.0 0.0603562724
C  C190  1  0.57170000  0.16008000  0.13709000  1.0 -0.1385514278
C  C191  1  0.58520000  0.12110000  0.12090000  1.0 0.0603562724
C  C192  1  0.56780000  0.24721000  0.14236000  1.0 0.3681626337
C  C193  1  0.56600000  0.32522000  0.14586000  1.0 0.3681626337
C  C194  1  0.53450000  0.28083000  0.18545000  1.0 0.3681626337
C  C195  1  0.57740000  0.37169000  0.13246000  1.0 0.0503762777
C  C196  1  0.58390000  0.37660000  0.10221000  1.0 -0.1385514278
C  C197  1  0.59870000  0.41990000  0.09025000  1.0 0.0819632723
C  C198  1  0.59970000  0.45430000  0.13512000  1.0 0.0603562724
C  C199  1  0.58330000  0.41250000  0.14865000  1.0 -0.1496520226
C  C200  1  0.50610000  0.27618000  0.21614000  1.0 0.0503762777
C  C201  1  0.47370000  0.31570000  0.23205000  1.0 -0.1385514278
C  C202  1  0.44410000  0.30840000  0.26036000  1.0 0.0819632723
C  C203  1  0.47230000  0.22970000  0.25782000  1.0 0.0819632723
C  C204  1  0.50400000  0.23350000  0.22945000  1.0 -0.1385514278
C  C205  1  0.08640000  0.07270000  0.27270000  1.0 0.0071043763
C  C206  1  0.98790000  0.06520000  0.27280000  1.0 -0.1313148462
C  C207  1  0.93900000  0.06170000  0.29910000  1.0 -0.0726478308
C  C208  1  0.98860000  0.06570000  0.32530000  1.0 -0.0726478308
C  C209  1  0.08710000  0.07320000  0.32510000  1.0 -0.0902076502
C  C210  1  0.13610000  0.07670000  0.29880000  1.0 -0.1496520226
C  C211  1  0.48130000  0.06130000  0.02899000  1.0 0.0819632723
C  C212  1  0.42760000  0.07070000  0.00491000  1.0 -0.1496520226
C  C213  1  0.46890000  0.09270000  0.98058000  1.0 0.0436465025
C  C214  1  0.56340000  0.10360000  0.98296000  1.0 -0.1313148462
C  C215  1  0.61750000  0.09180000  0.00793000  1.0 0.0819632723
C  C216  1  0.41400000  0.10360000  0.95449000  1.0 0.3495112221
C  C217  1  0.27530000  0.10180000  0.92935000  1.0 0.3796971004
C  C218  1  0.40870000  0.13380000  0.90980000  1.0 0.3681626337
C  C219  1  0.17360000  0.08640000  0.92586000  1.0 0.0503762777
C  C220  1  0.13110000  0.05950000  0.94717000  1.0 -0.1313148462
C  C221  1  0.03990000  0.04460000  0.94379000  1.0 0.070821074
C  C222  1  0.03010000  0.07800000  0.89929000  1.0 0.0897130949
C  C223  1  0.12340000  0.09630000  0.90198000  1.0 -0.1496520226
C  C224  1  0.45980000  0.15620000  0.88478000  1.0 0.0603562724
C  C225  1  0.40840000  0.17870000  0.86218000  1.0 -0.1496520226
C  C226  1  0.46020000  0.20140000  0.84104000  1.0 0.0819632723
C  C227  1  0.60210000  0.17680000  0.86158000  1.0 0.0603562724
C  C228  1  0.55510000  0.15570000  0.88345000  1.0 -0.1313148462
C  C229  1  0.37920000  0.33440000  0.58090000  1.0 0.0897130949
C  C230  1  0.39600000  0.29340000  0.59561000  1.0 -0.1559798359
C  C231  1  0.41940000  0.29602000  0.62494000  1.0 0.0603562724
C  C232  1  0.42830000  0.33992000  0.63709000  1.0 -0.1385514278
C  C233  1  0.41480000  0.37890000  0.62090000  1.0 0.0603562724
C  C234  1  0.43220000  0.25279000  0.64236000  1.0 0.3641442901
C  C235  1  0.43400000  0.17478000  0.64586000  1.0 0.3681626337
C  C236  1  0.46550000  0.21917000  0.68545000  1.0 0.3681626337
C  C237  1  0.42260000  0.12831000  0.63246000  1.0 0.0503762777
C  C238  1  0.41610000  0.12340000  0.60221000  1.0 -0.1385514278
C  C239  1  0.40130000  0.08010000  0.59025000  1.0 0.0819632723
C  C240  1  0.40030000  0.04570000  0.63512000  1.0 0.0603562724
C  C241  1  0.41670000  0.08750000  0.64865000  1.0 -0.1559798359
C  C242  1  0.49390000  0.22382000  0.71614000  1.0 0.0503762777
C  C243  1  0.52630000  0.18430000  0.73205000  1.0 -0.1385514278
C  C244  1  0.55590000  0.19160000  0.76036000  1.0 0.0819632723
C  C245  1  0.52770000  0.27030000  0.75782000  1.0 0.0819632723
C  C246  1  0.49600000  0.26650000  0.72945000  1.0 -0.1385514278
C  C247  1  0.91360000  0.42730000  0.77270000  1.0 0.0071043763
C  C248  1  0.01210000  0.43480000  0.77280000  1.0 -0.1313148462
C  C249  1  0.06100000  0.43830000  0.79910000  1.0 -0.0726478308
C  C250  1  0.01140000  0.43430000  0.82530000  1.0 -0.0726478308
C  C251  1  0.91290000  0.42680000  0.82510000  1.0 -0.0902076502
C  C252  1  0.86390000  0.42330000  0.79880000  1.0 -0.1496520226
C  C253  1  0.01870000  0.56130000  0.97101000  1.0 0.0819632723
C  C254  1  0.07240000  0.57070000  0.99509000  1.0 -0.1496520226
C  C255  1  0.03110000  0.59270000  0.01942000  1.0 0.0436465025
C  C256  1  0.93660000  0.60360000  0.01704000  1.0 -0.1385514278
C  C257  1  0.88250000  0.59180000  0.99207000  1.0 0.0819632723
C  C258  1  0.08600000  0.60360000  0.04551000  1.0 0.3495112221
C  C259  1  0.22470000  0.60180000  0.07065000  1.0 0.3796971004
C  C260  1  0.09130000  0.63380000  0.09020000  1.0 0.3681626337
C  C261  1  0.32640000  0.58640000  0.07414000  1.0 0.0503762777
C  C262  1  0.36890000  0.55950000  0.05283000  1.0 -0.1313148462
C  C263  1  0.46010000  0.54460000  0.05621000  1.0 0.070821074
C  C264  1  0.46990000  0.57800000  0.10071000  1.0 0.0897130949
C  C265  1  0.37660000  0.59630000  0.09802000  1.0 -0.1496520226
C  C266  1  0.04020000  0.65620000  0.11522000  1.0 0.0603562724
C  C267  1  0.09160000  0.67870000  0.13782000  1.0 -0.1496520226
C  C268  1  0.03980000  0.70140000  0.15896000  1.0 0.0819632723
C  C269  1  0.89790000  0.67680000  0.13842000  1.0 0.070821074
C  C270  1  0.94490000  0.65570000  0.11655000  1.0 -0.1313148462
C  C271  1  0.12080000  0.83440000  0.41910000  1.0 0.0819632723
C  C272  1  0.10400000  0.79340000  0.40439000  1.0 -0.1559798359
C  C273  1  0.08060000  0.79602000  0.37506000  1.0 0.0603562724
C  C274  1  0.07170000  0.83992000  0.36291000  1.0 -0.1385514278
C  C275  1  0.08520000  0.87890000  0.37910000  1.0 0.0603562724
C  C276  1  0.06780000  0.75279000  0.35764000  1.0 0.3641442901
C  C277  1  0.06600000  0.67478000  0.35414000  1.0 0.3681626337
C  C278  1  0.03450000  0.71917000  0.31455000  1.0 0.3681626337
C  C279  1  0.07740000  0.62831000  0.36754000  1.0 0.0503762777
C  C280  1  0.08390000  0.62340000  0.39779000  1.0 -0.1385514278
C  C281  1  0.09870000  0.58010000  0.40975000  1.0 0.0819632723
C  C282  1  0.09970000  0.54570000  0.36488000  1.0 0.0603562724
C  C283  1  0.08330000  0.58750000  0.35135000  1.0 -0.1559798359
C  C284  1  0.00610000  0.72382000  0.28386000  1.0 0.0503762777
C  C285  1  0.97370000  0.68430000  0.26795000  1.0 -0.1385514278
C  C286  1  0.94410000  0.69160000  0.23964000  1.0 0.0819632723
C  C287  1  0.97230000  0.77030000  0.24218000  1.0 0.0819632723
C  C288  1  0.00400000  0.76650000  0.27055000  1.0 -0.1385514278
C  C289  1  0.58640000  0.92730000  0.22730000  1.0 0.0071043763
C  C290  1  0.48790000  0.93480000  0.22720000  1.0 -0.1313148462
C  C291  1  0.43900000  0.93830000  0.20090000  1.0 -0.0726478308
C  C292  1  0.48860000  0.93430000  0.17470000  1.0 -0.0726478308
C  C293  1  0.58710000  0.92680000  0.17490000  1.0 -0.0902076502
C  C294  1  0.63610000  0.92330000  0.20120000  1.0 -0.1496520226
C  C295  1  0.98130000  0.93870000  0.47101000  1.0 0.0819632723
C  C296  1  0.92760000  0.92930000  0.49509000  1.0 -0.1496520226
C  C297  1  0.96890000  0.90730000  0.51942000  1.0 0.0436465025
C  C298  1  0.06340000  0.89640000  0.51704000  1.0 -0.1385514278
C  C299  1  0.11750000  0.90820000  0.49207000  1.0 0.0819632723
C  C300  1  0.91400000  0.89640000  0.54551000  1.0 0.3495112221
C  C301  1  0.77530000  0.89820000  0.57065000  1.0 0.3796971004
C  C302  1  0.90870000  0.86620000  0.59020000  1.0 0.3681626337
C  C303  1  0.67360000  0.91360000  0.57414000  1.0 0.0503762777
C  C304  1  0.63110000  0.94050000  0.55283000  1.0 -0.1385514278
C  C305  1  0.53990000  0.95540000  0.55621000  1.0 0.070821074
C  C306  1  0.53010000  0.92200000  0.60071000  1.0 0.0897130949
C  C307  1  0.62340000  0.90370000  0.59802000  1.0 -0.1496520226
C  C308  1  0.95980000  0.84380000  0.61522000  1.0 0.0603562724
C  C309  1  0.90840000  0.82130000  0.63782000  1.0 -0.1496520226
C  C310  1  0.96020000  0.79860000  0.65896000  1.0 0.0819632723
C  C311  1  0.10210000  0.82320000  0.63842000  1.0 0.070821074
C  C312  1  0.05510000  0.84430000  0.61655000  1.0 -0.1313148462
C  C313  1  0.87920000  0.66560000  0.91910000  1.0 0.0819632723
C  C314  1  0.89600000  0.70660000  0.90439000  1.0 -0.1559798359
C  C315  1  0.91940000  0.70398000  0.87506000  1.0 0.0603562724
C  C316  1  0.92830000  0.66008000  0.86291000  1.0 -0.1385514278
C  C317  1  0.91480000  0.62110000  0.87910000  1.0 0.0603562724
C  C318  1  0.93220000  0.74721000  0.85764000  1.0 0.3641442901
C  C319  1  0.93400000  0.82522000  0.85414000  1.0 0.3681626337
C  C320  1  0.96550000  0.78083000  0.81455000  1.0 0.3681626337
C  C321  1  0.92260000  0.87169000  0.86754000  1.0 0.0503762777
C  C322  1  0.91610000  0.87660000  0.89779000  1.0 -0.1385514278
C  C323  1  0.90130000  0.91990000  0.90975000  1.0 0.0819632723
C  C324  1  0.90030000  0.95430000  0.86488000  1.0 0.0603562724
C  C325  1  0.91670000  0.91250000  0.85135000  1.0 -0.1496520226
C  C326  1  0.99390000  0.77618000  0.78386000  1.0 0.0503762777
C  C327  1  0.02630000  0.81570000  0.76795000  1.0 -0.1385514278
C  C328  1  0.05590000  0.80840000  0.73964000  1.0 0.0819632723
C  C329  1  0.02770000  0.72970000  0.74218000  1.0 0.0819632723
C  C330  1  0.99600000  0.73350000  0.77055000  1.0 -0.1385514278
C  C331  1  0.41360000  0.57270000  0.72730000  1.0 0.0071043763
C  C332  1  0.51210000  0.56520000  0.72720000  1.0 -0.1313148462
C  C333  1  0.56100000  0.56170000  0.70090000  1.0 -0.0726478308
C  C334  1  0.51140000  0.56570000  0.67470000  1.0 -0.0726478308
C  C335  1  0.41290000  0.57320000  0.67490000  1.0 -0.0902076502
C  C336  1  0.36390000  0.57670000  0.70120000  1.0 -0.1496520226
I  I1  1  0.56808000  0.49619000  0.40324000  1.0 -0.2942814817
I  I2  1  0.82603000  0.57233000  0.44152000  1.0 -0.4288871278
I  I3  1  0.76818000  0.56834000  0.62565000  1.0 -0.4432247866
I  I4  1  0.78521000  0.50469000  0.53724000  1.0 -0.4707460989
I  I5  1  0.79538000  0.70098000  0.69532000  1.0 -0.4502722312
I  I6  1  0.63106000  0.82592000  0.67271000  1.0 -0.3274475511
I  I7  1  0.83200000  0.54720000  0.36750000  1.0 0.0503762777
I  I8  1  0.86500000  0.56010000  0.30780000  1.0 -0.0435637523
I  I9  1  0.74020000  0.49430000  0.36400000  1.0 0.0503762777
I  I10  1  0.90000000  0.49250000  0.32740000  1.0 0.0030477327
I  I11  1  0.73730000  0.87730000  0.72000000  1.0 0.1633082319
I  I12  1  0.83800000  0.92370000  0.76430000  1.0 0.280627818
I  I13  1  0.43192000  0.00381000  0.90324000  1.0 -0.2942814817
I  I14  1  0.17397000  0.92767000  0.94152000  1.0 -0.4288871278
I  I15  1  0.23182000  0.93166000  0.12565000  1.0 -0.4432247866
I  I16  1  0.21479000  0.99531000  0.03724000  1.0 -0.4707460989
I  I17  1  0.20462000  0.79902000  0.19532000  1.0 -0.4502722312
I  I18  1  0.36894000  0.67408000  0.17271000  1.0 -0.3274475511
I  I19  1  0.16800000  0.95280000  0.86750000  1.0 0.0503762777
I  I20  1  0.13500000  0.93990000  0.80780000  1.0 -0.0435637523
I  I21  1  0.25980000  0.00570000  0.86400000  1.0 0.0503762777
I  I22  1  0.10000000  0.00750000  0.82740000  1.0 0.0030477327
I  I23  1  0.26270000  0.62270000  0.22000000  1.0 0.1633082319
I  I24  1  0.16200000  0.57630000  0.26430000  1.0 0.280627818
I  I25  1  0.06808000  0.50381000  0.09676000  1.0 -0.2942814817
I  I26  1  0.32603000  0.42767000  0.05848000  1.0 -0.4288871278
I  I27  1  0.26818000  0.43166000  0.87435000  1.0 -0.4432247866
I  I28  1  0.28521000  0.49531000  0.96276000  1.0 -0.4707460989
I  I29  1  0.29538000  0.29902000  0.80468000  1.0 -0.4502722312
I  I30  1  0.13106000  0.17408000  0.82729000  1.0 -0.3274475511
I  I31  1  0.33200000  0.45280000  0.13250000  1.0 0.0503762777
I  I32  1  0.36500000  0.43990000  0.19220000  1.0 -0.0435637523
I  I33  1  0.24020000  0.50570000  0.13600000  1.0 0.0503762777
I  I34  1  0.40000000  0.50750000  0.17260000  1.0 0.0030477327
I  I35  1  0.23730000  0.12270000  0.78000000  1.0 0.1655346464
I  I36  1  0.33800000  0.07630000  0.73570000  1.0 0.280627818
I  I37  1  0.93192000  0.99619000  0.59676000  1.0 -0.2942814817
I  I38  1  0.67397000  0.07233000  0.55848000  1.0 -0.4288871278
I  I39  1  0.73182000  0.06834000  0.37435000  1.0 -0.4432247866
I  I40  1  0.71479000  0.00469000  0.46276000  1.0 -0.4707460989
I  I41  1  0.70462000  0.20098000  0.30468000  1.0 -0.4502722312
I  I42  1  0.86894000  0.32592000  0.32729000  1.0 -0.3274475511
I  I43  1  0.66800000  0.04720000  0.63250000  1.0 0.0503762777
I  I44  1  0.63500000  0.06010000  0.69220000  1.0 -0.0435637523
I  I45  1  0.75980000  0.99430000  0.63600000  1.0 0.0503762777
I  I46  1  0.60000000  0.99250000  0.67260000  1.0 0.0030477327
I  I47  1  0.76270000  0.37730000  0.28000000  1.0 0.1633082319
I  I48  1  0.66200000  0.42370000  0.23570000  1.0 0.280627818
I  I49  1  0.43192000  0.50381000  0.59676000  1.0 -0.2942814817
I  I50  1  0.17397000  0.42767000  0.55848000  1.0 -0.4288871278
I  I51  1  0.23182000  0.43166000  0.37435000  1.0 -0.4432247866
I  I52  1  0.21479000  0.49531000  0.46276000  1.0 -0.4707460989
I  I53  1  0.20462000  0.29902000  0.30468000  1.0 -0.4502722312
I  I54  1  0.36894000  0.17408000  0.32729000  1.0 -0.3274475511
I  I55  1  0.16800000  0.45280000  0.63250000  1.0 0.0503762777
I  I56  1  0.13500000  0.43990000  0.69220000  1.0 -0.0435637523
I  I57  1  0.25980000  0.50570000  0.63600000  1.0 0.0503762777
I  I58  1  0.10000000  0.50750000  0.67260000  1.0 0.0030477327
I  I59  1  0.26270000  0.12270000  0.28000000  1.0 0.1633082319
I  I60  1  0.16200000  0.07630000  0.23570000  1.0 0.280627818
I  I61  1  0.56808000  0.99619000  0.09676000  1.0 -0.2942814817
I  I62  1  0.82603000  0.07233000  0.05848000  1.0 -0.4288871278
I  I63  1  0.76818000  0.06834000  0.87435000  1.0 -0.4432247866
I  I64  1  0.78521000  0.00469000  0.96276000  1.0 -0.4707460989
I  I65  1  0.79538000  0.20098000  0.80468000  1.0 -0.4502722312
I  I66  1  0.63106000  0.32592000  0.82729000  1.0 -0.3274475511
I  I67  1  0.83200000  0.04720000  0.13250000  1.0 0.0503762777
I  I68  1  0.86500000  0.06010000  0.19220000  1.0 -0.0435637523
I  I69  1  0.74020000  0.99430000  0.13600000  1.0 0.0503762777
I  I70  1  0.90000000  0.99250000  0.17260000  1.0 0.0030477327
I  I71  1  0.73730000  0.37730000  0.78000000  1.0 0.1633082319
I  I72  1  0.83800000  0.42370000  0.73570000  1.0 0.280627818
I  I73  1  0.93192000  0.49619000  0.90324000  1.0 -0.2942814817
I  I74  1  0.67397000  0.57233000  0.94152000  1.0 -0.4288871278
I  I75  1  0.73182000  0.56834000  0.12565000  1.0 -0.4432247866
I  I76  1  0.71479000  0.50469000  0.03724000  1.0 -0.4707460989
I  I77  1  0.70462000  0.70098000  0.19532000  1.0 -0.4502722312
I  I78  1  0.86894000  0.82592000  0.17271000  1.0 -0.3274475511
I  I79  1  0.66800000  0.54720000  0.86750000  1.0 0.0503762777
I  I80  1  0.63500000  0.56010000  0.80780000  1.0 -0.0435637523
I  I81  1  0.75980000  0.49430000  0.86400000  1.0 0.0503762777
I  I82  1  0.60000000  0.49250000  0.82740000  1.0 0.0030477327
I  I83  1  0.76270000  0.87730000  0.22000000  1.0 0.1633082319
I  I84  1  0.66200000  0.92370000  0.26430000  1.0 0.280627818
I  I85  1  0.06808000  0.00381000  0.40324000  1.0 -0.2942814817
I  I86  1  0.32603000  0.92767000  0.44152000  1.0 -0.4288871278
I  I87  1  0.26818000  0.93166000  0.62565000  1.0 -0.4432247866
I  I88  1  0.28521000  0.99531000  0.53724000  1.0 -0.4707460989
I  I89  1  0.29538000  0.79902000  0.69532000  1.0 -0.4502722312
I  I90  1  0.13106000  0.67408000  0.67271000  1.0 -0.3274475511
I  I91  1  0.33200000  0.95280000  0.36750000  1.0 0.0503762777
I  I92  1  0.36500000  0.93990000  0.30780000  1.0 -0.0435637523
I  I93  1  0.24020000  0.00570000  0.36400000  1.0 0.0503762777
I  I94  1  0.40000000  0.00750000  0.32740000  1.0 0.0030477327
I  I95  1  0.23730000  0.62270000  0.72000000  1.0 0.1633082319
I  I96  1  0.33800000  0.57630000  0.76430000  1.0 0.280627818
N  N1  1  0.57400000  0.57240000  0.46882000  1.0 -0.1865652342
N  N2  1  0.32230000  0.59157000  0.54603000  1.0 -0.3816015486
N  N3  1  0.31530000  0.62391000  0.59345000  1.0 -0.3816015486
N  N4  1  0.46000000  0.62461000  0.56708000  1.0 -0.3816015486
N  N5  1  0.98960000  0.55216000  0.58060000  1.0 -0.1821422185
N  N6  1  0.55570000  0.70123000  0.65964000  1.0 -0.1865652342
N  N7  1  0.38890000  0.87675000  0.90743000  1.0 -0.1821422185
N  N8  1  0.42270000  0.71206000  0.87088000  1.0 -0.4004066168
N  N9  1  0.45650000  0.67568000  0.82572000  1.0 -0.4004066168
N  N10  1  0.45430000  0.75861000  0.82956000  1.0 -0.4004066168
N  N11  1  0.39230000  0.54110000  0.89367000  1.0 -0.1741205965
N  N12  1  0.55870000  0.73328000  0.72749000  1.0 -0.1865652342
N  N13  1  0.86600000  0.92390000  0.75220000  1.0 -0.0321332951
N  N14  1  0.42600000  0.92760000  0.96882000  1.0 -0.1865652342
N  N15  1  0.67770000  0.90843000  0.04603000  1.0 -0.3816015486
N  N16  1  0.68470000  0.87609000  0.09345000  1.0 -0.3816015486
N  N17  1  0.54000000  0.87539000  0.06708000  1.0 -0.3816015486
N  N18  1  0.01040000  0.94784000  0.08060000  1.0 -0.1821422185
N  N19  1  0.44430000  0.79877000  0.15964000  1.0 -0.1865652342
N  N20  1  0.61110000  0.62325000  0.40743000  1.0 -0.1821422185
N  N21  1  0.57730000  0.78794000  0.37088000  1.0 -0.4004066168
N  N22  1  0.54350000  0.82432000  0.32572000  1.0 -0.4004066168
N  N23  1  0.54570000  0.74139000  0.32956000  1.0 -0.4004066168
N  N24  1  0.60770000  0.95890000  0.39367000  1.0 -0.1741205965
N  N25  1  0.44130000  0.76672000  0.22749000  1.0 -0.1865652342
N  N26  1  0.13400000  0.57610000  0.25220000  1.0 -0.0321332951
N  N27  1  0.07400000  0.42760000  0.03118000  1.0 -0.1865652342
N  N28  1  0.82230000  0.40843000  0.95397000  1.0 -0.3816015486
N  N29  1  0.81530000  0.37609000  0.90655000  1.0 -0.3816015486
N  N30  1  0.96000000  0.37539000  0.93292000  1.0 -0.3816015486
N  N31  1  0.48960000  0.44784000  0.91940000  1.0 -0.1821422185
N  N32  1  0.05570000  0.29877000  0.84036000  1.0 -0.1865652342
N  N33  1  0.88890000  0.12325000  0.59257000  1.0 -0.1821422185
N  N34  1  0.92270000  0.28794000  0.62912000  1.0 -0.4004066168
N  N35  1  0.95650000  0.32432000  0.67428000  1.0 -0.4004066168
N  N36  1  0.95430000  0.24139000  0.67044000  1.0 -0.4004066168
N  N37  1  0.89230000  0.45890000  0.60633000  1.0 -0.1741205965
N  N38  1  0.05870000  0.26672000  0.77251000  1.0 -0.1865652342
N  N39  1  0.36600000  0.07610000  0.74780000  1.0 -0.0321332951
N  N40  1  0.92600000  0.07240000  0.53118000  1.0 -0.1865652342
N  N41  1  0.17770000  0.09157000  0.45397000  1.0 -0.3816015486
N  N42  1  0.18470000  0.12391000  0.40655000  1.0 -0.3816015486
N  N43  1  0.04000000  0.12461000  0.43292000  1.0 -0.3816015486
N  N44  1  0.51040000  0.05216000  0.41940000  1.0 -0.1821422185
N  N45  1  0.94430000  0.20123000  0.34036000  1.0 -0.1865652342
N  N46  1  0.11110000  0.37675000  0.09257000  1.0 -0.1821422185
N  N47  1  0.07730000  0.21206000  0.12912000  1.0 -0.4004066168
N  N48  1  0.04350000  0.17568000  0.17428000  1.0 -0.4004066168
N  N49  1  0.04570000  0.25861000  0.17044000  1.0 -0.4004066168
N  N50  1  0.10770000  0.04110000  0.10633000  1.0 -0.1741205965
N  N51  1  0.94130000  0.23328000  0.27251000  1.0 -0.1865652342
N  N52  1  0.63400000  0.42390000  0.24780000  1.0 -0.0321332951
N  N53  1  0.42600000  0.42760000  0.53118000  1.0 -0.1865652342
N  N54  1  0.67770000  0.40843000  0.45397000  1.0 -0.3816015486
N  N55  1  0.68470000  0.37609000  0.40655000  1.0 -0.3816015486
N  N56  1  0.54000000  0.37539000  0.43292000  1.0 -0.3816015486
N  N57  1  0.01040000  0.44784000  0.41940000  1.0 -0.1821422185
N  N58  1  0.44430000  0.29877000  0.34036000  1.0 -0.1865652342
N  N59  1  0.61110000  0.12325000  0.09257000  1.0 -0.1821422185
N  N60  1  0.57730000  0.28794000  0.12912000  1.0 -0.4004066168
N  N61  1  0.54350000  0.32432000  0.17428000  1.0 -0.4004066168
N  N62  1  0.54570000  0.24139000  0.17044000  1.0 -0.4050652523
N  N63  1  0.60770000  0.45890000  0.10633000  1.0 -0.1741205965
N  N64  1  0.44130000  0.26672000  0.27251000  1.0 -0.1865652342
N  N65  1  0.13400000  0.07610000  0.24780000  1.0 -0.0321332951
N  N66  1  0.57400000  0.07240000  0.03118000  1.0 -0.1865652342
N  N67  1  0.32230000  0.09157000  0.95397000  1.0 -0.3816015486
N  N68  1  0.31530000  0.12391000  0.90655000  1.0 -0.3816015486
N  N69  1  0.46000000  0.12461000  0.93292000  1.0 -0.3816015486
N  N70  1  0.98960000  0.05216000  0.91940000  1.0 -0.1821422185
N  N71  1  0.55570000  0.20123000  0.84036000  1.0 -0.1865652342
N  N72  1  0.38890000  0.37675000  0.59257000  1.0 -0.1821422185
N  N73  1  0.42270000  0.21206000  0.62912000  1.0 -0.4004066168
N  N74  1  0.45650000  0.17568000  0.67428000  1.0 -0.4004066168
N  N75  1  0.45430000  0.25861000  0.67044000  1.0 -0.4004066168
N  N76  1  0.39230000  0.04110000  0.60633000  1.0 -0.1741205965
N  N77  1  0.55870000  0.23328000  0.77251000  1.0 -0.1865652342
N  N78  1  0.86600000  0.42390000  0.74780000  1.0 -0.0321332951
N  N79  1  0.92600000  0.57240000  0.96882000  1.0 -0.1865652342
N  N80  1  0.17770000  0.59157000  0.04603000  1.0 -0.3816015486
N  N81  1  0.18470000  0.62391000  0.09345000  1.0 -0.3816015486
N  N82  1  0.04000000  0.62461000  0.06708000  1.0 -0.3816015486
N  N83  1  0.51040000  0.55216000  0.08060000  1.0 -0.1821422185
N  N84  1  0.94430000  0.70123000  0.15964000  1.0 -0.1865652342
N  N85  1  0.11110000  0.87675000  0.40743000  1.0 -0.1821422185
N  N86  1  0.07730000  0.71206000  0.37088000  1.0 -0.4004066168
N  N87  1  0.04350000  0.67568000  0.32572000  1.0 -0.4004066168
N  N88  1  0.04570000  0.75861000  0.32956000  1.0 -0.4004066168
N  N89  1  0.10770000  0.54110000  0.39367000  1.0 -0.1741205965
N  N90  1  0.94130000  0.73328000  0.22749000  1.0 -0.1865652342
N  N91  1  0.63400000  0.92390000  0.25220000  1.0 -0.0321332951
N  N92  1  0.07400000  0.92760000  0.46882000  1.0 -0.1865652342
N  N93  1  0.82230000  0.90843000  0.54603000  1.0 -0.3816015486
N  N94  1  0.81530000  0.87609000  0.59345000  1.0 -0.3816015486
N  N95  1  0.96000000  0.87539000  0.56708000  1.0 -0.3816015486
N  N96  1  0.48960000  0.94784000  0.58060000  1.0 -0.1821422185
N  N97  1  0.05570000  0.79877000  0.65964000  1.0 -0.1865652342
N  N98  1  0.88890000  0.62325000  0.90743000  1.0 -0.1821422185
N  N99  1  0.92270000  0.78794000  0.87088000  1.0 -0.4004066168
N  N100  1  0.95650000  0.82432000  0.82572000  1.0 -0.4004066168
N  N101  1  0.95430000  0.74139000  0.82956000  1.0 -0.4004066168
N  N102  1  0.89230000  0.95890000  0.89367000  1.0 -0.1741205965
N  N103  1  0.05870000  0.76672000  0.72749000  1.0 -0.1865652342
N  N104  1  0.36600000  0.57610000  0.75220000  1.0 -0.0321332951
O  O1  1  0.77460000  0.91700000  0.75120000  1.0 -0.2642354806
O  O2  1  0.91210000  0.92760000  0.77630000  1.0 -0.2825509746
O  O3  1  0.22540000  0.58300000  0.25120000  1.0 -0.2642354806
O  O4  1  0.08790000  0.57240000  0.27630000  1.0 -0.2825509746
O  O5  1  0.27460000  0.08300000  0.74880000  1.0 -0.2654915292
O  O6  1  0.41210000  0.07240000  0.72370000  1.0 -0.2825509746
O  O7  1  0.72540000  0.41700000  0.24880000  1.0 -0.2642354806
O  O8  1  0.58790000  0.42760000  0.22370000  1.0 -0.2825509746
O  O9  1  0.22540000  0.08300000  0.24880000  1.0 -0.2642354806
O  O10  1  0.08790000  0.07240000  0.22370000  1.0 -0.2825509746
O  O11  1  0.77460000  0.41700000  0.74880000  1.0 -0.2642354806
O  O12  1  0.91210000  0.42760000  0.72370000  1.0 -0.2825509746
O  O13  1  0.72540000  0.91700000  0.25120000  1.0 -0.2642354806
O  O14  1  0.58790000  0.92760000  0.27630000  1.0 -0.2825509746
O  O15  1  0.27460000  0.58300000  0.75120000  1.0 -0.2654915292
O  O16  1  0.41210000  0.57240000  0.77630000  1.0 -0.2825509746
