# DDEC6 charges by PACMAN v1.1 (https://github.com/mtap-research/PACMAN-charge/)
data_KEWDUO_ASR_pacman
_symmetry_space_group_name_H-M   'P 1'
_cell_length_a   14.02850000
_cell_length_b   28.76400000
_cell_length_c   45.89200000
_cell_angle_alpha   90.00000000
_cell_angle_beta   90.00000000
_cell_angle_gamma   90.00000000
_symmetry_Int_Tables_number   1
_chemical_formula_structural   Zn3H29C42I12N13O2
_chemical_formula_sum   'Zn24 H232 C336 I96 N104 O16'
_cell_volume   18518.14590041
_cell_formula_units_Z   8
loop_
 _symmetry_equiv_pos_site_id
 _symmetry_equiv_pos_as_xyz
  1  'x, y, z'
loop_
 _atom_site_type_symbol
 _atom_site_label
 _atom_site_symmetry_multiplicity
 _atom_site_fract_x
 _atom_site_fract_y
 _atom_site_fract_z
 _atom_site_occupancy
 _atom_site_charge
Zn  Zn1  1  0.64005000  0.56323000  0.43045000  1.0 0.4405167705
Zn  Zn2  1  0.85744000  0.52052000  0.58690000  1.0 0.4507911063
Zn  Zn3  1  0.63108000  0.73977000  0.68882000  1.0 0.4405167705
Zn  Zn4  1  0.35995000  0.93677000  0.93045000  1.0 0.4405167705
Zn  Zn5  1  0.14256000  0.97948000  0.08690000  1.0 0.4507911063
Zn  Zn6  1  0.36892000  0.76023000  0.18882000  1.0 0.4405167705
Zn  Zn7  1  0.14005000  0.43677000  0.06955000  1.0 0.4405167705
Zn  Zn8  1  0.35744000  0.47948000  0.91310000  1.0 0.4507911063
Zn  Zn9  1  0.13108000  0.26023000  0.81118000  1.0 0.4405167705
Zn  Zn10  1  0.85995000  0.06323000  0.56955000  1.0 0.4405167705
Zn  Zn11  1  0.64256000  0.02052000  0.41310000  1.0 0.4507911063
Zn  Zn12  1  0.86892000  0.23977000  0.31118000  1.0 0.4405167705
Zn  Zn13  1  0.35995000  0.43677000  0.56955000  1.0 0.4405167705
Zn  Zn14  1  0.14256000  0.47948000  0.41310000  1.0 0.4507911063
Zn  Zn15  1  0.36892000  0.26023000  0.31118000  1.0 0.4405167705
Zn  Zn16  1  0.64005000  0.06323000  0.06955000  1.0 0.4405167705
Zn  Zn17  1  0.85744000  0.02052000  0.91310000  1.0 0.4507911063
Zn  Zn18  1  0.63108000  0.23977000  0.81118000  1.0 0.4405167705
Zn  Zn19  1  0.85995000  0.56323000  0.93045000  1.0 0.4405167705
Zn  Zn20  1  0.64256000  0.52052000  0.08690000  1.0 0.4507911063
Zn  Zn21  1  0.86892000  0.73977000  0.18882000  1.0 0.4405167705
Zn  Zn22  1  0.14005000  0.93677000  0.43045000  1.0 0.4405167705
Zn  Zn23  1  0.35744000  0.97948000  0.58690000  1.0 0.4507911063
Zn  Zn24  1  0.13108000  0.76023000  0.68882000  1.0 0.4405167705
H  H1  1  0.45410000  0.54000000  0.45780000  1.0 0.110135032
H  H2  1  0.35430000  0.56660000  0.49540000  1.0 0.1302187713
H  H3  1  0.59700000  0.60740000  0.53370000  1.0 0.1390176154
H  H4  1  0.67740000  0.59970000  0.49300000  1.0 0.110135032
H  H5  1  0.16560000  0.54930000  0.53580000  1.0 0.1390176154
H  H6  1  0.01940000  0.52370000  0.54200000  1.0 0.1225977
H  H7  1  0.99740000  0.58320000  0.61820000  1.0 0.110135032
H  H8  1  0.15490000  0.60090000  0.61730000  1.0 0.1302187713
H  H9  1  0.34320000  0.67910000  0.63840000  1.0 0.1390176154
H  H10  1  0.43270000  0.71270000  0.67450000  1.0 0.110135032
H  H11  1  0.66730000  0.67650000  0.64030000  1.0 0.110135032
H  H12  1  0.59180000  0.63490000  0.60380000  1.0 0.1390176154
H  H13  1  0.37230000  0.83370000  0.93950000  1.0 0.110135032
H  H14  1  0.39710000  0.76440000  0.91590000  1.0 0.1390176154
H  H15  1  0.44860000  0.84060000  0.84290000  1.0 0.1302187713
H  H16  1  0.42050000  0.90710000  0.87110000  1.0 0.0894031568
H  H17  1  0.42000000  0.65030000  0.91120000  1.0 0.1302187713
H  H18  1  0.39990000  0.57730000  0.92810000  1.0 0.110135032
H  H19  1  0.40530000  0.51760000  0.85450000  1.0 0.0977989572
H  H20  1  0.42640000  0.58980000  0.83120000  1.0 0.1225977
H  H21  1  0.52730000  0.65420000  0.77770000  1.0 0.1302187713
H  H22  1  0.56460000  0.66300000  0.72860000  1.0 0.110135032
H  H23  1  0.52490000  0.79790000  0.73400000  1.0 0.110135032
H  H24  1  0.48450000  0.79100000  0.78170000  1.0 0.1302187713
H  H25  1  0.43050000  0.43350000  0.26650000  1.0 0.1225977
H  H26  1  0.38290000  0.43130000  0.31490000  1.0 0.1302187713
H  H27  1  0.49500000  0.43910000  0.35180000  1.0 0.0977989572
H  H28  1  0.65470000  0.44900000  0.34020000  1.0 0.110135032
H  H29  1  0.70230000  0.45120000  0.29180000  1.0 0.0894031568
H  H30  1  0.54590000  0.96000000  0.95780000  1.0 0.110135032
H  H31  1  0.64570000  0.93340000  0.99540000  1.0 0.1302187713
H  H32  1  0.40300000  0.89260000  0.03370000  1.0 0.1390176154
H  H33  1  0.32260000  0.90030000  0.99300000  1.0 0.110135032
H  H34  1  0.83440000  0.95070000  0.03580000  1.0 0.1390176154
H  H35  1  0.98060000  0.97630000  0.04200000  1.0 0.1225977
H  H36  1  0.00260000  0.91680000  0.11820000  1.0 0.110135032
H  H37  1  0.84510000  0.89910000  0.11730000  1.0 0.1302187713
H  H38  1  0.65680000  0.82090000  0.13840000  1.0 0.1390176154
H  H39  1  0.56730000  0.78730000  0.17450000  1.0 0.110135032
H  H40  1  0.33270000  0.82350000  0.14030000  1.0 0.110135032
H  H41  1  0.40820000  0.86510000  0.10380000  1.0 0.1390176154
H  H42  1  0.62770000  0.66630000  0.43950000  1.0 0.110135032
H  H43  1  0.60290000  0.73560000  0.41590000  1.0 0.1390176154
H  H44  1  0.55140000  0.65940000  0.34290000  1.0 0.1302187713
H  H45  1  0.57950000  0.59290000  0.37110000  1.0 0.0894031568
H  H46  1  0.58000000  0.84970000  0.41120000  1.0 0.1302187713
H  H47  1  0.60010000  0.92270000  0.42810000  1.0 0.110135032
H  H48  1  0.59470000  0.98240000  0.35450000  1.0 0.0977989572
H  H49  1  0.57360000  0.91020000  0.33120000  1.0 0.1225977
H  H50  1  0.47270000  0.84580000  0.27770000  1.0 0.1302187713
H  H51  1  0.43540000  0.83700000  0.22860000  1.0 0.110135032
H  H52  1  0.47510000  0.70210000  0.23400000  1.0 0.110135032
H  H53  1  0.51550000  0.70900000  0.28170000  1.0 0.1302187713
H  H54  1  0.56950000  0.06650000  0.76650000  1.0 0.1225977
H  H55  1  0.61710000  0.06870000  0.81490000  1.0 0.1302187713
H  H56  1  0.50500000  0.06090000  0.85180000  1.0 0.0977989572
H  H57  1  0.34530000  0.05100000  0.84020000  1.0 0.110135032
H  H58  1  0.29770000  0.04880000  0.79180000  1.0 0.0894031568
H  H59  1  0.95410000  0.46000000  0.04220000  1.0 0.110135032
H  H60  1  0.85430000  0.43340000  0.00460000  1.0 0.1302187713
H  H61  1  0.09700000  0.39260000  0.96630000  1.0 0.1390176154
H  H62  1  0.17740000  0.40030000  0.00700000  1.0 0.110135032
H  H63  1  0.66560000  0.45070000  0.96420000  1.0 0.1390176154
H  H64  1  0.51940000  0.47630000  0.95800000  1.0 0.1225977
H  H65  1  0.49740000  0.41680000  0.88180000  1.0 0.110135032
H  H66  1  0.65490000  0.39910000  0.88270000  1.0 0.1302187713
H  H67  1  0.84320000  0.32090000  0.86160000  1.0 0.1390176154
H  H68  1  0.93270000  0.28730000  0.82550000  1.0 0.110135032
H  H69  1  0.16730000  0.32350000  0.85970000  1.0 0.110135032
H  H70  1  0.09180000  0.36510000  0.89620000  1.0 0.1390176154
H  H71  1  0.87230000  0.16630000  0.56050000  1.0 0.110135032
H  H72  1  0.89710000  0.23560000  0.58410000  1.0 0.1390176154
H  H73  1  0.94860000  0.15940000  0.65710000  1.0 0.1302187713
H  H74  1  0.92050000  0.09290000  0.62890000  1.0 0.0894031568
H  H75  1  0.92000000  0.34970000  0.58880000  1.0 0.1302187713
H  H76  1  0.89990000  0.42270000  0.57190000  1.0 0.110135032
H  H77  1  0.90530000  0.48240000  0.64550000  1.0 0.0977989572
H  H78  1  0.92640000  0.41020000  0.66880000  1.0 0.1225977
H  H79  1  0.02730000  0.34580000  0.72230000  1.0 0.1302187713
H  H80  1  0.06460000  0.33700000  0.77140000  1.0 0.110135032
H  H81  1  0.02490000  0.20210000  0.76600000  1.0 0.110135032
H  H82  1  0.98450000  0.20900000  0.71830000  1.0 0.1302187713
H  H83  1  0.93050000  0.56650000  0.23350000  1.0 0.1225977
H  H84  1  0.88290000  0.56870000  0.18510000  1.0 0.1302187713
H  H85  1  0.99500000  0.56090000  0.14820000  1.0 0.0977989572
H  H86  1  0.15470000  0.55100000  0.15980000  1.0 0.110135032
H  H87  1  0.20230000  0.54880000  0.20820000  1.0 0.0894031568
H  H88  1  0.04590000  0.04000000  0.54220000  1.0 0.110135032
H  H89  1  0.14570000  0.06660000  0.50460000  1.0 0.1302187713
H  H90  1  0.90300000  0.10740000  0.46630000  1.0 0.1390176154
H  H91  1  0.82260000  0.09970000  0.50700000  1.0 0.110135032
H  H92  1  0.33440000  0.04930000  0.46420000  1.0 0.1390176154
H  H93  1  0.48060000  0.02370000  0.45800000  1.0 0.1225977
H  H94  1  0.50260000  0.08320000  0.38180000  1.0 0.110135032
H  H95  1  0.34510000  0.10090000  0.38270000  1.0 0.1302187713
H  H96  1  0.15680000  0.17910000  0.36160000  1.0 0.1390176154
H  H97  1  0.06730000  0.21270000  0.32550000  1.0 0.110135032
H  H98  1  0.83270000  0.17650000  0.35970000  1.0 0.110135032
H  H99  1  0.90820000  0.13490000  0.39620000  1.0 0.1390176154
H  H100  1  0.12770000  0.33370000  0.06050000  1.0 0.110135032
H  H101  1  0.10290000  0.26440000  0.08410000  1.0 0.1390176154
H  H102  1  0.05140000  0.34060000  0.15710000  1.0 0.1302187713
H  H103  1  0.07950000  0.40710000  0.12890000  1.0 0.0894031568
H  H104  1  0.08000000  0.15030000  0.08880000  1.0 0.1302187713
H  H105  1  0.10010000  0.07730000  0.07190000  1.0 0.110135032
H  H106  1  0.09470000  0.01760000  0.14550000  1.0 0.0977989572
H  H107  1  0.07360000  0.08980000  0.16880000  1.0 0.1225977
H  H108  1  0.97270000  0.15420000  0.22230000  1.0 0.1302187713
H  H109  1  0.93540000  0.16300000  0.27140000  1.0 0.110135032
H  H110  1  0.97510000  0.29790000  0.26600000  1.0 0.110135032
H  H111  1  0.01550000  0.29100000  0.21830000  1.0 0.1302187713
H  H112  1  0.06950000  0.93350000  0.73350000  1.0 0.1225977
H  H113  1  0.11710000  0.93130000  0.68510000  1.0 0.1302187713
H  H114  1  0.00500000  0.93910000  0.64820000  1.0 0.0977989572
H  H115  1  0.84530000  0.94900000  0.65980000  1.0 0.110135032
H  H116  1  0.79770000  0.95120000  0.70820000  1.0 0.0894031568
H  H117  1  0.54590000  0.46000000  0.54220000  1.0 0.110135032
H  H118  1  0.64570000  0.43340000  0.50460000  1.0 0.1302187713
H  H119  1  0.40300000  0.39260000  0.46630000  1.0 0.1390176154
H  H120  1  0.32260000  0.40030000  0.50700000  1.0 0.110135032
H  H121  1  0.83440000  0.45070000  0.46420000  1.0 0.1390176154
H  H122  1  0.98060000  0.47630000  0.45800000  1.0 0.1225977
H  H123  1  0.00260000  0.41680000  0.38180000  1.0 0.110135032
H  H124  1  0.84510000  0.39910000  0.38270000  1.0 0.1302187713
H  H125  1  0.65680000  0.32090000  0.36160000  1.0 0.1390176154
H  H126  1  0.56730000  0.28730000  0.32550000  1.0 0.110135032
H  H127  1  0.33270000  0.32350000  0.35970000  1.0 0.110135032
H  H128  1  0.40820000  0.36510000  0.39620000  1.0 0.1390176154
H  H129  1  0.62770000  0.16630000  0.06050000  1.0 0.110135032
H  H130  1  0.60290000  0.23560000  0.08410000  1.0 0.1390176154
H  H131  1  0.55140000  0.15940000  0.15710000  1.0 0.1302187713
H  H132  1  0.57950000  0.09290000  0.12890000  1.0 0.0894031568
H  H133  1  0.58000000  0.34970000  0.08880000  1.0 0.1302187713
H  H134  1  0.60010000  0.42270000  0.07190000  1.0 0.110135032
H  H135  1  0.59470000  0.48240000  0.14550000  1.0 0.0977989572
H  H136  1  0.57360000  0.41020000  0.16880000  1.0 0.1225977
H  H137  1  0.47270000  0.34580000  0.22230000  1.0 0.1302187713
H  H138  1  0.43540000  0.33700000  0.27140000  1.0 0.110135032
H  H139  1  0.47510000  0.20210000  0.26600000  1.0 0.110135032
H  H140  1  0.51550000  0.20900000  0.21830000  1.0 0.1302187713
H  H141  1  0.56950000  0.56650000  0.73350000  1.0 0.1225977
H  H142  1  0.61710000  0.56870000  0.68510000  1.0 0.1302187713
H  H143  1  0.50500000  0.56090000  0.64820000  1.0 0.0977989572
H  H144  1  0.34530000  0.55100000  0.65980000  1.0 0.110135032
H  H145  1  0.29770000  0.54880000  0.70820000  1.0 0.0894031568
H  H146  1  0.45410000  0.04000000  0.04220000  1.0 0.110135032
H  H147  1  0.35430000  0.06660000  0.00460000  1.0 0.1302187713
H  H148  1  0.59700000  0.10740000  0.96630000  1.0 0.1390176154
H  H149  1  0.67740000  0.09970000  0.00700000  1.0 0.110135032
H  H150  1  0.16560000  0.04930000  0.96420000  1.0 0.1390176154
H  H151  1  0.01940000  0.02370000  0.95800000  1.0 0.1225977
H  H152  1  0.99740000  0.08320000  0.88180000  1.0 0.110135032
H  H153  1  0.15490000  0.10090000  0.88270000  1.0 0.1302187713
H  H154  1  0.34320000  0.17910000  0.86160000  1.0 0.1390176154
H  H155  1  0.43270000  0.21270000  0.82550000  1.0 0.110135032
H  H156  1  0.66730000  0.17650000  0.85970000  1.0 0.110135032
H  H157  1  0.59180000  0.13490000  0.89620000  1.0 0.1390176154
H  H158  1  0.37230000  0.33370000  0.56050000  1.0 0.110135032
H  H159  1  0.39710000  0.26440000  0.58410000  1.0 0.1390176154
H  H160  1  0.44860000  0.34060000  0.65710000  1.0 0.1302187713
H  H161  1  0.42050000  0.40710000  0.62890000  1.0 0.0894031568
H  H162  1  0.42000000  0.15030000  0.58880000  1.0 0.1302187713
H  H163  1  0.39990000  0.07730000  0.57190000  1.0 0.110135032
H  H164  1  0.40530000  0.01760000  0.64550000  1.0 0.0977989572
H  H165  1  0.42640000  0.08980000  0.66880000  1.0 0.1225977
H  H166  1  0.52730000  0.15420000  0.72230000  1.0 0.1302187713
H  H167  1  0.56460000  0.16300000  0.77140000  1.0 0.110135032
H  H168  1  0.52490000  0.29790000  0.76600000  1.0 0.110135032
H  H169  1  0.48450000  0.29100000  0.71830000  1.0 0.1302187713
H  H170  1  0.43050000  0.93350000  0.23350000  1.0 0.1225977
H  H171  1  0.38290000  0.93130000  0.18510000  1.0 0.1302187713
H  H172  1  0.49500000  0.93910000  0.14820000  1.0 0.0977989572
H  H173  1  0.65470000  0.94900000  0.15980000  1.0 0.110135032
H  H174  1  0.70230000  0.95120000  0.20820000  1.0 0.0894031568
H  H175  1  0.04590000  0.54000000  0.95780000  1.0 0.110135032
H  H176  1  0.14570000  0.56660000  0.99540000  1.0 0.1302187713
H  H177  1  0.90300000  0.60740000  0.03370000  1.0 0.1390176154
H  H178  1  0.82260000  0.59970000  0.99300000  1.0 0.110135032
H  H179  1  0.33440000  0.54930000  0.03580000  1.0 0.1390176154
H  H180  1  0.48060000  0.52370000  0.04200000  1.0 0.1225977
H  H181  1  0.50260000  0.58320000  0.11820000  1.0 0.110135032
H  H182  1  0.34510000  0.60090000  0.11730000  1.0 0.1302187713
H  H183  1  0.15680000  0.67910000  0.13840000  1.0 0.1390176154
H  H184  1  0.06730000  0.71270000  0.17450000  1.0 0.110135032
H  H185  1  0.83270000  0.67650000  0.14030000  1.0 0.110135032
H  H186  1  0.90820000  0.63490000  0.10380000  1.0 0.1390176154
H  H187  1  0.12770000  0.83370000  0.43950000  1.0 0.110135032
H  H188  1  0.10290000  0.76440000  0.41590000  1.0 0.1390176154
H  H189  1  0.05140000  0.84060000  0.34290000  1.0 0.1302187713
H  H190  1  0.07950000  0.90710000  0.37110000  1.0 0.0894031568
H  H191  1  0.08000000  0.65030000  0.41120000  1.0 0.1302187713
H  H192  1  0.10010000  0.57730000  0.42810000  1.0 0.110135032
H  H193  1  0.09470000  0.51760000  0.35450000  1.0 0.0977989572
H  H194  1  0.07360000  0.58980000  0.33120000  1.0 0.1225977
H  H195  1  0.97270000  0.65420000  0.27770000  1.0 0.1302187713
H  H196  1  0.93540000  0.66300000  0.22860000  1.0 0.110135032
H  H197  1  0.97510000  0.79790000  0.23400000  1.0 0.110135032
H  H198  1  0.01550000  0.79100000  0.28170000  1.0 0.1302187713
H  H199  1  0.06950000  0.43350000  0.76650000  1.0 0.1225977
H  H200  1  0.11710000  0.43130000  0.81490000  1.0 0.1302187713
H  H201  1  0.00500000  0.43910000  0.85180000  1.0 0.0977989572
H  H202  1  0.84530000  0.44900000  0.84020000  1.0 0.110135032
H  H203  1  0.79770000  0.45120000  0.79180000  1.0 0.0894031568
H  H204  1  0.95410000  0.96000000  0.45780000  1.0 0.110135032
H  H205  1  0.85430000  0.93340000  0.49540000  1.0 0.1302187713
H  H206  1  0.09700000  0.89260000  0.53370000  1.0 0.1390176154
H  H207  1  0.17740000  0.90030000  0.49300000  1.0 0.110135032
H  H208  1  0.66560000  0.95070000  0.53580000  1.0 0.1390176154
H  H209  1  0.51940000  0.97630000  0.54200000  1.0 0.1225977
H  H210  1  0.49740000  0.91680000  0.61820000  1.0 0.110135032
H  H211  1  0.65490000  0.89910000  0.61730000  1.0 0.1302187713
H  H212  1  0.84320000  0.82090000  0.63840000  1.0 0.1390176154
H  H213  1  0.93270000  0.78730000  0.67450000  1.0 0.110135032
H  H214  1  0.16730000  0.82350000  0.64030000  1.0 0.110135032
H  H215  1  0.09180000  0.86510000  0.60380000  1.0 0.1390176154
H  H216  1  0.87230000  0.66630000  0.93950000  1.0 0.110135032
H  H217  1  0.89710000  0.73560000  0.91590000  1.0 0.1390176154
H  H218  1  0.94860000  0.65940000  0.84290000  1.0 0.1302187713
H  H219  1  0.92050000  0.59290000  0.87110000  1.0 0.0894031568
H  H220  1  0.92000000  0.84970000  0.91120000  1.0 0.1302187713
H  H221  1  0.89990000  0.92270000  0.92810000  1.0 0.110135032
H  H222  1  0.90530000  0.98240000  0.85450000  1.0 0.0977989572
H  H223  1  0.92640000  0.91020000  0.83120000  1.0 0.1225977
H  H224  1  0.02730000  0.84580000  0.77770000  1.0 0.1302187713
H  H225  1  0.06460000  0.83700000  0.72860000  1.0 0.110135032
H  H226  1  0.02490000  0.70210000  0.73400000  1.0 0.110135032
H  H227  1  0.98450000  0.70900000  0.78170000  1.0 0.1302187713
H  H228  1  0.93050000  0.06650000  0.26650000  1.0 0.1225977
H  H229  1  0.88290000  0.06870000  0.31490000  1.0 0.1302187713
H  H230  1  0.99500000  0.06090000  0.35180000  1.0 0.0977989572
H  H231  1  0.15470000  0.05100000  0.34020000  1.0 0.110135032
H  H232  1  0.20230000  0.04880000  0.29180000  1.0 0.0894031568
C  C1  1  0.48020000  0.55910000  0.47220000  1.0 0.0814803372
C  C2  1  0.42000000  0.57100000  0.49570000  1.0 -0.1495779433
C  C3  1  0.46940000  0.59080000  0.52030000  1.0 0.0424510162
C  C4  1  0.56380000  0.59750000  0.51730000  1.0 -0.1231931591
C  C5  1  0.61340000  0.59140000  0.49340000  1.0 0.0307828625
C  C6  1  0.41220000  0.59920000  0.54650000  1.0 0.3596006975
C  C7  1  0.27630000  0.60020000  0.57110000  1.0 0.350118543
C  C8  1  0.40700000  0.63100000  0.59230000  1.0 0.3596006975
C  C9  1  0.17660000  0.58560000  0.57570000  1.0 0.0611633043
C  C10  1  0.13210000  0.55670000  0.55260000  1.0 -0.1309849129
C  C11  1  0.04670000  0.54210000  0.55640000  1.0 0.0424510162
C  C12  1  0.03320000  0.57560000  0.60180000  1.0 0.0894031568
C  C13  1  0.12590000  0.58910000  0.60070000  1.0 -0.1793493459
C  C14  1  0.45720000  0.65330000  0.61600000  1.0 0.0523998724
C  C15  1  0.40940000  0.67700000  0.63810000  1.0 -0.1585013476
C  C16  1  0.46410000  0.69710000  0.65950000  1.0 0.0894031568
C  C17  1  0.60100000  0.67530000  0.63990000  1.0 0.0814803372
C  C18  1  0.55670000  0.65150000  0.61750000  1.0 -0.1495779433
C  C19  1  0.38760000  0.83470000  0.91980000  1.0 0.0814803372
C  C20  1  0.40090000  0.79260000  0.90610000  1.0 -0.1688842879
C  C21  1  0.42090000  0.79560000  0.87560000  1.0 0.0611633043
C  C22  1  0.43160000  0.83810000  0.86240000  1.0 -0.1407513952
C  C23  1  0.41570000  0.87800000  0.87990000  1.0 0.0685597323
C  C24  1  0.43450000  0.75150000  0.85880000  1.0 0.350118543
C  C25  1  0.43690000  0.67470000  0.85570000  1.0 0.3596006975
C  C26  1  0.46680000  0.71950000  0.81550000  1.0 0.3825639567
C  C27  1  0.42410000  0.62770000  0.86750000  1.0 0.0424510162
C  C28  1  0.41620000  0.62480000  0.89880000  1.0 -0.1688842879
C  C29  1  0.40270000  0.58070000  0.90800000  1.0 0.0814803372
C  C30  1  0.40570000  0.54490000  0.86540000  1.0 0.0685597323
C  C31  1  0.42000000  0.58840000  0.85130000  1.0 -0.1407513952
C  C32  1  0.49630000  0.72270000  0.78410000  1.0 0.0523998724
C  C33  1  0.52540000  0.68330000  0.76880000  1.0 -0.1495779433
C  C34  1  0.55150000  0.68920000  0.73980000  1.0 0.0814803372
C  C35  1  0.52750000  0.76890000  0.74300000  1.0 0.0685597323
C  C36  1  0.50050000  0.76460000  0.77120000  1.0 -0.1309849129
C  C37  1  0.57100000  0.44260000  0.27440000  1.0 0.0424510162
C  C38  1  0.47500000  0.43660000  0.28130000  1.0 -0.112419463
C  C39  1  0.44700000  0.43530000  0.31030000  1.0 -0.0803052083
C  C40  1  0.51400000  0.43990000  0.33240000  1.0 -0.0723610002
C  C41  1  0.61000000  0.44590000  0.32540000  1.0 -0.0930222397
C  C42  1  0.63800000  0.44720000  0.29650000  1.0 -0.1495779433
C  C43  1  0.51980000  0.94090000  0.97220000  1.0 0.0814803372
C  C44  1  0.58000000  0.92900000  0.99570000  1.0 -0.1495779433
C  C45  1  0.53060000  0.90920000  0.02030000  1.0 0.0424510162
C  C46  1  0.43620000  0.90250000  0.01730000  1.0 -0.1231931591
C  C47  1  0.38660000  0.90860000  0.99340000  1.0 0.0307828625
C  C48  1  0.58780000  0.90080000  0.04650000  1.0 0.3596006975
C  C49  1  0.72370000  0.89980000  0.07110000  1.0 0.350118543
C  C50  1  0.59300000  0.86900000  0.09230000  1.0 0.3596006975
C  C51  1  0.82340000  0.91440000  0.07570000  1.0 0.0611633043
C  C52  1  0.86790000  0.94330000  0.05260000  1.0 -0.1309849129
C  C53  1  0.95330000  0.95790000  0.05640000  1.0 0.0523998724
C  C54  1  0.96680000  0.92440000  0.10180000  1.0 0.0894031568
C  C55  1  0.87410000  0.91090000  0.10070000  1.0 -0.1793493459
C  C56  1  0.54280000  0.84670000  0.11600000  1.0 0.0523998724
C  C57  1  0.59060000  0.82300000  0.13810000  1.0 -0.1585013476
C  C58  1  0.53590000  0.80290000  0.15950000  1.0 0.0894031568
C  C59  1  0.39900000  0.82470000  0.13990000  1.0 0.0814803372
C  C60  1  0.44330000  0.84850000  0.11750000  1.0 -0.1495779433
C  C61  1  0.61240000  0.66530000  0.41980000  1.0 0.0814803372
C  C62  1  0.59910000  0.70740000  0.40610000  1.0 -0.1688842879
C  C63  1  0.57910000  0.70440000  0.37560000  1.0 0.0611633043
C  C64  1  0.56840000  0.66190000  0.36240000  1.0 -0.1407513952
C  C65  1  0.58430000  0.62200000  0.37990000  1.0 0.0685597323
C  C66  1  0.56550000  0.74850000  0.35880000  1.0 0.350118543
C  C67  1  0.56310000  0.82530000  0.35570000  1.0 0.3596006975
C  C68  1  0.53320000  0.78050000  0.31550000  1.0 0.3825639567
C  C69  1  0.57590000  0.87230000  0.36750000  1.0 0.0424510162
C  C70  1  0.58380000  0.87520000  0.39880000  1.0 -0.1688842879
C  C71  1  0.59730000  0.91930000  0.40800000  1.0 0.0814803372
C  C72  1  0.59430000  0.95510000  0.36540000  1.0 0.0685597323
C  C73  1  0.58000000  0.91160000  0.35130000  1.0 -0.1407513952
C  C74  1  0.50370000  0.77730000  0.28410000  1.0 0.0523998724
C  C75  1  0.47460000  0.81670000  0.26880000  1.0 -0.1495779433
C  C76  1  0.44850000  0.81080000  0.23980000  1.0 0.0814803372
C  C77  1  0.47250000  0.73110000  0.24300000  1.0 0.0685597323
C  C78  1  0.49950000  0.73540000  0.27120000  1.0 -0.1309849129
C  C79  1  0.42900000  0.05740000  0.77440000  1.0 0.0424510162
C  C80  1  0.52500000  0.06340000  0.78130000  1.0 -0.112419463
C  C81  1  0.55300000  0.06470000  0.81030000  1.0 -0.0803052083
C  C82  1  0.48600000  0.06010000  0.83240000  1.0 -0.0723610002
C  C83  1  0.39000000  0.05410000  0.82540000  1.0 -0.0930222397
C  C84  1  0.36200000  0.05280000  0.79650000  1.0 -0.1585013476
C  C85  1  0.98020000  0.44090000  0.02780000  1.0 0.0814803372
C  C86  1  0.92000000  0.42900000  0.00430000  1.0 -0.1495779433
C  C87  1  0.96940000  0.40920000  0.97970000  1.0 0.0424510162
C  C88  1  0.06380000  0.40250000  0.98270000  1.0 -0.1231931591
C  C89  1  0.11340000  0.40860000  0.00660000  1.0 0.0307828625
C  C90  1  0.91220000  0.40080000  0.95350000  1.0 0.3596006975
C  C91  1  0.77630000  0.39980000  0.92890000  1.0 0.350118543
C  C92  1  0.90700000  0.36900000  0.90770000  1.0 0.3596006975
C  C93  1  0.67660000  0.41440000  0.92430000  1.0 0.0611633043
C  C94  1  0.63210000  0.44330000  0.94740000  1.0 -0.1309849129
C  C95  1  0.54670000  0.45790000  0.94360000  1.0 0.0424510162
C  C96  1  0.53320000  0.42440000  0.89820000  1.0 0.0894031568
C  C97  1  0.62590000  0.41090000  0.89930000  1.0 -0.1793493459
C  C98  1  0.95720000  0.34670000  0.88400000  1.0 0.0523998724
C  C99  1  0.90940000  0.32300000  0.86190000  1.0 -0.1585013476
C  C100  1  0.96410000  0.30290000  0.84050000  1.0 0.0894031568
C  C101  1  0.10100000  0.32470000  0.86010000  1.0 0.0814803372
C  C102  1  0.05670000  0.34850000  0.88250000  1.0 -0.1407513952
C  C103  1  0.88760000  0.16530000  0.58020000  1.0 0.0894031568
C  C104  1  0.90090000  0.20740000  0.59390000  1.0 -0.1688842879
C  C105  1  0.92090000  0.20440000  0.62440000  1.0 0.0611633043
C  C106  1  0.93160000  0.16190000  0.63760000  1.0 -0.1407513952
C  C107  1  0.91570000  0.12200000  0.62010000  1.0 0.0814803372
C  C108  1  0.93450000  0.24850000  0.64120000  1.0 0.350118543
C  C109  1  0.93690000  0.32530000  0.64430000  1.0 0.3596006975
C  C110  1  0.96680000  0.28050000  0.68450000  1.0 0.3825639567
C  C111  1  0.92410000  0.37230000  0.63250000  1.0 0.0424510162
C  C112  1  0.91620000  0.37520000  0.60120000  1.0 -0.1688842879
C  C113  1  0.90270000  0.41930000  0.59200000  1.0 0.0814803372
C  C114  1  0.90570000  0.45510000  0.63460000  1.0 0.0685597323
C  C115  1  0.92000000  0.41160000  0.64870000  1.0 -0.1407513952
C  C116  1  0.99630000  0.27730000  0.71590000  1.0 0.0523998724
C  C117  1  0.02540000  0.31670000  0.73120000  1.0 -0.1495779433
C  C118  1  0.05150000  0.31080000  0.76020000  1.0 0.0814803372
C  C119  1  0.02750000  0.23110000  0.75700000  1.0 0.0611633043
C  C120  1  0.00050000  0.23540000  0.72880000  1.0 -0.1309849129
C  C121  1  0.07100000  0.55740000  0.22560000  1.0 0.0424510162
C  C122  1  0.97500000  0.56340000  0.21870000  1.0 -0.112419463
C  C123  1  0.94700000  0.56470000  0.18970000  1.0 -0.0803052083
C  C124  1  0.01400000  0.56010000  0.16760000  1.0 -0.0723610002
C  C125  1  0.11000000  0.55410000  0.17460000  1.0 -0.0930222397
C  C126  1  0.13800000  0.55280000  0.20350000  1.0 -0.1585013476
C  C127  1  0.01980000  0.05910000  0.52780000  1.0 0.0814803372
C  C128  1  0.08000000  0.07100000  0.50430000  1.0 -0.1495779433
C  C129  1  0.03060000  0.09080000  0.47970000  1.0 0.0424510162
C  C130  1  0.93620000  0.09750000  0.48270000  1.0 -0.1231931591
C  C131  1  0.88660000  0.09140000  0.50660000  1.0 0.0307828625
C  C132  1  0.08780000  0.09920000  0.45350000  1.0 0.3596006975
C  C133  1  0.22370000  0.10020000  0.42890000  1.0 0.350118543
C  C134  1  0.09300000  0.13100000  0.40770000  1.0 0.3596006975
C  C135  1  0.32340000  0.08560000  0.42430000  1.0 0.0611633043
C  C136  1  0.36790000  0.05670000  0.44740000  1.0 -0.1309849129
C  C137  1  0.45330000  0.04210000  0.44360000  1.0 0.0424510162
C  C138  1  0.46680000  0.07560000  0.39820000  1.0 0.0894031568
C  C139  1  0.37410000  0.08910000  0.39930000  1.0 -0.1793493459
C  C140  1  0.04280000  0.15330000  0.38400000  1.0 0.0523998724
C  C141  1  0.09060000  0.17700000  0.36190000  1.0 -0.1585013476
C  C142  1  0.03590000  0.19710000  0.34050000  1.0 0.0894031568
C  C143  1  0.89900000  0.17530000  0.36010000  1.0 0.0814803372
C  C144  1  0.94330000  0.15150000  0.38250000  1.0 -0.1495779433
C  C145  1  0.11240000  0.33470000  0.08020000  1.0 0.0814803372
C  C146  1  0.09910000  0.29260000  0.09390000  1.0 -0.1688842879
C  C147  1  0.07910000  0.29560000  0.12440000  1.0 0.0611633043
C  C148  1  0.06840000  0.33810000  0.13760000  1.0 -0.1407513952
C  C149  1  0.08430000  0.37800000  0.12010000  1.0 0.0685597323
C  C150  1  0.06550000  0.25150000  0.14120000  1.0 0.3596006975
C  C151  1  0.06310000  0.17470000  0.14430000  1.0 0.3596006975
C  C152  1  0.03320000  0.21950000  0.18450000  1.0 0.3825639567
C  C153  1  0.07590000  0.12770000  0.13250000  1.0 0.0424510162
C  C154  1  0.08380000  0.12480000  0.10120000  1.0 -0.1688842879
C  C155  1  0.09730000  0.08070000  0.09200000  1.0 0.0814803372
C  C156  1  0.09430000  0.04490000  0.13460000  1.0 0.0685597323
C  C157  1  0.08000000  0.08840000  0.14870000  1.0 -0.1407513952
C  C158  1  0.00370000  0.22270000  0.21590000  1.0 0.0523998724
C  C159  1  0.97460000  0.18330000  0.23120000  1.0 -0.1495779433
C  C160  1  0.94850000  0.18920000  0.26020000  1.0 0.0814803372
C  C161  1  0.97250000  0.26890000  0.25700000  1.0 0.0685597323
C  C162  1  0.99950000  0.26460000  0.22880000  1.0 -0.1309849129
C  C163  1  0.92900000  0.94260000  0.72560000  1.0 0.0424510162
C  C164  1  0.02500000  0.93660000  0.71870000  1.0 -0.112419463
C  C165  1  0.05300000  0.93530000  0.68970000  1.0 -0.0803052083
C  C166  1  0.98600000  0.93990000  0.66760000  1.0 -0.0723610002
C  C167  1  0.89000000  0.94590000  0.67460000  1.0 -0.0930222397
C  C168  1  0.86200000  0.94720000  0.70350000  1.0 -0.1495779433
C  C169  1  0.51980000  0.44090000  0.52780000  1.0 0.0814803372
C  C170  1  0.58000000  0.42900000  0.50430000  1.0 -0.1495779433
C  C171  1  0.53060000  0.40920000  0.47970000  1.0 0.0424510162
C  C172  1  0.43620000  0.40250000  0.48270000  1.0 -0.1231931591
C  C173  1  0.38660000  0.40860000  0.50660000  1.0 0.0307828625
C  C174  1  0.58780000  0.40080000  0.45350000  1.0 0.3596006975
C  C175  1  0.72370000  0.39980000  0.42890000  1.0 0.350118543
C  C176  1  0.59300000  0.36900000  0.40770000  1.0 0.3596006975
C  C177  1  0.82340000  0.41440000  0.42430000  1.0 0.0611633043
C  C178  1  0.86790000  0.44330000  0.44740000  1.0 -0.1309849129
C  C179  1  0.95330000  0.45790000  0.44360000  1.0 0.0424510162
C  C180  1  0.96680000  0.42440000  0.39820000  1.0 0.0894031568
C  C181  1  0.87410000  0.41090000  0.39930000  1.0 -0.1793493459
C  C182  1  0.54280000  0.34670000  0.38400000  1.0 0.0523998724
C  C183  1  0.59060000  0.32300000  0.36190000  1.0 -0.1585013476
C  C184  1  0.53590000  0.30290000  0.34050000  1.0 0.0894031568
C  C185  1  0.39900000  0.32470000  0.36010000  1.0 0.0814803372
C  C186  1  0.44330000  0.34850000  0.38250000  1.0 -0.1495779433
C  C187  1  0.61240000  0.16530000  0.08020000  1.0 0.0894031568
C  C188  1  0.59910000  0.20740000  0.09390000  1.0 -0.1688842879
C  C189  1  0.57910000  0.20440000  0.12440000  1.0 0.0611633043
C  C190  1  0.56840000  0.16190000  0.13760000  1.0 -0.1407513952
C  C191  1  0.58430000  0.12200000  0.12010000  1.0 0.0814803372
C  C192  1  0.56550000  0.24850000  0.14120000  1.0 0.350118543
C  C193  1  0.56310000  0.32530000  0.14430000  1.0 0.3596006975
C  C194  1  0.53320000  0.28050000  0.18450000  1.0 0.3825639567
C  C195  1  0.57590000  0.37230000  0.13250000  1.0 0.0424510162
C  C196  1  0.58380000  0.37520000  0.10120000  1.0 -0.1688842879
C  C197  1  0.59730000  0.41930000  0.09200000  1.0 0.0814803372
C  C198  1  0.59430000  0.45510000  0.13460000  1.0 0.0685597323
C  C199  1  0.58000000  0.41160000  0.14870000  1.0 -0.1407513952
C  C200  1  0.50370000  0.27730000  0.21590000  1.0 0.0523998724
C  C201  1  0.47460000  0.31670000  0.23120000  1.0 -0.1495779433
C  C202  1  0.44850000  0.31080000  0.26020000  1.0 0.0814803372
C  C203  1  0.47250000  0.23110000  0.25700000  1.0 0.0685597323
C  C204  1  0.49950000  0.23540000  0.22880000  1.0 -0.1309849129
C  C205  1  0.42900000  0.55740000  0.72560000  1.0 0.0424510162
C  C206  1  0.52500000  0.56340000  0.71870000  1.0 -0.112419463
C  C207  1  0.55300000  0.56470000  0.68970000  1.0 -0.0803052083
C  C208  1  0.48600000  0.56010000  0.66760000  1.0 -0.0723610002
C  C209  1  0.39000000  0.55410000  0.67460000  1.0 -0.0930222397
C  C210  1  0.36200000  0.55280000  0.70350000  1.0 -0.1585013476
C  C211  1  0.48020000  0.05910000  0.02780000  1.0 0.0814803372
C  C212  1  0.42000000  0.07100000  0.00430000  1.0 -0.1495779433
C  C213  1  0.46940000  0.09080000  0.97970000  1.0 0.0424510162
C  C214  1  0.56380000  0.09750000  0.98270000  1.0 -0.1231931591
C  C215  1  0.61340000  0.09140000  0.00660000  1.0 0.0307828625
C  C216  1  0.41220000  0.09920000  0.95350000  1.0 0.3596006975
C  C217  1  0.27630000  0.10020000  0.92890000  1.0 0.350118543
C  C218  1  0.40700000  0.13100000  0.90770000  1.0 0.3596006975
C  C219  1  0.17660000  0.08560000  0.92430000  1.0 0.0611633043
C  C220  1  0.13210000  0.05670000  0.94740000  1.0 -0.1309849129
C  C221  1  0.04670000  0.04210000  0.94360000  1.0 0.0424510162
C  C222  1  0.03320000  0.07560000  0.89820000  1.0 0.0894031568
C  C223  1  0.12590000  0.08910000  0.89930000  1.0 -0.1793493459
C  C224  1  0.45720000  0.15330000  0.88400000  1.0 0.0523998724
C  C225  1  0.40940000  0.17700000  0.86190000  1.0 -0.1585013476
C  C226  1  0.46410000  0.19710000  0.84050000  1.0 0.0894031568
C  C227  1  0.60100000  0.17530000  0.86010000  1.0 0.0814803372
C  C228  1  0.55670000  0.15150000  0.88250000  1.0 -0.1407513952
C  C229  1  0.38760000  0.33470000  0.58020000  1.0 0.0814803372
C  C230  1  0.40090000  0.29260000  0.59390000  1.0 -0.1688842879
C  C231  1  0.42090000  0.29560000  0.62440000  1.0 0.0611633043
C  C232  1  0.43160000  0.33810000  0.63760000  1.0 -0.1407513952
C  C233  1  0.41570000  0.37800000  0.62010000  1.0 0.0685597323
C  C234  1  0.43450000  0.25150000  0.64120000  1.0 0.350118543
C  C235  1  0.43690000  0.17470000  0.64430000  1.0 0.3596006975
C  C236  1  0.46680000  0.21950000  0.68450000  1.0 0.3825639567
C  C237  1  0.42410000  0.12770000  0.63250000  1.0 0.0424510162
C  C238  1  0.41620000  0.12480000  0.60120000  1.0 -0.1688842879
C  C239  1  0.40270000  0.08070000  0.59200000  1.0 0.0814803372
C  C240  1  0.40570000  0.04490000  0.63460000  1.0 0.0685597323
C  C241  1  0.42000000  0.08840000  0.64870000  1.0 -0.1407513952
C  C242  1  0.49630000  0.22270000  0.71590000  1.0 0.0523998724
C  C243  1  0.52540000  0.18330000  0.73120000  1.0 -0.1495779433
C  C244  1  0.55150000  0.18920000  0.76020000  1.0 0.0814803372
C  C245  1  0.52750000  0.26890000  0.75700000  1.0 0.0685597323
C  C246  1  0.50050000  0.26460000  0.72880000  1.0 -0.1309849129
C  C247  1  0.57100000  0.94260000  0.22560000  1.0 0.0424510162
C  C248  1  0.47500000  0.93660000  0.21870000  1.0 -0.112419463
C  C249  1  0.44700000  0.93530000  0.18970000  1.0 -0.0803052083
C  C250  1  0.51400000  0.93990000  0.16760000  1.0 -0.0723610002
C  C251  1  0.61000000  0.94590000  0.17460000  1.0 -0.0930222397
C  C252  1  0.63800000  0.94720000  0.20350000  1.0 -0.1585013476
C  C253  1  0.01980000  0.55910000  0.97220000  1.0 0.0814803372
C  C254  1  0.08000000  0.57100000  0.99570000  1.0 -0.1495779433
C  C255  1  0.03060000  0.59080000  0.02030000  1.0 0.0424510162
C  C256  1  0.93620000  0.59750000  0.01730000  1.0 -0.1231931591
C  C257  1  0.88660000  0.59140000  0.99340000  1.0 0.0307828625
C  C258  1  0.08780000  0.59920000  0.04650000  1.0 0.3596006975
C  C259  1  0.22370000  0.60020000  0.07110000  1.0 0.350118543
C  C260  1  0.09300000  0.63100000  0.09230000  1.0 0.3596006975
C  C261  1  0.32340000  0.58560000  0.07570000  1.0 0.0611633043
C  C262  1  0.36790000  0.55670000  0.05260000  1.0 -0.1309849129
C  C263  1  0.45330000  0.54210000  0.05640000  1.0 0.0424510162
C  C264  1  0.46680000  0.57560000  0.10180000  1.0 0.0894031568
C  C265  1  0.37410000  0.58910000  0.10070000  1.0 -0.1793493459
C  C266  1  0.04280000  0.65330000  0.11600000  1.0 0.0523998724
C  C267  1  0.09060000  0.67700000  0.13810000  1.0 -0.1585013476
C  C268  1  0.03590000  0.69710000  0.15950000  1.0 0.0894031568
C  C269  1  0.89900000  0.67530000  0.13990000  1.0 0.0814803372
C  C270  1  0.94330000  0.65150000  0.11750000  1.0 -0.1495779433
C  C271  1  0.11240000  0.83470000  0.41980000  1.0 0.0814803372
C  C272  1  0.09910000  0.79260000  0.40610000  1.0 -0.1688842879
C  C273  1  0.07910000  0.79560000  0.37560000  1.0 0.0611633043
C  C274  1  0.06840000  0.83810000  0.36240000  1.0 -0.1407513952
C  C275  1  0.08430000  0.87800000  0.37990000  1.0 0.0685597323
C  C276  1  0.06550000  0.75150000  0.35880000  1.0 0.3596006975
C  C277  1  0.06310000  0.67470000  0.35570000  1.0 0.365744271
C  C278  1  0.03320000  0.71950000  0.31550000  1.0 0.3825639567
C  C279  1  0.07590000  0.62770000  0.36750000  1.0 0.0424510162
C  C280  1  0.08380000  0.62480000  0.39880000  1.0 -0.1688842879
C  C281  1  0.09730000  0.58070000  0.40800000  1.0 0.0814803372
C  C282  1  0.09430000  0.54490000  0.36540000  1.0 0.0685597323
C  C283  1  0.08000000  0.58840000  0.35130000  1.0 -0.1407513952
C  C284  1  0.00370000  0.72270000  0.28410000  1.0 0.0523998724
C  C285  1  0.97460000  0.68330000  0.26880000  1.0 -0.1495779433
C  C286  1  0.94850000  0.68920000  0.23980000  1.0 0.0814803372
C  C287  1  0.97250000  0.76890000  0.24300000  1.0 0.0685597323
C  C288  1  0.99950000  0.76460000  0.27120000  1.0 -0.1309849129
C  C289  1  0.92900000  0.44260000  0.77440000  1.0 0.0424510162
C  C290  1  0.02500000  0.43660000  0.78130000  1.0 -0.112419463
C  C291  1  0.05300000  0.43530000  0.81030000  1.0 -0.0803052083
C  C292  1  0.98600000  0.43990000  0.83240000  1.0 -0.0723610002
C  C293  1  0.89000000  0.44590000  0.82540000  1.0 -0.0930222397
C  C294  1  0.86200000  0.44720000  0.79650000  1.0 -0.1495779433
C  C295  1  0.98020000  0.94090000  0.47220000  1.0 0.0814803372
C  C296  1  0.92000000  0.92900000  0.49570000  1.0 -0.1495779433
C  C297  1  0.96940000  0.90920000  0.52030000  1.0 0.0424510162
C  C298  1  0.06380000  0.90250000  0.51730000  1.0 -0.1231931591
C  C299  1  0.11340000  0.90860000  0.49340000  1.0 0.0307828625
C  C300  1  0.91220000  0.90080000  0.54650000  1.0 0.3596006975
C  C301  1  0.77630000  0.89980000  0.57110000  1.0 0.350118543
C  C302  1  0.90700000  0.86900000  0.59230000  1.0 0.3596006975
C  C303  1  0.67660000  0.91440000  0.57570000  1.0 0.0611633043
C  C304  1  0.63210000  0.94330000  0.55260000  1.0 -0.1309849129
C  C305  1  0.54670000  0.95790000  0.55640000  1.0 0.0424510162
C  C306  1  0.53320000  0.92440000  0.60180000  1.0 0.0894031568
C  C307  1  0.62590000  0.91090000  0.60070000  1.0 -0.1793493459
C  C308  1  0.95720000  0.84670000  0.61600000  1.0 0.0523998724
C  C309  1  0.90940000  0.82300000  0.63810000  1.0 -0.1585013476
C  C310  1  0.96410000  0.80290000  0.65950000  1.0 0.0894031568
C  C311  1  0.10100000  0.82470000  0.63990000  1.0 0.0814803372
C  C312  1  0.05670000  0.84850000  0.61750000  1.0 -0.1495779433
C  C313  1  0.88760000  0.66530000  0.91980000  1.0 0.0894031568
C  C314  1  0.90090000  0.70740000  0.90610000  1.0 -0.1688842879
C  C315  1  0.92090000  0.70440000  0.87560000  1.0 0.0611633043
C  C316  1  0.93160000  0.66190000  0.86240000  1.0 -0.1407513952
C  C317  1  0.91570000  0.62200000  0.87990000  1.0 0.0685597323
C  C318  1  0.93450000  0.74850000  0.85880000  1.0 0.350118543
C  C319  1  0.93690000  0.82530000  0.85570000  1.0 0.3596006975
C  C320  1  0.96680000  0.78050000  0.81550000  1.0 0.3825639567
C  C321  1  0.92410000  0.87230000  0.86750000  1.0 0.0424510162
C  C322  1  0.91620000  0.87520000  0.89880000  1.0 -0.1688842879
C  C323  1  0.90270000  0.91930000  0.90800000  1.0 0.0814803372
C  C324  1  0.90570000  0.95510000  0.86540000  1.0 0.0685597323
C  C325  1  0.92000000  0.91160000  0.85130000  1.0 -0.1407513952
C  C326  1  0.99630000  0.77730000  0.78410000  1.0 0.0523998724
C  C327  1  0.02540000  0.81670000  0.76880000  1.0 -0.1495779433
C  C328  1  0.05150000  0.81080000  0.73980000  1.0 0.0814803372
C  C329  1  0.02750000  0.73110000  0.74300000  1.0 0.0685597323
C  C330  1  0.00050000  0.73540000  0.77120000  1.0 -0.1309849129
C  C331  1  0.07100000  0.05740000  0.27440000  1.0 0.0424510162
C  C332  1  0.97500000  0.06340000  0.28130000  1.0 -0.112419463
C  C333  1  0.94700000  0.06470000  0.31030000  1.0 -0.0803052083
C  C334  1  0.01400000  0.06010000  0.33240000  1.0 -0.0723610002
C  C335  1  0.11000000  0.05410000  0.32540000  1.0 -0.0930222397
C  C336  1  0.13800000  0.05280000  0.29650000  1.0 -0.1585013476
I  I1  1  0.81922000  0.57011000  0.44102000  1.0 -0.3728534759
I  I2  1  0.76759000  0.56655000  0.62526000  1.0 -0.451574012
I  I3  1  0.78825000  0.50417000  0.53661000  1.0 -0.451574012
I  I4  1  0.79569000  0.70308000  0.69508000  1.0 -0.46232612
I  I5  1  0.55951000  0.49788000  0.40297000  1.0 -0.3126617552
I  I6  1  0.62428000  0.82348000  0.67204000  1.0 -0.2592791834
I  I7  1  0.83120000  0.54720000  0.37070000  1.0 0.0159794808
I  I8  1  0.86040000  0.55480000  0.31010000  1.0 0.0307828625
I  I9  1  0.75940000  0.37330000  0.28193000  1.0 -0.0803052083
I  I10  1  0.65400000  0.42100000  0.23960000  1.0 0.4182079217
I  I11  1  0.72590000  0.49530000  0.36150000  1.0 0.0685597323
I  I12  1  0.88100000  0.49300000  0.32280000  1.0 0.0159794808
I  I13  1  0.18078000  0.92989000  0.94102000  1.0 -0.3728534759
I  I14  1  0.23241000  0.93345000  0.12526000  1.0 -0.451574012
I  I15  1  0.21175000  0.99583000  0.03661000  1.0 -0.451574012
I  I16  1  0.20431000  0.79692000  0.19508000  1.0 -0.46232612
I  I17  1  0.44049000  0.00212000  0.90297000  1.0 -0.3126617552
I  I18  1  0.37572000  0.67652000  0.17204000  1.0 -0.2592791834
I  I19  1  0.16880000  0.95280000  0.87070000  1.0 0.0159794808
I  I20  1  0.13960000  0.94520000  0.81010000  1.0 0.0307828625
I  I21  1  0.24060000  0.12670000  0.78193000  1.0 -0.0803052083
I  I22  1  0.34600000  0.07900000  0.73960000  1.0 0.4182079217
I  I23  1  0.27410000  0.00470000  0.86150000  1.0 0.0685597323
I  I24  1  0.11900000  0.00700000  0.82280000  1.0 0.0159794808
I  I25  1  0.31922000  0.42989000  0.05898000  1.0 -0.3728534759
I  I26  1  0.26759000  0.43345000  0.87474000  1.0 -0.451574012
I  I27  1  0.28825000  0.49583000  0.96339000  1.0 -0.451574012
I  I28  1  0.29569000  0.29692000  0.80492000  1.0 -0.46232612
I  I29  1  0.05951000  0.50212000  0.09703000  1.0 -0.3126617552
I  I30  1  0.12428000  0.17652000  0.82796000  1.0 -0.2592791834
I  I31  1  0.33120000  0.45280000  0.12930000  1.0 0.0159794808
I  I32  1  0.36040000  0.44520000  0.18990000  1.0 0.0307828625
I  I33  1  0.25940000  0.62670000  0.21807000  1.0 -0.0803052083
I  I34  1  0.15400000  0.57900000  0.26040000  1.0 0.4182079217
I  I35  1  0.22590000  0.50470000  0.13850000  1.0 0.0685597323
I  I36  1  0.38100000  0.50700000  0.17720000  1.0 0.0159794808
I  I37  1  0.68078000  0.07011000  0.55898000  1.0 -0.3728534759
I  I38  1  0.73241000  0.06655000  0.37474000  1.0 -0.451574012
I  I39  1  0.71175000  0.00417000  0.46339000  1.0 -0.451574012
I  I40  1  0.70431000  0.20308000  0.30492000  1.0 -0.46232612
I  I41  1  0.94049000  0.99788000  0.59703000  1.0 -0.3126617552
I  I42  1  0.87572000  0.32348000  0.32796000  1.0 -0.2592791834
I  I43  1  0.66880000  0.04720000  0.62930000  1.0 0.0159794808
I  I44  1  0.63960000  0.05480000  0.68990000  1.0 0.0307828625
I  I45  1  0.74060000  0.87330000  0.71807000  1.0 -0.0803052083
I  I46  1  0.84600000  0.92100000  0.76040000  1.0 0.4182079217
I  I47  1  0.77410000  0.99530000  0.63850000  1.0 0.0685597323
I  I48  1  0.61900000  0.99300000  0.67720000  1.0 0.0159794808
I  I49  1  0.18078000  0.42989000  0.55898000  1.0 -0.3728534759
I  I50  1  0.23241000  0.43345000  0.37474000  1.0 -0.451574012
I  I51  1  0.21175000  0.49583000  0.46339000  1.0 -0.451574012
I  I52  1  0.20431000  0.29692000  0.30492000  1.0 -0.46232612
I  I53  1  0.44049000  0.50212000  0.59703000  1.0 -0.3126617552
I  I54  1  0.37572000  0.17652000  0.32796000  1.0 -0.2592791834
I  I55  1  0.16880000  0.45280000  0.62930000  1.0 0.0159794808
I  I56  1  0.13960000  0.44520000  0.68990000  1.0 0.0307828625
I  I57  1  0.24060000  0.62670000  0.71807000  1.0 -0.0803052083
I  I58  1  0.34600000  0.57900000  0.76040000  1.0 0.4182079217
I  I59  1  0.27410000  0.50470000  0.63850000  1.0 0.0685597323
I  I60  1  0.11900000  0.50700000  0.67720000  1.0 0.0159794808
I  I61  1  0.81922000  0.07011000  0.05898000  1.0 -0.3728534759
I  I62  1  0.76759000  0.06655000  0.87474000  1.0 -0.451574012
I  I63  1  0.78825000  0.00417000  0.96339000  1.0 -0.451574012
I  I64  1  0.79569000  0.20308000  0.80492000  1.0 -0.46232612
I  I65  1  0.55951000  0.99788000  0.09703000  1.0 -0.3126617552
I  I66  1  0.62428000  0.32348000  0.82796000  1.0 -0.2592791834
I  I67  1  0.83120000  0.04720000  0.12930000  1.0 0.0159794808
I  I68  1  0.86040000  0.05480000  0.18990000  1.0 0.0307828625
I  I69  1  0.75940000  0.87330000  0.21807000  1.0 -0.0803052083
I  I70  1  0.65400000  0.92100000  0.26040000  1.0 0.4182079217
I  I71  1  0.72590000  0.99530000  0.13850000  1.0 0.0685597323
I  I72  1  0.88100000  0.99300000  0.17720000  1.0 0.0159794808
I  I73  1  0.68078000  0.57011000  0.94102000  1.0 -0.3728534759
I  I74  1  0.73241000  0.56655000  0.12526000  1.0 -0.451574012
I  I75  1  0.71175000  0.50417000  0.03661000  1.0 -0.451574012
I  I76  1  0.70431000  0.70308000  0.19508000  1.0 -0.46232612
I  I77  1  0.94049000  0.49788000  0.90297000  1.0 -0.3126617552
I  I78  1  0.87572000  0.82348000  0.17204000  1.0 -0.2592791834
I  I79  1  0.66880000  0.54720000  0.87070000  1.0 0.0159794808
I  I80  1  0.63960000  0.55480000  0.81010000  1.0 0.0307828625
I  I81  1  0.74060000  0.37330000  0.78193000  1.0 -0.0803052083
I  I82  1  0.84600000  0.42100000  0.73960000  1.0 0.4182079217
I  I83  1  0.77410000  0.49530000  0.86150000  1.0 0.0685597323
I  I84  1  0.61900000  0.49300000  0.82280000  1.0 0.0159794808
I  I85  1  0.31922000  0.92989000  0.44102000  1.0 -0.3728534759
I  I86  1  0.26759000  0.93345000  0.62526000  1.0 -0.451574012
I  I87  1  0.28825000  0.99583000  0.53661000  1.0 -0.451574012
I  I88  1  0.29569000  0.79692000  0.69508000  1.0 -0.46232612
I  I89  1  0.05951000  0.00212000  0.40297000  1.0 -0.3126617552
I  I90  1  0.12428000  0.67652000  0.67204000  1.0 -0.2592791834
I  I91  1  0.33120000  0.95280000  0.37070000  1.0 0.0159794808
I  I92  1  0.36040000  0.94520000  0.31010000  1.0 0.0307828625
I  I93  1  0.25940000  0.12670000  0.28193000  1.0 -0.0803052083
I  I94  1  0.15400000  0.07900000  0.23960000  1.0 0.4182079217
I  I95  1  0.22590000  0.00470000  0.36150000  1.0 0.0685597323
I  I96  1  0.38100000  0.00700000  0.32280000  1.0 0.0159794808
N  N1  1  0.57130000  0.57230000  0.46830000  1.0 -0.2079785385
N  N2  1  0.32160000  0.58830000  0.54770000  1.0 -0.3728534759
N  N3  1  0.31590000  0.62240000  0.59570000  1.0 -0.400689564
N  N4  1  0.46100000  0.62140000  0.56820000  1.0 -0.4093879846
N  N5  1  0.99290000  0.55270000  0.58090000  1.0 -0.1793493459
N  N6  1  0.55350000  0.69570000  0.66040000  1.0 -0.1922381179
N  N7  1  0.39440000  0.87610000  0.90800000  1.0 -0.1922381179
N  N8  1  0.42230000  0.71290000  0.87150000  1.0 -0.3799599626
N  N9  1  0.45800000  0.67560000  0.82610000  1.0 -0.4329195538
N  N10  1  0.45650000  0.75750000  0.82980000  1.0 -0.4093879846
N  N11  1  0.39310000  0.54340000  0.89380000  1.0 -0.1793493459
N  N12  1  0.55840000  0.73140000  0.72750000  1.0 -0.1793493459
N  N13  1  0.59800000  0.44380000  0.24680000  1.0 0.0894031568
N  N14  1  0.42870000  0.92770000  0.96830000  1.0 -0.2079785385
N  N15  1  0.67840000  0.91170000  0.04770000  1.0 -0.3728534759
N  N16  1  0.68410000  0.87760000  0.09570000  1.0 -0.400689564
N  N17  1  0.53900000  0.87860000  0.06820000  1.0 -0.4093879846
N  N18  1  0.00710000  0.94730000  0.08090000  1.0 -0.1793493459
N  N19  1  0.44650000  0.80430000  0.16040000  1.0 -0.1922381179
N  N20  1  0.60560000  0.62390000  0.40800000  1.0 -0.1922381179
N  N21  1  0.57770000  0.78710000  0.37150000  1.0 -0.3799599626
N  N22  1  0.54200000  0.82440000  0.32610000  1.0 -0.4329195538
N  N23  1  0.54350000  0.74250000  0.32980000  1.0 -0.4093879846
N  N24  1  0.60690000  0.95660000  0.39380000  1.0 -0.1793493459
N  N25  1  0.44160000  0.76860000  0.22750000  1.0 -0.1793493459
N  N26  1  0.40200000  0.05620000  0.74680000  1.0 0.0814803372
N  N27  1  0.07130000  0.42770000  0.03170000  1.0 -0.2079785385
N  N28  1  0.82160000  0.41170000  0.95230000  1.0 -0.3728534759
N  N29  1  0.81590000  0.37760000  0.90430000  1.0 -0.400689564
N  N30  1  0.96100000  0.37860000  0.93180000  1.0 -0.4093879846
N  N31  1  0.49290000  0.44730000  0.91910000  1.0 -0.1793493459
N  N32  1  0.05350000  0.30430000  0.83960000  1.0 -0.1922381179
N  N33  1  0.89440000  0.12390000  0.59200000  1.0 -0.1922381179
N  N34  1  0.92230000  0.28710000  0.62850000  1.0 -0.3799599626
N  N35  1  0.95800000  0.32440000  0.67390000  1.0 -0.4329195538
N  N36  1  0.95650000  0.24250000  0.67020000  1.0 -0.4093879846
N  N37  1  0.89310000  0.45660000  0.60620000  1.0 -0.1793493459
N  N38  1  0.05840000  0.26860000  0.77250000  1.0 -0.1793493459
N  N39  1  0.09800000  0.55620000  0.25320000  1.0 0.0814803372
N  N40  1  0.92870000  0.07230000  0.53170000  1.0 -0.2079785385
N  N41  1  0.17840000  0.08830000  0.45230000  1.0 -0.3728534759
N  N42  1  0.18410000  0.12240000  0.40430000  1.0 -0.400689564
N  N43  1  0.03900000  0.12140000  0.43180000  1.0 -0.4093879846
N  N44  1  0.50710000  0.05270000  0.41910000  1.0 -0.1793493459
N  N45  1  0.94650000  0.19570000  0.33960000  1.0 -0.1922381179
N  N46  1  0.10560000  0.37610000  0.09200000  1.0 -0.1922381179
N  N47  1  0.07770000  0.21290000  0.12850000  1.0 -0.3799599626
N  N48  1  0.04200000  0.17560000  0.17390000  1.0 -0.4329195538
N  N49  1  0.04350000  0.25750000  0.17020000  1.0 -0.4093879846
N  N50  1  0.10690000  0.04340000  0.10620000  1.0 -0.1793493459
N  N51  1  0.94160000  0.23140000  0.27250000  1.0 -0.1793493459
N  N52  1  0.90200000  0.94380000  0.75320000  1.0 0.0894031568
N  N53  1  0.42870000  0.42770000  0.53170000  1.0 -0.2079785385
N  N54  1  0.67840000  0.41170000  0.45230000  1.0 -0.3728534759
N  N55  1  0.68410000  0.37760000  0.40430000  1.0 -0.400689564
N  N56  1  0.53900000  0.37860000  0.43180000  1.0 -0.4093879846
N  N57  1  0.00710000  0.44730000  0.41910000  1.0 -0.1793493459
N  N58  1  0.44650000  0.30430000  0.33960000  1.0 -0.1922381179
N  N59  1  0.60560000  0.12390000  0.09200000  1.0 -0.1922381179
N  N60  1  0.57770000  0.28710000  0.12850000  1.0 -0.3799599626
N  N61  1  0.54200000  0.32440000  0.17390000  1.0 -0.4329195538
N  N62  1  0.54350000  0.24250000  0.17020000  1.0 -0.4093879846
N  N63  1  0.60690000  0.45660000  0.10620000  1.0 -0.1793493459
N  N64  1  0.44160000  0.26860000  0.27250000  1.0 -0.1793493459
N  N65  1  0.40200000  0.55620000  0.75320000  1.0 0.0814803372
N  N66  1  0.57130000  0.07230000  0.03170000  1.0 -0.2079785385
N  N67  1  0.32160000  0.08830000  0.95230000  1.0 -0.3728534759
N  N68  1  0.31590000  0.12240000  0.90430000  1.0 -0.400689564
N  N69  1  0.46100000  0.12140000  0.93180000  1.0 -0.4093879846
N  N70  1  0.99290000  0.05270000  0.91910000  1.0 -0.1793493459
N  N71  1  0.55350000  0.19570000  0.83960000  1.0 -0.1922381179
N  N72  1  0.39440000  0.37610000  0.59200000  1.0 -0.1922381179
N  N73  1  0.42230000  0.21290000  0.62850000  1.0 -0.3799599626
N  N74  1  0.45800000  0.17560000  0.67390000  1.0 -0.4329195538
N  N75  1  0.45650000  0.25750000  0.67020000  1.0 -0.4093879846
N  N76  1  0.39310000  0.04340000  0.60620000  1.0 -0.1793493459
N  N77  1  0.55840000  0.23140000  0.77250000  1.0 -0.1793493459
N  N78  1  0.59800000  0.94380000  0.25320000  1.0 0.0894031568
N  N79  1  0.92870000  0.57230000  0.96830000  1.0 -0.2079785385
N  N80  1  0.17840000  0.58830000  0.04770000  1.0 -0.3728534759
N  N81  1  0.18410000  0.62240000  0.09570000  1.0 -0.400689564
N  N82  1  0.03900000  0.62140000  0.06820000  1.0 -0.4093879846
N  N83  1  0.50710000  0.55270000  0.08090000  1.0 -0.1793493459
N  N84  1  0.94650000  0.69570000  0.16040000  1.0 -0.1922381179
N  N85  1  0.10560000  0.87610000  0.40800000  1.0 -0.1922381179
N  N86  1  0.07770000  0.71290000  0.37150000  1.0 -0.3799599626
N  N87  1  0.04200000  0.67560000  0.32610000  1.0 -0.4329195538
N  N88  1  0.04350000  0.75750000  0.32980000  1.0 -0.4093879846
N  N89  1  0.10690000  0.54340000  0.39380000  1.0 -0.1793493459
N  N90  1  0.94160000  0.73140000  0.22750000  1.0 -0.1793493459
N  N91  1  0.90200000  0.44380000  0.74680000  1.0 0.0894031568
N  N92  1  0.07130000  0.92770000  0.46830000  1.0 -0.2079785385
N  N93  1  0.82160000  0.91170000  0.54770000  1.0 -0.3728534759
N  N94  1  0.81590000  0.87760000  0.59570000  1.0 -0.400689564
N  N95  1  0.96100000  0.87860000  0.56820000  1.0 -0.4093879846
N  N96  1  0.49290000  0.94730000  0.58090000  1.0 -0.1793493459
N  N97  1  0.05350000  0.80430000  0.66040000  1.0 -0.1922381179
N  N98  1  0.89440000  0.62390000  0.90800000  1.0 -0.1922381179
N  N99  1  0.92230000  0.78710000  0.87150000  1.0 -0.3799599626
N  N100  1  0.95800000  0.82440000  0.82610000  1.0 -0.4329195538
N  N101  1  0.95650000  0.74250000  0.82980000  1.0 -0.4093879846
N  N102  1  0.89310000  0.95660000  0.89380000  1.0 -0.1793493459
N  N103  1  0.05840000  0.76860000  0.72750000  1.0 -0.1793493459
N  N104  1  0.09800000  0.05620000  0.24680000  1.0 0.0814803372
O  O1  1  0.68700000  0.44930000  0.24080000  1.0 -0.2757184127
O  O2  1  0.53400000  0.43940000  0.22680000  1.0 -0.3040492603
O  O3  1  0.31300000  0.05070000  0.74080000  1.0 -0.2757184127
O  O4  1  0.46600000  0.06060000  0.72680000  1.0 -0.3040492603
O  O5  1  0.18700000  0.55070000  0.25920000  1.0 -0.2744678476
O  O6  1  0.03400000  0.56060000  0.27320000  1.0 -0.3040492603
O  O7  1  0.81300000  0.94930000  0.75920000  1.0 -0.2757184127
O  O8  1  0.96600000  0.93940000  0.77320000  1.0 -0.3040492603
O  O9  1  0.31300000  0.55070000  0.75920000  1.0 -0.2757184127
O  O10  1  0.46600000  0.56060000  0.77320000  1.0 -0.3040492603
O  O11  1  0.68700000  0.94930000  0.25920000  1.0 -0.2757184127
O  O12  1  0.53400000  0.93940000  0.27320000  1.0 -0.3040492603
O  O13  1  0.81300000  0.44930000  0.74080000  1.0 -0.2757184127
O  O14  1  0.96600000  0.43940000  0.72680000  1.0 -0.3040492603
O  O15  1  0.18700000  0.05070000  0.24080000  1.0 -0.2744678476
O  O16  1  0.03400000  0.06060000  0.22680000  1.0 -0.3040492603
