# DDEC6 charges by PACMAN v1.1 (https://github.com/mtap-research/PACMAN-charge/)
data_KEWFAW_FSR_pacman
_symmetry_space_group_name_H-M   'P 1'
_cell_length_a   13.98030000
_cell_length_b   28.63500000
_cell_length_c   45.87600000
_cell_angle_alpha   90.00000000
_cell_angle_beta   90.00000000
_cell_angle_gamma   90.00000000
_symmetry_Int_Tables_number   1
_chemical_formula_structural   Zn3H29C42I12N13O2
_chemical_formula_sum   'Zn24 H232 C336 I96 N104 O16'
_cell_volume   18365.35055258
_cell_formula_units_Z   8
loop_
 _symmetry_equiv_pos_site_id
 _symmetry_equiv_pos_as_xyz
  1  'x, y, z'
loop_
 _atom_site_type_symbol
 _atom_site_label
 _atom_site_symmetry_multiplicity
 _atom_site_fract_x
 _atom_site_fract_y
 _atom_site_fract_z
 _atom_site_occupancy
 _atom_site_charge
Zn  Zn1  1  0.64195000  0.56322000  0.43043000  1.0 0.4405227615
Zn  Zn2  1  0.85736000  0.52098000  0.58700000  1.0 0.4615836306
Zn  Zn3  1  0.63191000  0.74017000  0.68877000  1.0 0.4405227615
Zn  Zn4  1  0.35805000  0.93678000  0.93043000  1.0 0.4405227615
Zn  Zn5  1  0.14264000  0.97902000  0.08700000  1.0 0.4615836306
Zn  Zn6  1  0.36809000  0.75983000  0.18877000  1.0 0.4405227615
Zn  Zn7  1  0.14195000  0.43678000  0.06957000  1.0 0.4405227615
Zn  Zn8  1  0.35736000  0.47902000  0.91300000  1.0 0.4615836306
Zn  Zn9  1  0.13191000  0.25983000  0.81123000  1.0 0.4405227615
Zn  Zn10  1  0.85805000  0.06322000  0.56957000  1.0 0.4405227615
Zn  Zn11  1  0.64264000  0.02098000  0.41300000  1.0 0.4615836306
Zn  Zn12  1  0.86809000  0.24017000  0.31123000  1.0 0.4405227615
Zn  Zn13  1  0.35805000  0.43678000  0.56957000  1.0 0.4405227615
Zn  Zn14  1  0.14264000  0.47902000  0.41300000  1.0 0.4615836306
Zn  Zn15  1  0.36809000  0.25983000  0.31123000  1.0 0.4405227615
Zn  Zn16  1  0.64195000  0.06322000  0.06957000  1.0 0.4405227615
Zn  Zn17  1  0.85736000  0.02098000  0.91300000  1.0 0.4615836306
Zn  Zn18  1  0.63191000  0.24017000  0.81123000  1.0 0.4405227615
Zn  Zn19  1  0.85805000  0.56322000  0.93043000  1.0 0.4405227615
Zn  Zn20  1  0.64264000  0.52098000  0.08700000  1.0 0.4615836306
Zn  Zn21  1  0.86809000  0.74017000  0.18877000  1.0 0.4405227615
Zn  Zn22  1  0.14195000  0.93678000  0.43043000  1.0 0.4405227615
Zn  Zn23  1  0.35736000  0.97902000  0.58700000  1.0 0.4615836306
Zn  Zn24  1  0.13191000  0.75983000  0.68877000  1.0 0.4405227615
H  H1  1  0.45400000  0.53770000  0.45780000  1.0 0.1108039216
H  H2  1  0.35540000  0.56710000  0.49530000  1.0 0.1294075508
H  H3  1  0.59840000  0.60810000  0.53360000  1.0 0.1372556491
H  H4  1  0.67670000  0.59900000  0.49340000  1.0 0.1108039216
H  H5  1  0.16250000  0.54920000  0.53650000  1.0 0.1372556491
H  H6  1  0.01980000  0.52490000  0.54110000  1.0 0.1294075508
H  H7  1  0.00850000  0.57440000  0.62130000  1.0 0.1108039216
H  H8  1  0.14680000  0.61180000  0.61460000  1.0 0.1294075508
H  H9  1  0.34220000  0.67640000  0.63980000  1.0 0.1372556491
H  H10  1  0.43280000  0.71390000  0.67430000  1.0 0.1108039216
H  H11  1  0.66710000  0.67710000  0.63960000  1.0 0.1108039216
H  H12  1  0.59140000  0.63690000  0.60400000  1.0 0.1372556491
H  H13  1  0.36500000  0.83410000  0.93890000  1.0 0.1108039216
H  H14  1  0.39760000  0.76470000  0.91590000  1.0 0.1372556491
H  H15  1  0.44960000  0.84190000  0.84340000  1.0 0.1372556491
H  H16  1  0.41880000  0.90730000  0.87090000  1.0 0.0905984386
H  H17  1  0.41780000  0.64960000  0.91090000  1.0 0.1294075508
H  H18  1  0.39400000  0.57760000  0.92890000  1.0 0.1108039216
H  H19  1  0.39880000  0.51880000  0.85470000  1.0 0.1016043081
H  H20  1  0.42630000  0.58850000  0.83170000  1.0 0.120246326
H  H21  1  0.52550000  0.65450000  0.77670000  1.0 0.1294075508
H  H22  1  0.56440000  0.66430000  0.72940000  1.0 0.1108039216
H  H23  1  0.52550000  0.79800000  0.73350000  1.0 0.1016043081
H  H24  1  0.48260000  0.79200000  0.78160000  1.0 0.1294075508
H  H25  1  0.05610000  0.94480000  0.73590000  1.0 0.120246326
H  H26  1  0.10930000  0.94470000  0.68800000  1.0 0.1294075508
H  H27  1  0.00030000  0.93900000  0.65000000  1.0 0.1016043081
H  H28  1  0.83800000  0.93340000  0.66000000  1.0 0.120246326
H  H29  1  0.78470000  0.93360000  0.70790000  1.0 0.0905984386
H  H30  1  0.54600000  0.96230000  0.95780000  1.0 0.1108039216
H  H31  1  0.64460000  0.93290000  0.99530000  1.0 0.1294075508
H  H32  1  0.40160000  0.89190000  0.03360000  1.0 0.1372556491
H  H33  1  0.32330000  0.90100000  0.99340000  1.0 0.1108039216
H  H34  1  0.83750000  0.95080000  0.03650000  1.0 0.1372556491
H  H35  1  0.98020000  0.97510000  0.04110000  1.0 0.1294075508
H  H36  1  0.99150000  0.92560000  0.12130000  1.0 0.1108039216
H  H37  1  0.85320000  0.88820000  0.11460000  1.0 0.1294075508
H  H38  1  0.65780000  0.82360000  0.13980000  1.0 0.1372556491
H  H39  1  0.56720000  0.78610000  0.17430000  1.0 0.1108039216
H  H40  1  0.33290000  0.82290000  0.13960000  1.0 0.1108039216
H  H41  1  0.40860000  0.86310000  0.10400000  1.0 0.1372556491
H  H42  1  0.63500000  0.66590000  0.43890000  1.0 0.1108039216
H  H43  1  0.60240000  0.73530000  0.41590000  1.0 0.1372556491
H  H44  1  0.55040000  0.65810000  0.34340000  1.0 0.1372556491
H  H45  1  0.58120000  0.59270000  0.37090000  1.0 0.0905984386
H  H46  1  0.58220000  0.85040000  0.41090000  1.0 0.1294075508
H  H47  1  0.60600000  0.92240000  0.42890000  1.0 0.1108039216
H  H48  1  0.60120000  0.98120000  0.35470000  1.0 0.1016043081
H  H49  1  0.57370000  0.91150000  0.33170000  1.0 0.120246326
H  H50  1  0.47450000  0.84550000  0.27670000  1.0 0.1294075508
H  H51  1  0.43560000  0.83570000  0.22940000  1.0 0.1108039216
H  H52  1  0.47450000  0.70200000  0.23350000  1.0 0.1016043081
H  H53  1  0.51740000  0.70800000  0.28160000  1.0 0.1294075508
H  H54  1  0.94390000  0.55520000  0.23590000  1.0 0.120246326
H  H55  1  0.89070000  0.55530000  0.18800000  1.0 0.1294075508
H  H56  1  0.99970000  0.56100000  0.15000000  1.0 0.1016043081
H  H57  1  0.16200000  0.56660000  0.16000000  1.0 0.120246326
H  H58  1  0.21530000  0.56640000  0.20790000  1.0 0.0905984386
H  H59  1  0.95400000  0.46230000  0.04220000  1.0 0.1108039216
H  H60  1  0.85540000  0.43290000  0.00470000  1.0 0.1294075508
H  H61  1  0.09840000  0.39190000  0.96640000  1.0 0.1372556491
H  H62  1  0.17670000  0.40100000  0.00660000  1.0 0.1108039216
H  H63  1  0.66250000  0.45080000  0.96350000  1.0 0.1372556491
H  H64  1  0.51980000  0.47510000  0.95890000  1.0 0.1294075508
H  H65  1  0.50850000  0.42560000  0.87870000  1.0 0.1108039216
H  H66  1  0.64680000  0.38820000  0.88540000  1.0 0.1294075508
H  H67  1  0.84220000  0.32360000  0.86020000  1.0 0.1372556491
H  H68  1  0.93280000  0.28610000  0.82570000  1.0 0.1108039216
H  H69  1  0.16710000  0.32290000  0.86040000  1.0 0.1108039216
H  H70  1  0.09140000  0.36310000  0.89600000  1.0 0.1372556491
H  H71  1  0.86500000  0.16590000  0.56110000  1.0 0.1108039216
H  H72  1  0.89760000  0.23530000  0.58410000  1.0 0.1372556491
H  H73  1  0.94960000  0.15810000  0.65660000  1.0 0.1372556491
H  H74  1  0.91880000  0.09270000  0.62910000  1.0 0.0905984386
H  H75  1  0.91780000  0.35040000  0.58910000  1.0 0.1294075508
H  H76  1  0.89400000  0.42240000  0.57110000  1.0 0.1108039216
H  H77  1  0.89880000  0.48120000  0.64530000  1.0 0.1016043081
H  H78  1  0.92630000  0.41150000  0.66830000  1.0 0.120246326
H  H79  1  0.02550000  0.34550000  0.72330000  1.0 0.1294075508
H  H80  1  0.06440000  0.33570000  0.77060000  1.0 0.1108039216
H  H81  1  0.02550000  0.20200000  0.76650000  1.0 0.1016043081
H  H82  1  0.98260000  0.20800000  0.71840000  1.0 0.1294075508
H  H83  1  0.55610000  0.05520000  0.76410000  1.0 0.120246326
H  H84  1  0.60930000  0.05530000  0.81200000  1.0 0.1294075508
H  H85  1  0.50030000  0.06100000  0.85000000  1.0 0.1016043081
H  H86  1  0.33800000  0.06660000  0.84000000  1.0 0.120246326
H  H87  1  0.28470000  0.06640000  0.79210000  1.0 0.0905984386
H  H88  1  0.04600000  0.03770000  0.54220000  1.0 0.1108039216
H  H89  1  0.14460000  0.06710000  0.50470000  1.0 0.1294075508
H  H90  1  0.90160000  0.10810000  0.46640000  1.0 0.1372556491
H  H91  1  0.82330000  0.09900000  0.50660000  1.0 0.1108039216
H  H92  1  0.33750000  0.04920000  0.46350000  1.0 0.1372556491
H  H93  1  0.48020000  0.02490000  0.45890000  1.0 0.1294075508
H  H94  1  0.49150000  0.07440000  0.37870000  1.0 0.1108039216
H  H95  1  0.35320000  0.11180000  0.38540000  1.0 0.1294075508
H  H96  1  0.15780000  0.17640000  0.36020000  1.0 0.1372556491
H  H97  1  0.06720000  0.21390000  0.32570000  1.0 0.1108039216
H  H98  1  0.83290000  0.17710000  0.36040000  1.0 0.1108039216
H  H99  1  0.90860000  0.13690000  0.39600000  1.0 0.1372556491
H  H100  1  0.13500000  0.33410000  0.06110000  1.0 0.1108039216
H  H101  1  0.10240000  0.26470000  0.08410000  1.0 0.1372556491
H  H102  1  0.05040000  0.34190000  0.15660000  1.0 0.1372556491
H  H103  1  0.08120000  0.40730000  0.12910000  1.0 0.0905984386
H  H104  1  0.08220000  0.14960000  0.08910000  1.0 0.1294075508
H  H105  1  0.10600000  0.07760000  0.07110000  1.0 0.1108039216
H  H106  1  0.10120000  0.01880000  0.14530000  1.0 0.1016043081
H  H107  1  0.07370000  0.08850000  0.16830000  1.0 0.120246326
H  H108  1  0.97450000  0.15450000  0.22330000  1.0 0.1294075508
H  H109  1  0.93560000  0.16430000  0.27060000  1.0 0.1108039216
H  H110  1  0.97450000  0.29800000  0.26650000  1.0 0.1016043081
H  H111  1  0.01740000  0.29200000  0.21840000  1.0 0.1294075508
H  H112  1  0.44390000  0.44480000  0.26410000  1.0 0.120246326
H  H113  1  0.39070000  0.44470000  0.31200000  1.0 0.1294075508
H  H114  1  0.49970000  0.43900000  0.35000000  1.0 0.1016043081
H  H115  1  0.66200000  0.43340000  0.34000000  1.0 0.120246326
H  H116  1  0.71530000  0.43360000  0.29210000  1.0 0.0905984386
H  H117  1  0.54600000  0.46230000  0.54220000  1.0 0.1108039216
H  H118  1  0.64460000  0.43290000  0.50470000  1.0 0.1294075508
H  H119  1  0.40160000  0.39190000  0.46640000  1.0 0.1372556491
H  H120  1  0.32330000  0.40100000  0.50660000  1.0 0.1108039216
H  H121  1  0.83750000  0.45080000  0.46350000  1.0 0.1372556491
H  H122  1  0.98020000  0.47510000  0.45890000  1.0 0.1294075508
H  H123  1  0.99150000  0.42560000  0.37870000  1.0 0.1108039216
H  H124  1  0.85320000  0.38820000  0.38540000  1.0 0.1294075508
H  H125  1  0.65780000  0.32360000  0.36020000  1.0 0.1372556491
H  H126  1  0.56720000  0.28610000  0.32570000  1.0 0.1108039216
H  H127  1  0.33290000  0.32290000  0.36040000  1.0 0.1108039216
H  H128  1  0.40860000  0.36310000  0.39600000  1.0 0.1372556491
H  H129  1  0.63500000  0.16590000  0.06110000  1.0 0.1108039216
H  H130  1  0.60240000  0.23530000  0.08410000  1.0 0.1372556491
H  H131  1  0.55040000  0.15810000  0.15660000  1.0 0.1372556491
H  H132  1  0.58120000  0.09270000  0.12910000  1.0 0.0905984386
H  H133  1  0.58220000  0.35040000  0.08910000  1.0 0.1294075508
H  H134  1  0.60600000  0.42240000  0.07110000  1.0 0.1108039216
H  H135  1  0.60120000  0.48120000  0.14530000  1.0 0.1016043081
H  H136  1  0.57370000  0.41150000  0.16830000  1.0 0.120246326
H  H137  1  0.47450000  0.34550000  0.22330000  1.0 0.1294075508
H  H138  1  0.43560000  0.33570000  0.27060000  1.0 0.1108039216
H  H139  1  0.47450000  0.20200000  0.26650000  1.0 0.1016043081
H  H140  1  0.51740000  0.20800000  0.21840000  1.0 0.1294075508
H  H141  1  0.94390000  0.05520000  0.26410000  1.0 0.120246326
H  H142  1  0.89070000  0.05530000  0.31200000  1.0 0.1294075508
H  H143  1  0.99970000  0.06100000  0.35000000  1.0 0.1016043081
H  H144  1  0.16200000  0.06660000  0.34000000  1.0 0.120246326
H  H145  1  0.21530000  0.06640000  0.29210000  1.0 0.0905984386
H  H146  1  0.45400000  0.03770000  0.04220000  1.0 0.1108039216
H  H147  1  0.35540000  0.06710000  0.00470000  1.0 0.1294075508
H  H148  1  0.59840000  0.10810000  0.96640000  1.0 0.1372556491
H  H149  1  0.67670000  0.09900000  0.00660000  1.0 0.1108039216
H  H150  1  0.16250000  0.04920000  0.96350000  1.0 0.1372556491
H  H151  1  0.01980000  0.02490000  0.95890000  1.0 0.1294075508
H  H152  1  0.00850000  0.07440000  0.87870000  1.0 0.1108039216
H  H153  1  0.14680000  0.11180000  0.88540000  1.0 0.1294075508
H  H154  1  0.34220000  0.17640000  0.86020000  1.0 0.1372556491
H  H155  1  0.43280000  0.21390000  0.82570000  1.0 0.1108039216
H  H156  1  0.66710000  0.17710000  0.86040000  1.0 0.1108039216
H  H157  1  0.59140000  0.13690000  0.89600000  1.0 0.1372556491
H  H158  1  0.36500000  0.33410000  0.56110000  1.0 0.1108039216
H  H159  1  0.39760000  0.26470000  0.58410000  1.0 0.1372556491
H  H160  1  0.44960000  0.34190000  0.65660000  1.0 0.1372556491
H  H161  1  0.41880000  0.40730000  0.62910000  1.0 0.0905984386
H  H162  1  0.41780000  0.14960000  0.58910000  1.0 0.1294075508
H  H163  1  0.39400000  0.07760000  0.57110000  1.0 0.1108039216
H  H164  1  0.39880000  0.01880000  0.64530000  1.0 0.1016043081
H  H165  1  0.42630000  0.08850000  0.66830000  1.0 0.120246326
H  H166  1  0.52550000  0.15450000  0.72330000  1.0 0.1294075508
H  H167  1  0.56440000  0.16430000  0.77060000  1.0 0.1108039216
H  H168  1  0.52550000  0.29800000  0.76650000  1.0 0.1016043081
H  H169  1  0.48260000  0.29200000  0.71840000  1.0 0.1294075508
H  H170  1  0.05610000  0.44480000  0.76410000  1.0 0.120246326
H  H171  1  0.10930000  0.44470000  0.81200000  1.0 0.1294075508
H  H172  1  0.00030000  0.43900000  0.85000000  1.0 0.1016043081
H  H173  1  0.83800000  0.43340000  0.84000000  1.0 0.120246326
H  H174  1  0.78470000  0.43360000  0.79210000  1.0 0.0905984386
H  H175  1  0.04600000  0.53770000  0.95780000  1.0 0.1108039216
H  H176  1  0.14460000  0.56710000  0.99530000  1.0 0.1294075508
H  H177  1  0.90160000  0.60810000  0.03360000  1.0 0.1372556491
H  H178  1  0.82330000  0.59900000  0.99340000  1.0 0.1108039216
H  H179  1  0.33750000  0.54920000  0.03650000  1.0 0.1372556491
H  H180  1  0.48020000  0.52490000  0.04110000  1.0 0.1294075508
H  H181  1  0.49150000  0.57440000  0.12130000  1.0 0.1108039216
H  H182  1  0.35320000  0.61180000  0.11460000  1.0 0.1294075508
H  H183  1  0.15780000  0.67640000  0.13980000  1.0 0.1372556491
H  H184  1  0.06720000  0.71390000  0.17430000  1.0 0.1108039216
H  H185  1  0.83290000  0.67710000  0.13960000  1.0 0.1108039216
H  H186  1  0.90860000  0.63690000  0.10400000  1.0 0.1372556491
H  H187  1  0.13500000  0.83410000  0.43890000  1.0 0.1108039216
H  H188  1  0.10240000  0.76470000  0.41590000  1.0 0.1372556491
H  H189  1  0.05040000  0.84190000  0.34340000  1.0 0.1372556491
H  H190  1  0.08120000  0.90730000  0.37090000  1.0 0.0905984386
H  H191  1  0.08220000  0.64960000  0.41090000  1.0 0.1294075508
H  H192  1  0.10600000  0.57760000  0.42890000  1.0 0.1108039216
H  H193  1  0.10120000  0.51880000  0.35470000  1.0 0.1016043081
H  H194  1  0.07370000  0.58850000  0.33170000  1.0 0.120246326
H  H195  1  0.97450000  0.65450000  0.27670000  1.0 0.1294075508
H  H196  1  0.93560000  0.66430000  0.22940000  1.0 0.1108039216
H  H197  1  0.97450000  0.79800000  0.23350000  1.0 0.1016043081
H  H198  1  0.01740000  0.79200000  0.28160000  1.0 0.1294075508
H  H199  1  0.44390000  0.94480000  0.23590000  1.0 0.120246326
H  H200  1  0.39070000  0.94470000  0.18800000  1.0 0.1294075508
H  H201  1  0.49970000  0.93900000  0.15000000  1.0 0.1016043081
H  H202  1  0.66200000  0.93340000  0.16000000  1.0 0.120246326
H  H203  1  0.71530000  0.93360000  0.20790000  1.0 0.0905984386
H  H204  1  0.95400000  0.96230000  0.45780000  1.0 0.1108039216
H  H205  1  0.85540000  0.93290000  0.49530000  1.0 0.1294075508
H  H206  1  0.09840000  0.89190000  0.53360000  1.0 0.1372556491
H  H207  1  0.17670000  0.90100000  0.49340000  1.0 0.1108039216
H  H208  1  0.66250000  0.95080000  0.53650000  1.0 0.1372556491
H  H209  1  0.51980000  0.97510000  0.54110000  1.0 0.1294075508
H  H210  1  0.50850000  0.92560000  0.62130000  1.0 0.1108039216
H  H211  1  0.64680000  0.88820000  0.61460000  1.0 0.1294075508
H  H212  1  0.84220000  0.82360000  0.63980000  1.0 0.1372556491
H  H213  1  0.93280000  0.78610000  0.67430000  1.0 0.1108039216
H  H214  1  0.16710000  0.82290000  0.63960000  1.0 0.1108039216
H  H215  1  0.09140000  0.86310000  0.60400000  1.0 0.1372556491
H  H216  1  0.86500000  0.66590000  0.93890000  1.0 0.1108039216
H  H217  1  0.89760000  0.73530000  0.91590000  1.0 0.1372556491
H  H218  1  0.94960000  0.65810000  0.84340000  1.0 0.1372556491
H  H219  1  0.91880000  0.59270000  0.87090000  1.0 0.0905984386
H  H220  1  0.91780000  0.85040000  0.91090000  1.0 0.1294075508
H  H221  1  0.89400000  0.92240000  0.92890000  1.0 0.1108039216
H  H222  1  0.89880000  0.98120000  0.85470000  1.0 0.1016043081
H  H223  1  0.92630000  0.91150000  0.83170000  1.0 0.120246326
H  H224  1  0.02550000  0.84550000  0.77670000  1.0 0.1294075508
H  H225  1  0.06440000  0.83570000  0.72940000  1.0 0.1108039216
H  H226  1  0.02550000  0.70200000  0.73350000  1.0 0.1016043081
H  H227  1  0.98260000  0.70800000  0.78160000  1.0 0.1294075508
H  H228  1  0.55610000  0.55520000  0.73590000  1.0 0.120246326
H  H229  1  0.60930000  0.55530000  0.68800000  1.0 0.1294075508
H  H230  1  0.50030000  0.56100000  0.65000000  1.0 0.1016043081
H  H231  1  0.33800000  0.56660000  0.66000000  1.0 0.120246326
H  H232  1  0.28470000  0.56640000  0.70790000  1.0 0.0905984386
C  C1  1  0.48000000  0.55750000  0.47170000  1.0 0.0599738474
C  C2  1  0.42130000  0.57130000  0.49560000  1.0 -0.1303797701
C  C3  1  0.46910000  0.59200000  0.52010000  1.0 0.0193853011
C  C4  1  0.56450000  0.59810000  0.51730000  1.0 -0.1219927697
C  C5  1  0.61230000  0.59090000  0.49350000  1.0 0.0411229079
C  C6  1  0.41270000  0.60000000  0.54610000  1.0 0.3605381054
C  C7  1  0.27510000  0.60070000  0.57100000  1.0 0.348706025
C  C8  1  0.40720000  0.63150000  0.59200000  1.0 0.3669978892
C  C9  1  0.17630000  0.58550000  0.57530000  1.0 0.0411229079
C  C10  1  0.12890000  0.55700000  0.55330000  1.0 -0.1303797701
C  C11  1  0.04620000  0.54280000  0.55600000  1.0 0.0311135124
C  C12  1  0.03720000  0.57360000  0.60300000  1.0 0.0599738474
C  C13  1  0.12270000  0.59290000  0.59990000  1.0 -0.1589488188
C  C14  1  0.45890000  0.65350000  0.61580000  1.0 0.0502719756
C  C15  1  0.40860000  0.67620000  0.63880000  1.0 -0.1589488188
C  C16  1  0.46430000  0.69770000  0.65960000  1.0 0.0905984386
C  C17  1  0.60060000  0.67630000  0.63960000  1.0 0.0696387074
C  C18  1  0.55560000  0.65320000  0.61780000  1.0 -0.1423308278
C  C19  1  0.38470000  0.83500000  0.91960000  1.0 0.0805435212
C  C20  1  0.40050000  0.79290000  0.90590000  1.0 -0.1684626305
C  C21  1  0.42150000  0.79510000  0.87570000  1.0 0.0599738474
C  C22  1  0.43190000  0.83900000  0.86290000  1.0 -0.1508296417
C  C23  1  0.41540000  0.87810000  0.87980000  1.0 0.0696387074
C  C24  1  0.43320000  0.75130000  0.85910000  1.0 0.348706025
C  C25  1  0.43810000  0.67500000  0.85540000  1.0 0.3605381054
C  C26  1  0.46750000  0.71850000  0.81490000  1.0 0.3815230339
C  C27  1  0.42430000  0.62760000  0.86760000  1.0 0.0502719756
C  C28  1  0.41450000  0.62370000  0.89860000  1.0 -0.1589488188
C  C29  1  0.40020000  0.58060000  0.90880000  1.0 0.0696387074
C  C30  1  0.40320000  0.54580000  0.86590000  1.0 0.0696387074
C  C31  1  0.41920000  0.58770000  0.85190000  1.0 -0.1508296417
C  C32  1  0.49580000  0.72160000  0.78440000  1.0 0.0411229079
C  C33  1  0.52430000  0.68420000  0.76850000  1.0 -0.1508296417
C  C34  1  0.55090000  0.69070000  0.74040000  1.0 0.0599738474
C  C35  1  0.52780000  0.76910000  0.74270000  1.0 0.0599738474
C  C36  1  0.49940000  0.76550000  0.77110000  1.0 -0.1303797701
C  C37  1  0.91500000  0.93920000  0.72660000  1.0 0.0411229079
C  C38  1  0.01200000  0.94250000  0.72060000  1.0 -0.1219927697
C  C39  1  0.04400000  0.94240000  0.69190000  1.0 -0.0751162419
C  C40  1  0.97900000  0.93900000  0.66920000  1.0 -0.0685294488
C  C41  1  0.88200000  0.93570000  0.67520000  1.0 -0.108408515
C  C42  1  0.85000000  0.93580000  0.70390000  1.0 -0.1423308278
C  C43  1  0.52000000  0.94250000  0.97170000  1.0 0.0599738474
C  C44  1  0.57870000  0.92870000  0.99560000  1.0 -0.1303797701
C  C45  1  0.53090000  0.90800000  0.02010000  1.0 0.0193853011
C  C46  1  0.43550000  0.90190000  0.01730000  1.0 -0.1219927697
C  C47  1  0.38770000  0.90910000  0.99350000  1.0 0.0411229079
C  C48  1  0.58730000  0.90000000  0.04610000  1.0 0.3605381054
C  C49  1  0.72490000  0.89930000  0.07100000  1.0 0.348706025
C  C50  1  0.59280000  0.86850000  0.09200000  1.0 0.3605381054
C  C51  1  0.82370000  0.91450000  0.07530000  1.0 0.0502719756
C  C52  1  0.87110000  0.94300000  0.05330000  1.0 -0.1303797701
C  C53  1  0.95380000  0.95720000  0.05600000  1.0 0.0311135124
C  C54  1  0.96280000  0.92640000  0.10300000  1.0 0.0599738474
C  C55  1  0.87730000  0.90710000  0.09990000  1.0 -0.1589488188
C  C56  1  0.54110000  0.84650000  0.11580000  1.0 0.0502719756
C  C57  1  0.59140000  0.82380000  0.13880000  1.0 -0.1589488188
C  C58  1  0.53570000  0.80230000  0.15960000  1.0 0.0905984386
C  C59  1  0.39940000  0.82370000  0.13960000  1.0 0.0696387074
C  C60  1  0.44440000  0.84680000  0.11780000  1.0 -0.1423308278
C  C61  1  0.61530000  0.66500000  0.41960000  1.0 0.0805435212
C  C62  1  0.59950000  0.70710000  0.40590000  1.0 -0.1684626305
C  C63  1  0.57850000  0.70490000  0.37570000  1.0 0.0599738474
C  C64  1  0.56810000  0.66100000  0.36290000  1.0 -0.1508296417
C  C65  1  0.58460000  0.62190000  0.37980000  1.0 0.0696387074
C  C66  1  0.56680000  0.74870000  0.35910000  1.0 0.348706025
C  C67  1  0.56190000  0.82500000  0.35540000  1.0 0.3605381054
C  C68  1  0.53250000  0.78150000  0.31490000  1.0 0.3815230339
C  C69  1  0.57570000  0.87240000  0.36760000  1.0 0.0502719756
C  C70  1  0.58550000  0.87630000  0.39860000  1.0 -0.1589488188
C  C71  1  0.59980000  0.91940000  0.40880000  1.0 0.0696387074
C  C72  1  0.59680000  0.95420000  0.36590000  1.0 0.0696387074
C  C73  1  0.58080000  0.91230000  0.35190000  1.0 -0.1508296417
C  C74  1  0.50420000  0.77840000  0.28440000  1.0 0.0411229079
C  C75  1  0.47570000  0.81580000  0.26850000  1.0 -0.1508296417
C  C76  1  0.44910000  0.80930000  0.24040000  1.0 0.0599738474
C  C77  1  0.47220000  0.73090000  0.24270000  1.0 0.0599738474
C  C78  1  0.50060000  0.73450000  0.27110000  1.0 -0.1303797701
C  C79  1  0.08500000  0.56080000  0.22660000  1.0 0.0411229079
C  C80  1  0.98800000  0.55750000  0.22060000  1.0 -0.1219927697
C  C81  1  0.95600000  0.55760000  0.19190000  1.0 -0.0751162419
C  C82  1  0.02100000  0.56100000  0.16920000  1.0 -0.0685294488
C  C83  1  0.11800000  0.56430000  0.17520000  1.0 -0.108408515
C  C84  1  0.15000000  0.56420000  0.20390000  1.0 -0.1303797701
C  C85  1  0.98000000  0.44250000  0.02830000  1.0 0.0599738474
C  C86  1  0.92130000  0.42870000  0.00440000  1.0 -0.1303797701
C  C87  1  0.96910000  0.40800000  0.97990000  1.0 0.0193853011
C  C88  1  0.06450000  0.40190000  0.98270000  1.0 -0.1219927697
C  C89  1  0.11230000  0.40910000  0.00650000  1.0 0.0411229079
C  C90  1  0.91270000  0.40000000  0.95390000  1.0 0.3605381054
C  C91  1  0.77510000  0.39930000  0.92900000  1.0 0.348706025
C  C92  1  0.90720000  0.36850000  0.90800000  1.0 0.3669978892
C  C93  1  0.67630000  0.41450000  0.92470000  1.0 0.0411229079
C  C94  1  0.62890000  0.44300000  0.94670000  1.0 -0.1303797701
C  C95  1  0.54620000  0.45720000  0.94400000  1.0 0.0311135124
C  C96  1  0.53720000  0.42640000  0.89700000  1.0 0.0599738474
C  C97  1  0.62270000  0.40710000  0.90010000  1.0 -0.1589488188
C  C98  1  0.95890000  0.34650000  0.88420000  1.0 0.0502719756
C  C99  1  0.90860000  0.32380000  0.86120000  1.0 -0.1589488188
C  C100  1  0.96430000  0.30230000  0.84040000  1.0 0.0905984386
C  C101  1  0.10060000  0.32370000  0.86040000  1.0 0.0696387074
C  C102  1  0.05560000  0.34680000  0.88220000  1.0 -0.1423308278
C  C103  1  0.88470000  0.16500000  0.58040000  1.0 0.0805435212
C  C104  1  0.90050000  0.20710000  0.59410000  1.0 -0.1684626305
C  C105  1  0.92150000  0.20490000  0.62430000  1.0 0.0599738474
C  C106  1  0.93190000  0.16100000  0.63710000  1.0 -0.1508296417
C  C107  1  0.91540000  0.12190000  0.62020000  1.0 0.0696387074
C  C108  1  0.93320000  0.24870000  0.64090000  1.0 0.348706025
C  C109  1  0.93810000  0.32500000  0.64460000  1.0 0.3605381054
C  C110  1  0.96750000  0.28150000  0.68510000  1.0 0.3815230339
C  C111  1  0.92430000  0.37240000  0.63240000  1.0 0.0502719756
C  C112  1  0.91450000  0.37630000  0.60140000  1.0 -0.1589488188
C  C113  1  0.90020000  0.41940000  0.59120000  1.0 0.0696387074
C  C114  1  0.90320000  0.45420000  0.63410000  1.0 0.0696387074
C  C115  1  0.91920000  0.41230000  0.64810000  1.0 -0.1508296417
C  C116  1  0.99580000  0.27840000  0.71560000  1.0 0.0411229079
C  C117  1  0.02430000  0.31580000  0.73150000  1.0 -0.1508296417
C  C118  1  0.05090000  0.30930000  0.75960000  1.0 0.0599738474
C  C119  1  0.02780000  0.23090000  0.75730000  1.0 0.0599738474
C  C120  1  0.99940000  0.23450000  0.72890000  1.0 -0.1303797701
C  C121  1  0.41500000  0.06080000  0.77340000  1.0 0.0411229079
C  C122  1  0.51200000  0.05750000  0.77940000  1.0 -0.1219927697
C  C123  1  0.54400000  0.05760000  0.80810000  1.0 -0.0751162419
C  C124  1  0.47900000  0.06100000  0.83080000  1.0 -0.0685294488
C  C125  1  0.38200000  0.06430000  0.82480000  1.0 -0.108408515
C  C126  1  0.35000000  0.06420000  0.79610000  1.0 -0.1303797701
C  C127  1  0.02000000  0.05750000  0.52830000  1.0 0.0599738474
C  C128  1  0.07870000  0.07130000  0.50440000  1.0 -0.1303797701
C  C129  1  0.03090000  0.09200000  0.47990000  1.0 0.0193853011
C  C130  1  0.93550000  0.09810000  0.48270000  1.0 -0.1219927697
C  C131  1  0.88770000  0.09090000  0.50650000  1.0 0.0411229079
C  C132  1  0.08730000  0.10000000  0.45390000  1.0 0.3605381054
C  C133  1  0.22490000  0.10070000  0.42900000  1.0 0.348706025
C  C134  1  0.09280000  0.13150000  0.40800000  1.0 0.3669978892
C  C135  1  0.32370000  0.08550000  0.42470000  1.0 0.0502719756
C  C136  1  0.37110000  0.05700000  0.44670000  1.0 -0.1303797701
C  C137  1  0.45380000  0.04280000  0.44400000  1.0 0.0311135124
C  C138  1  0.46280000  0.07360000  0.39700000  1.0 0.0599738474
C  C139  1  0.37730000  0.09290000  0.40010000  1.0 -0.1589488188
C  C140  1  0.04110000  0.15350000  0.38420000  1.0 0.0502719756
C  C141  1  0.09140000  0.17620000  0.36120000  1.0 -0.1589488188
C  C142  1  0.03570000  0.19770000  0.34040000  1.0 0.0905984386
C  C143  1  0.89940000  0.17630000  0.36040000  1.0 0.0696387074
C  C144  1  0.94440000  0.15320000  0.38220000  1.0 -0.1423308278
C  C145  1  0.11530000  0.33500000  0.08040000  1.0 0.0805435212
C  C146  1  0.09950000  0.29290000  0.09410000  1.0 -0.1684626305
C  C147  1  0.07850000  0.29510000  0.12430000  1.0 0.0599738474
C  C148  1  0.06810000  0.33900000  0.13710000  1.0 -0.1508296417
C  C149  1  0.08460000  0.37810000  0.12020000  1.0 0.0696387074
C  C150  1  0.06680000  0.25130000  0.14090000  1.0 0.348706025
C  C151  1  0.06190000  0.17500000  0.14460000  1.0 0.3605381054
C  C152  1  0.03250000  0.21850000  0.18510000  1.0 0.3815230339
C  C153  1  0.07570000  0.12760000  0.13240000  1.0 0.0502719756
C  C154  1  0.08550000  0.12370000  0.10140000  1.0 -0.1589488188
C  C155  1  0.09980000  0.08060000  0.09120000  1.0 0.0696387074
C  C156  1  0.09680000  0.04580000  0.13410000  1.0 0.0696387074
C  C157  1  0.08080000  0.08770000  0.14810000  1.0 -0.1508296417
C  C158  1  0.00420000  0.22160000  0.21560000  1.0 0.0411229079
C  C159  1  0.97570000  0.18420000  0.23150000  1.0 -0.1508296417
C  C160  1  0.94910000  0.19070000  0.25960000  1.0 0.0599738474
C  C161  1  0.97220000  0.26910000  0.25730000  1.0 0.0599738474
C  C162  1  0.00060000  0.26550000  0.22890000  1.0 -0.1303797701
C  C163  1  0.58500000  0.43920000  0.27340000  1.0 0.0411229079
C  C164  1  0.48800000  0.44250000  0.27940000  1.0 -0.1219927697
C  C165  1  0.45600000  0.44240000  0.30810000  1.0 -0.0751162419
C  C166  1  0.52100000  0.43900000  0.33080000  1.0 -0.0685294488
C  C167  1  0.61800000  0.43570000  0.32480000  1.0 -0.108408515
C  C168  1  0.65000000  0.43580000  0.29610000  1.0 -0.1303797701
C  C169  1  0.52000000  0.44250000  0.52830000  1.0 0.0599738474
C  C170  1  0.57870000  0.42870000  0.50440000  1.0 -0.1303797701
C  C171  1  0.53090000  0.40800000  0.47990000  1.0 0.0193853011
C  C172  1  0.43550000  0.40190000  0.48270000  1.0 -0.1219927697
C  C173  1  0.38770000  0.40910000  0.50650000  1.0 0.0411229079
C  C174  1  0.58730000  0.40000000  0.45390000  1.0 0.3605381054
C  C175  1  0.72490000  0.39930000  0.42900000  1.0 0.348706025
C  C176  1  0.59280000  0.36850000  0.40800000  1.0 0.3669978892
C  C177  1  0.82370000  0.41450000  0.42470000  1.0 0.0502719756
C  C178  1  0.87110000  0.44300000  0.44670000  1.0 -0.1303797701
C  C179  1  0.95380000  0.45720000  0.44400000  1.0 0.0311135124
C  C180  1  0.96280000  0.42640000  0.39700000  1.0 0.0599738474
C  C181  1  0.87730000  0.40710000  0.40010000  1.0 -0.1589488188
C  C182  1  0.54110000  0.34650000  0.38420000  1.0 0.0502719756
C  C183  1  0.59140000  0.32380000  0.36120000  1.0 -0.1589488188
C  C184  1  0.53570000  0.30230000  0.34040000  1.0 0.0905984386
C  C185  1  0.39940000  0.32370000  0.36040000  1.0 0.0696387074
C  C186  1  0.44440000  0.34680000  0.38220000  1.0 -0.1423308278
C  C187  1  0.61530000  0.16500000  0.08040000  1.0 0.0805435212
C  C188  1  0.59950000  0.20710000  0.09410000  1.0 -0.1684626305
C  C189  1  0.57850000  0.20490000  0.12430000  1.0 0.0599738474
C  C190  1  0.56810000  0.16100000  0.13710000  1.0 -0.1508296417
C  C191  1  0.58460000  0.12190000  0.12020000  1.0 0.0696387074
C  C192  1  0.56680000  0.24870000  0.14090000  1.0 0.348706025
C  C193  1  0.56190000  0.32500000  0.14460000  1.0 0.3605381054
C  C194  1  0.53250000  0.28150000  0.18510000  1.0 0.3815230339
C  C195  1  0.57570000  0.37240000  0.13240000  1.0 0.0502719756
C  C196  1  0.58550000  0.37630000  0.10140000  1.0 -0.1589488188
C  C197  1  0.59980000  0.41940000  0.09120000  1.0 0.0696387074
C  C198  1  0.59680000  0.45420000  0.13410000  1.0 0.0696387074
C  C199  1  0.58080000  0.41230000  0.14810000  1.0 -0.1508296417
C  C200  1  0.50420000  0.27840000  0.21560000  1.0 0.0411229079
C  C201  1  0.47570000  0.31580000  0.23150000  1.0 -0.1508296417
C  C202  1  0.44910000  0.30930000  0.25960000  1.0 0.0599738474
C  C203  1  0.47220000  0.23090000  0.25730000  1.0 0.0599738474
C  C204  1  0.50060000  0.23450000  0.22890000  1.0 -0.1303797701
C  C205  1  0.08500000  0.06080000  0.27340000  1.0 0.0411229079
C  C206  1  0.98800000  0.05750000  0.27940000  1.0 -0.1219927697
C  C207  1  0.95600000  0.05760000  0.30810000  1.0 -0.0685294488
C  C208  1  0.02100000  0.06100000  0.33080000  1.0 -0.0685294488
C  C209  1  0.11800000  0.06430000  0.32480000  1.0 -0.108408515
C  C210  1  0.15000000  0.06420000  0.29610000  1.0 -0.1303797701
C  C211  1  0.48000000  0.05750000  0.02830000  1.0 0.0599738474
C  C212  1  0.42130000  0.07130000  0.00440000  1.0 -0.1303797701
C  C213  1  0.46910000  0.09200000  0.97990000  1.0 0.0193853011
C  C214  1  0.56450000  0.09810000  0.98270000  1.0 -0.1219927697
C  C215  1  0.61230000  0.09090000  0.00650000  1.0 0.0411229079
C  C216  1  0.41270000  0.10000000  0.95390000  1.0 0.3605381054
C  C217  1  0.27510000  0.10070000  0.92900000  1.0 0.348706025
C  C218  1  0.40720000  0.13150000  0.90800000  1.0 0.3669978892
C  C219  1  0.17630000  0.08550000  0.92470000  1.0 0.0411229079
C  C220  1  0.12890000  0.05700000  0.94670000  1.0 -0.1303797701
C  C221  1  0.04620000  0.04280000  0.94400000  1.0 0.0311135124
C  C222  1  0.03720000  0.07360000  0.89700000  1.0 0.0599738474
C  C223  1  0.12270000  0.09290000  0.90010000  1.0 -0.1589488188
C  C224  1  0.45890000  0.15350000  0.88420000  1.0 0.0502719756
C  C225  1  0.40860000  0.17620000  0.86120000  1.0 -0.1589488188
C  C226  1  0.46430000  0.19770000  0.84040000  1.0 0.0905984386
C  C227  1  0.60060000  0.17630000  0.86040000  1.0 0.0696387074
C  C228  1  0.55560000  0.15320000  0.88220000  1.0 -0.1423308278
C  C229  1  0.38470000  0.33500000  0.58040000  1.0 0.0805435212
C  C230  1  0.40050000  0.29290000  0.59410000  1.0 -0.1684626305
C  C231  1  0.42150000  0.29510000  0.62430000  1.0 0.0599738474
C  C232  1  0.43190000  0.33900000  0.63710000  1.0 -0.1508296417
C  C233  1  0.41540000  0.37810000  0.62020000  1.0 0.0696387074
C  C234  1  0.43320000  0.25130000  0.64090000  1.0 0.348706025
C  C235  1  0.43810000  0.17500000  0.64460000  1.0 0.3605381054
C  C236  1  0.46750000  0.21850000  0.68510000  1.0 0.3815230339
C  C237  1  0.42430000  0.12760000  0.63240000  1.0 0.0502719756
C  C238  1  0.41450000  0.12370000  0.60140000  1.0 -0.1589488188
C  C239  1  0.40020000  0.08060000  0.59120000  1.0 0.0696387074
C  C240  1  0.40320000  0.04580000  0.63410000  1.0 0.0696387074
C  C241  1  0.41920000  0.08770000  0.64810000  1.0 -0.1508296417
C  C242  1  0.49580000  0.22160000  0.71560000  1.0 0.0411229079
C  C243  1  0.52430000  0.18420000  0.73150000  1.0 -0.1508296417
C  C244  1  0.55090000  0.19070000  0.75960000  1.0 0.0599738474
C  C245  1  0.52780000  0.26910000  0.75730000  1.0 0.0599738474
C  C246  1  0.49940000  0.26550000  0.72890000  1.0 -0.1303797701
C  C247  1  0.91500000  0.43920000  0.77340000  1.0 0.0411229079
C  C248  1  0.01200000  0.44250000  0.77940000  1.0 -0.1219927697
C  C249  1  0.04400000  0.44240000  0.80810000  1.0 -0.0751162419
C  C250  1  0.97900000  0.43900000  0.83080000  1.0 -0.0685294488
C  C251  1  0.88200000  0.43570000  0.82480000  1.0 -0.108408515
C  C252  1  0.85000000  0.43580000  0.79610000  1.0 -0.1303797701
C  C253  1  0.02000000  0.55750000  0.97170000  1.0 0.0599738474
C  C254  1  0.07870000  0.57130000  0.99560000  1.0 -0.1303797701
C  C255  1  0.03090000  0.59200000  0.02010000  1.0 0.0193853011
C  C256  1  0.93550000  0.59810000  0.01730000  1.0 -0.1219927697
C  C257  1  0.88770000  0.59090000  0.99350000  1.0 0.0411229079
C  C258  1  0.08730000  0.60000000  0.04610000  1.0 0.3605381054
C  C259  1  0.22490000  0.60070000  0.07100000  1.0 0.348706025
C  C260  1  0.09280000  0.63150000  0.09200000  1.0 0.3605381054
C  C261  1  0.32370000  0.58550000  0.07530000  1.0 0.0502719756
C  C262  1  0.37110000  0.55700000  0.05330000  1.0 -0.1303797701
C  C263  1  0.45380000  0.54280000  0.05600000  1.0 0.0311135124
C  C264  1  0.46280000  0.57360000  0.10300000  1.0 0.0599738474
C  C265  1  0.37730000  0.59290000  0.09990000  1.0 -0.1589488188
C  C266  1  0.04110000  0.65350000  0.11580000  1.0 0.0502719756
C  C267  1  0.09140000  0.67620000  0.13880000  1.0 -0.1589488188
C  C268  1  0.03570000  0.69770000  0.15960000  1.0 0.0905984386
C  C269  1  0.89940000  0.67630000  0.13960000  1.0 0.0696387074
C  C270  1  0.94440000  0.65320000  0.11780000  1.0 -0.1423308278
C  C271  1  0.11530000  0.83500000  0.41960000  1.0 0.0805435212
C  C272  1  0.09950000  0.79290000  0.40590000  1.0 -0.1684626305
C  C273  1  0.07850000  0.79510000  0.37570000  1.0 0.0599738474
C  C274  1  0.06810000  0.83900000  0.36290000  1.0 -0.1508296417
C  C275  1  0.08460000  0.87810000  0.37980000  1.0 0.0696387074
C  C276  1  0.06680000  0.75130000  0.35910000  1.0 0.348706025
C  C277  1  0.06190000  0.67500000  0.35540000  1.0 0.3605381054
C  C278  1  0.03250000  0.71850000  0.31490000  1.0 0.3815230339
C  C279  1  0.07570000  0.62760000  0.36760000  1.0 0.0502719756
C  C280  1  0.08550000  0.62370000  0.39860000  1.0 -0.1589488188
C  C281  1  0.09980000  0.58060000  0.40880000  1.0 0.0696387074
C  C282  1  0.09680000  0.54580000  0.36590000  1.0 0.0696387074
C  C283  1  0.08080000  0.58770000  0.35190000  1.0 -0.1508296417
C  C284  1  0.00420000  0.72160000  0.28440000  1.0 0.0411229079
C  C285  1  0.97570000  0.68420000  0.26850000  1.0 -0.1508296417
C  C286  1  0.94910000  0.69070000  0.24040000  1.0 0.0599738474
C  C287  1  0.97220000  0.76910000  0.24270000  1.0 0.0599738474
C  C288  1  0.00060000  0.76550000  0.27110000  1.0 -0.1303797701
C  C289  1  0.58500000  0.93920000  0.22660000  1.0 0.0411229079
C  C290  1  0.48800000  0.94250000  0.22060000  1.0 -0.1219927697
C  C291  1  0.45600000  0.94240000  0.19190000  1.0 -0.0685294488
C  C292  1  0.52100000  0.93900000  0.16920000  1.0 -0.0685294488
C  C293  1  0.61800000  0.93570000  0.17520000  1.0 -0.108408515
C  C294  1  0.65000000  0.93580000  0.20390000  1.0 -0.1303797701
C  C295  1  0.98000000  0.94250000  0.47170000  1.0 0.0599738474
C  C296  1  0.92130000  0.92870000  0.49560000  1.0 -0.1303797701
C  C297  1  0.96910000  0.90800000  0.52010000  1.0 0.0193853011
C  C298  1  0.06450000  0.90190000  0.51730000  1.0 -0.1219927697
C  C299  1  0.11230000  0.90910000  0.49350000  1.0 0.0411229079
C  C300  1  0.91270000  0.90000000  0.54610000  1.0 0.3605381054
C  C301  1  0.77510000  0.89930000  0.57100000  1.0 0.348706025
C  C302  1  0.90720000  0.86850000  0.59200000  1.0 0.3605381054
C  C303  1  0.67630000  0.91450000  0.57530000  1.0 0.0502719756
C  C304  1  0.62890000  0.94300000  0.55330000  1.0 -0.1303797701
C  C305  1  0.54620000  0.95720000  0.55600000  1.0 0.0311135124
C  C306  1  0.53720000  0.92640000  0.60300000  1.0 0.0599738474
C  C307  1  0.62270000  0.90710000  0.59990000  1.0 -0.1589488188
C  C308  1  0.95890000  0.84650000  0.61580000  1.0 0.0502719756
C  C309  1  0.90860000  0.82380000  0.63880000  1.0 -0.1589488188
C  C310  1  0.96430000  0.80230000  0.65960000  1.0 0.0905984386
C  C311  1  0.10060000  0.82370000  0.63960000  1.0 0.0696387074
C  C312  1  0.05560000  0.84680000  0.61780000  1.0 -0.1423308278
C  C313  1  0.88470000  0.66500000  0.91960000  1.0 0.0805435212
C  C314  1  0.90050000  0.70710000  0.90590000  1.0 -0.1684626305
C  C315  1  0.92150000  0.70490000  0.87570000  1.0 0.0599738474
C  C316  1  0.93190000  0.66100000  0.86290000  1.0 -0.1508296417
C  C317  1  0.91540000  0.62190000  0.87980000  1.0 0.0696387074
C  C318  1  0.93320000  0.74870000  0.85910000  1.0 0.348706025
C  C319  1  0.93810000  0.82500000  0.85540000  1.0 0.3605381054
C  C320  1  0.96750000  0.78150000  0.81490000  1.0 0.3815230339
C  C321  1  0.92430000  0.87240000  0.86760000  1.0 0.0502719756
C  C322  1  0.91450000  0.87630000  0.89860000  1.0 -0.1589488188
C  C323  1  0.90020000  0.91940000  0.90880000  1.0 0.0696387074
C  C324  1  0.90320000  0.95420000  0.86590000  1.0 0.0696387074
C  C325  1  0.91920000  0.91230000  0.85190000  1.0 -0.1508296417
C  C326  1  0.99580000  0.77840000  0.78440000  1.0 0.0411229079
C  C327  1  0.02430000  0.81580000  0.76850000  1.0 -0.1508296417
C  C328  1  0.05090000  0.80930000  0.74040000  1.0 0.0599738474
C  C329  1  0.02780000  0.73090000  0.74270000  1.0 0.0599738474
C  C330  1  0.99940000  0.73450000  0.77110000  1.0 -0.1303797701
C  C331  1  0.41500000  0.56080000  0.72660000  1.0 0.0411229079
C  C332  1  0.51200000  0.55750000  0.72060000  1.0 -0.1219927697
C  C333  1  0.54400000  0.55760000  0.69190000  1.0 -0.0751162419
C  C334  1  0.47900000  0.56100000  0.66920000  1.0 -0.0685294488
C  C335  1  0.38200000  0.56430000  0.67520000  1.0 -0.108408515
C  C336  1  0.35000000  0.56420000  0.70390000  1.0 -0.1423308278
I  I1  1  0.56108000  0.49752000  0.40301000  1.0 -0.3026703658
I  I2  1  0.82079000  0.57068000  0.44110000  1.0 -0.3783703098
I  I3  1  0.76754000  0.56694000  0.62533000  1.0 -0.450615087
I  I4  1  0.78735000  0.50432000  0.53681000  1.0 -0.4604944224
I  I5  1  0.79559000  0.70253000  0.69515000  1.0 -0.4604944224
I  I6  1  0.62580000  0.82392000  0.67213000  1.0 -0.2859340434
I  I7  1  0.83150000  0.54780000  0.37080000  1.0 0.0411229079
I  I8  1  0.86660000  0.55240000  0.31000000  1.0 0.0193853011
I  I9  1  0.72850000  0.49700000  0.36160000  1.0 0.0599738474
I  I10  1  0.88400000  0.49660000  0.32290000  1.0 0.0079936125
I  I11  1  0.74260000  0.87240000  0.71826000  1.0 0.0311135124
I  I12  1  0.84810000  0.92060000  0.76070000  1.0 0.3872362947
I  I13  1  0.43892000  0.00248000  0.90301000  1.0 -0.3026703658
I  I14  1  0.17921000  0.92932000  0.94110000  1.0 -0.3783703098
I  I15  1  0.23246000  0.93306000  0.12533000  1.0 -0.450615087
I  I16  1  0.21265000  0.99568000  0.03681000  1.0 -0.450615087
I  I17  1  0.20441000  0.79747000  0.19515000  1.0 -0.4604944224
I  I18  1  0.37420000  0.67608000  0.17213000  1.0 -0.2859340434
I  I19  1  0.16850000  0.95220000  0.87080000  1.0 0.0411229079
I  I20  1  0.13340000  0.94760000  0.81000000  1.0 0.0079936125
I  I21  1  0.27150000  0.00300000  0.86160000  1.0 0.0696387074
I  I22  1  0.11600000  0.00340000  0.82290000  1.0 0.00442055
I  I23  1  0.25740000  0.62760000  0.21826000  1.0 0.0193853011
I  I24  1  0.15190000  0.57940000  0.26070000  1.0 0.3872362947
I  I25  1  0.06108000  0.50248000  0.09699000  1.0 -0.3026703658
I  I26  1  0.32079000  0.42932000  0.05890000  1.0 -0.3783703098
I  I27  1  0.26754000  0.43306000  0.87467000  1.0 -0.450615087
I  I28  1  0.28735000  0.49568000  0.96319000  1.0 -0.450615087
I  I29  1  0.29559000  0.29747000  0.80485000  1.0 -0.4604944224
I  I30  1  0.12580000  0.17608000  0.82787000  1.0 -0.2843980515
I  I31  1  0.33150000  0.45220000  0.12920000  1.0 0.0311135124
I  I32  1  0.36660000  0.44760000  0.19000000  1.0 0.0079936125
I  I33  1  0.22850000  0.50300000  0.13840000  1.0 0.0599738474
I  I34  1  0.38400000  0.50340000  0.17710000  1.0 0.0079936125
I  I35  1  0.24260000  0.12760000  0.78174000  1.0 0.0193853011
I  I36  1  0.34810000  0.07940000  0.73930000  1.0 0.3872362947
I  I37  1  0.93892000  0.99752000  0.59699000  1.0 -0.3026703658
I  I38  1  0.67921000  0.07068000  0.55890000  1.0 -0.3783703098
I  I39  1  0.73246000  0.06694000  0.37467000  1.0 -0.450615087
I  I40  1  0.71265000  0.00432000  0.46319000  1.0 -0.450615087
I  I41  1  0.70441000  0.20253000  0.30485000  1.0 -0.4604944224
I  I42  1  0.87420000  0.32392000  0.32787000  1.0 -0.2859340434
I  I43  1  0.66850000  0.04780000  0.62920000  1.0 0.0411229079
I  I44  1  0.63340000  0.05240000  0.69000000  1.0 0.0193853011
I  I45  1  0.77150000  0.99700000  0.63840000  1.0 0.0599738474
I  I46  1  0.61600000  0.99660000  0.67710000  1.0 0.0079936125
I  I47  1  0.75740000  0.37240000  0.28174000  1.0 0.0193853011
I  I48  1  0.65190000  0.42060000  0.23930000  1.0 0.3872362947
I  I49  1  0.43892000  0.50248000  0.59699000  1.0 -0.3026703658
I  I50  1  0.17921000  0.42932000  0.55890000  1.0 -0.3783703098
I  I51  1  0.23246000  0.43306000  0.37467000  1.0 -0.450615087
I  I52  1  0.21265000  0.49568000  0.46319000  1.0 -0.450615087
I  I53  1  0.20441000  0.29747000  0.30485000  1.0 -0.4604944224
I  I54  1  0.37420000  0.17608000  0.32787000  1.0 -0.2859340434
I  I55  1  0.16850000  0.45220000  0.62920000  1.0 0.0411229079
I  I56  1  0.13340000  0.44760000  0.69000000  1.0 0.0193853011
I  I57  1  0.27150000  0.50300000  0.63840000  1.0 0.0599738474
I  I58  1  0.11600000  0.50340000  0.67710000  1.0 0.0079936125
I  I59  1  0.25740000  0.12760000  0.28174000  1.0 0.0193853011
I  I60  1  0.15190000  0.07940000  0.23930000  1.0 0.3872362947
I  I61  1  0.56108000  0.99752000  0.09699000  1.0 -0.3026703658
I  I62  1  0.82079000  0.07068000  0.05890000  1.0 -0.3783703098
I  I63  1  0.76754000  0.06694000  0.87467000  1.0 -0.450615087
I  I64  1  0.78735000  0.00432000  0.96319000  1.0 -0.450615087
I  I65  1  0.79559000  0.20253000  0.80485000  1.0 -0.4604944224
I  I66  1  0.62580000  0.32392000  0.82787000  1.0 -0.2843980515
I  I67  1  0.83150000  0.04780000  0.12920000  1.0 0.0311135124
I  I68  1  0.86660000  0.05240000  0.19000000  1.0 0.0079936125
I  I69  1  0.72850000  0.99700000  0.13840000  1.0 0.0599738474
I  I70  1  0.88400000  0.99660000  0.17710000  1.0 0.0079936125
I  I71  1  0.74260000  0.37240000  0.78174000  1.0 0.0193853011
I  I72  1  0.84810000  0.42060000  0.73930000  1.0 0.3872362947
I  I73  1  0.93892000  0.49752000  0.90301000  1.0 -0.3026703658
I  I74  1  0.67921000  0.57068000  0.94110000  1.0 -0.3783703098
I  I75  1  0.73246000  0.56694000  0.12533000  1.0 -0.450615087
I  I76  1  0.71265000  0.50432000  0.03681000  1.0 -0.4604944224
I  I77  1  0.70441000  0.70253000  0.19515000  1.0 -0.4604944224
I  I78  1  0.87420000  0.82392000  0.17213000  1.0 -0.2859340434
I  I79  1  0.66850000  0.54780000  0.87080000  1.0 0.0411229079
I  I80  1  0.63340000  0.55240000  0.81000000  1.0 0.0193853011
I  I81  1  0.77150000  0.49700000  0.86160000  1.0 0.0696387074
I  I82  1  0.61600000  0.49660000  0.82290000  1.0 0.0079936125
I  I83  1  0.75740000  0.87240000  0.21826000  1.0 0.0193853011
I  I84  1  0.65190000  0.92060000  0.26070000  1.0 0.3872362947
I  I85  1  0.06108000  0.00248000  0.40301000  1.0 -0.3026703658
I  I86  1  0.32079000  0.92932000  0.44110000  1.0 -0.3783703098
I  I87  1  0.26754000  0.93306000  0.62533000  1.0 -0.450615087
I  I88  1  0.28735000  0.99568000  0.53681000  1.0 -0.450615087
I  I89  1  0.29559000  0.79747000  0.69515000  1.0 -0.4604944224
I  I90  1  0.12580000  0.67608000  0.67213000  1.0 -0.2859340434
I  I91  1  0.33150000  0.95220000  0.37080000  1.0 0.0311135124
I  I92  1  0.36660000  0.94760000  0.31000000  1.0 0.0193853011
I  I93  1  0.22850000  0.00300000  0.36160000  1.0 0.0599738474
I  I94  1  0.38400000  0.00340000  0.32290000  1.0 0.0079936125
I  I95  1  0.24260000  0.62760000  0.71826000  1.0 0.0311135124
I  I96  1  0.34810000  0.57940000  0.76070000  1.0 0.3815230339
N  N1  1  0.57460000  0.57220000  0.46810000  1.0 -0.2169632787
N  N2  1  0.32100000  0.58970000  0.54760000  1.0 -0.3672074458
N  N3  1  0.31610000  0.62230000  0.59540000  1.0 -0.3886151822
N  N4  1  0.45990000  0.62270000  0.56760000  1.0 -0.3956367622
N  N5  1  0.98990000  0.55270000  0.58090000  1.0 -0.1765478948
N  N6  1  0.55500000  0.69740000  0.66030000  1.0 -0.19298227
N  N7  1  0.39510000  0.87610000  0.90760000  1.0 -0.1765478948
N  N8  1  0.42210000  0.71290000  0.87130000  1.0 -0.3672074458
N  N9  1  0.45810000  0.67550000  0.82600000  1.0 -0.4061328644
N  N10  1  0.45500000  0.75760000  0.83000000  1.0 -0.4217534239
N  N11  1  0.39400000  0.54250000  0.89390000  1.0 -0.1765478948
N  N12  1  0.55910000  0.73170000  0.72750000  1.0 -0.1765478948
N  N13  1  0.88500000  0.93930000  0.75390000  1.0 0.0599738474
N  N14  1  0.42540000  0.92780000  0.96810000  1.0 -0.2169632787
N  N15  1  0.67900000  0.91030000  0.04760000  1.0 -0.3672074458
N  N16  1  0.68390000  0.87770000  0.09540000  1.0 -0.3886151822
N  N17  1  0.54010000  0.87730000  0.06760000  1.0 -0.3956367622
N  N18  1  0.01010000  0.94730000  0.08090000  1.0 -0.1765478948
N  N19  1  0.44500000  0.80260000  0.16030000  1.0 -0.19298227
N  N20  1  0.60490000  0.62390000  0.40760000  1.0 -0.1765478948
N  N21  1  0.57790000  0.78710000  0.37130000  1.0 -0.3672074458
N  N22  1  0.54190000  0.82450000  0.32600000  1.0 -0.4061328644
N  N23  1  0.54500000  0.74240000  0.33000000  1.0 -0.4217534239
N  N24  1  0.60600000  0.95750000  0.39390000  1.0 -0.1765478948
N  N25  1  0.44090000  0.76830000  0.22750000  1.0 -0.1765478948
N  N26  1  0.11500000  0.56070000  0.25390000  1.0 0.0599738474
N  N27  1  0.07460000  0.42780000  0.03190000  1.0 -0.2143224949
N  N28  1  0.82100000  0.41030000  0.95240000  1.0 -0.3672074458
N  N29  1  0.81610000  0.37770000  0.90460000  1.0 -0.3886151822
N  N30  1  0.95990000  0.37730000  0.93240000  1.0 -0.3956367622
N  N31  1  0.48990000  0.44730000  0.91910000  1.0 -0.1765478948
N  N32  1  0.05500000  0.30260000  0.83970000  1.0 -0.19298227
N  N33  1  0.89510000  0.12390000  0.59240000  1.0 -0.1765478948
N  N34  1  0.92210000  0.28710000  0.62870000  1.0 -0.3672074458
N  N35  1  0.95810000  0.32450000  0.67400000  1.0 -0.4061328644
N  N36  1  0.95500000  0.24240000  0.67000000  1.0 -0.4217534239
N  N37  1  0.89400000  0.45750000  0.60610000  1.0 -0.1765478948
N  N38  1  0.05910000  0.26830000  0.77250000  1.0 -0.1765478948
N  N39  1  0.38500000  0.06070000  0.74610000  1.0 0.0502719756
N  N40  1  0.92540000  0.07220000  0.53190000  1.0 -0.2143224949
N  N41  1  0.17900000  0.08970000  0.45240000  1.0 -0.3672074458
N  N42  1  0.18390000  0.12230000  0.40460000  1.0 -0.3886151822
N  N43  1  0.04010000  0.12270000  0.43240000  1.0 -0.3956367622
N  N44  1  0.51010000  0.05270000  0.41910000  1.0 -0.1765478948
N  N45  1  0.94500000  0.19740000  0.33970000  1.0 -0.19298227
N  N46  1  0.10490000  0.37610000  0.09240000  1.0 -0.1765478948
N  N47  1  0.07790000  0.21290000  0.12870000  1.0 -0.3672074458
N  N48  1  0.04190000  0.17550000  0.17400000  1.0 -0.4061328644
N  N49  1  0.04500000  0.25760000  0.17000000  1.0 -0.4217534239
N  N50  1  0.10600000  0.04250000  0.10610000  1.0 -0.1765478948
N  N51  1  0.94090000  0.23170000  0.27250000  1.0 -0.1765478948
N  N52  1  0.61500000  0.43930000  0.24610000  1.0 0.0599738474
N  N53  1  0.42540000  0.42780000  0.53190000  1.0 -0.2143224949
N  N54  1  0.67900000  0.41030000  0.45240000  1.0 -0.3672074458
N  N55  1  0.68390000  0.37770000  0.40460000  1.0 -0.3886151822
N  N56  1  0.54010000  0.37730000  0.43240000  1.0 -0.3956367622
N  N57  1  0.01010000  0.44730000  0.41910000  1.0 -0.1765478948
N  N58  1  0.44500000  0.30260000  0.33970000  1.0 -0.19298227
N  N59  1  0.60490000  0.12390000  0.09240000  1.0 -0.1765478948
N  N60  1  0.57790000  0.28710000  0.12870000  1.0 -0.3672074458
N  N61  1  0.54190000  0.32450000  0.17400000  1.0 -0.4061328644
N  N62  1  0.54500000  0.24240000  0.17000000  1.0 -0.4217534239
N  N63  1  0.60600000  0.45750000  0.10610000  1.0 -0.1765478948
N  N64  1  0.44090000  0.26830000  0.27250000  1.0 -0.1765478948
N  N65  1  0.11500000  0.06070000  0.24610000  1.0 0.0599738474
N  N66  1  0.57460000  0.07220000  0.03190000  1.0 -0.2143224949
N  N67  1  0.32100000  0.08970000  0.95240000  1.0 -0.3672074458
N  N68  1  0.31610000  0.12230000  0.90460000  1.0 -0.3886151822
N  N69  1  0.45990000  0.12270000  0.93240000  1.0 -0.3956367622
N  N70  1  0.98990000  0.05270000  0.91910000  1.0 -0.1765478948
N  N71  1  0.55500000  0.19740000  0.83970000  1.0 -0.19298227
N  N72  1  0.39510000  0.37610000  0.59240000  1.0 -0.1765478948
N  N73  1  0.42210000  0.21290000  0.62870000  1.0 -0.3672074458
N  N74  1  0.45810000  0.17550000  0.67400000  1.0 -0.4061328644
N  N75  1  0.45500000  0.25760000  0.67000000  1.0 -0.4217534239
N  N76  1  0.39400000  0.04250000  0.60610000  1.0 -0.1765478948
N  N77  1  0.55910000  0.23170000  0.77250000  1.0 -0.1684626305
N  N78  1  0.88500000  0.43930000  0.74610000  1.0 0.0502719756
N  N79  1  0.92540000  0.57220000  0.96810000  1.0 -0.2169632787
N  N80  1  0.17900000  0.58970000  0.04760000  1.0 -0.3672074458
N  N81  1  0.18390000  0.62230000  0.09540000  1.0 -0.3886151822
N  N82  1  0.04010000  0.62270000  0.06760000  1.0 -0.3956367622
N  N83  1  0.51010000  0.55270000  0.08090000  1.0 -0.1765478948
N  N84  1  0.94500000  0.69740000  0.16030000  1.0 -0.19298227
N  N85  1  0.10490000  0.87610000  0.40760000  1.0 -0.1765478948
N  N86  1  0.07790000  0.71290000  0.37130000  1.0 -0.3672074458
N  N87  1  0.04190000  0.67550000  0.32600000  1.0 -0.4061328644
N  N88  1  0.04500000  0.75760000  0.33000000  1.0 -0.4217534239
N  N89  1  0.10600000  0.54250000  0.39390000  1.0 -0.1765478948
N  N90  1  0.94090000  0.73170000  0.22750000  1.0 -0.1765478948
N  N91  1  0.61500000  0.93930000  0.25390000  1.0 0.0599738474
N  N92  1  0.07460000  0.92780000  0.46810000  1.0 -0.2169632787
N  N93  1  0.82100000  0.91030000  0.54760000  1.0 -0.3672074458
N  N94  1  0.81610000  0.87770000  0.59540000  1.0 -0.3886151822
N  N95  1  0.95990000  0.87730000  0.56760000  1.0 -0.3956367622
N  N96  1  0.48990000  0.94730000  0.58090000  1.0 -0.1765478948
N  N97  1  0.05500000  0.80260000  0.66030000  1.0 -0.19298227
N  N98  1  0.89510000  0.62390000  0.90760000  1.0 -0.1765478948
N  N99  1  0.92210000  0.78710000  0.87130000  1.0 -0.3672074458
N  N100  1  0.95810000  0.82450000  0.82600000  1.0 -0.4061328644
N  N101  1  0.95500000  0.74240000  0.83000000  1.0 -0.4217534239
N  N102  1  0.89400000  0.95750000  0.89390000  1.0 -0.1684626305
N  N103  1  0.05910000  0.76830000  0.72750000  1.0 -0.1765478948
N  N104  1  0.38500000  0.56070000  0.75390000  1.0 0.0599738474
O  O1  1  0.79500000  0.93620000  0.75910000  1.0 -0.2709373595
O  O2  1  0.94700000  0.94250000  0.77450000  1.0 -0.3093093397
O  O3  1  0.20500000  0.56380000  0.25910000  1.0 -0.2709373595
O  O4  1  0.05300000  0.55750000  0.27450000  1.0 -0.3093093397
O  O5  1  0.29500000  0.06380000  0.74090000  1.0 -0.2709373595
O  O6  1  0.44700000  0.05750000  0.72550000  1.0 -0.3093093397
O  O7  1  0.70500000  0.43620000  0.24090000  1.0 -0.2709373595
O  O8  1  0.55300000  0.44250000  0.22550000  1.0 -0.3093093397
O  O9  1  0.20500000  0.06380000  0.24090000  1.0 -0.2709373595
O  O10  1  0.05300000  0.05750000  0.22550000  1.0 -0.3093093397
O  O11  1  0.79500000  0.43620000  0.74090000  1.0 -0.2709373595
O  O12  1  0.94700000  0.44250000  0.72550000  1.0 -0.3093093397
O  O13  1  0.70500000  0.93620000  0.25910000  1.0 -0.2709373595
O  O14  1  0.55300000  0.94250000  0.27450000  1.0 -0.3093093397
O  O15  1  0.29500000  0.56380000  0.75910000  1.0 -0.2709373595
O  O16  1  0.44700000  0.55750000  0.77450000  1.0 -0.3093093397
