# DDEC6 charges by PACMAN v1.1 (https://github.com/mtap-research/PACMAN-charge/)
data_KEXFAU_FSR_pacman
_symmetry_space_group_name_H-M   'P 1'
_cell_length_a   14.99970000
_cell_length_b   14.99970000
_cell_length_c   17.23900000
_cell_angle_alpha   74.69440000
_cell_angle_beta   105.30600000
_cell_angle_gamma   144.73500000
_symmetry_Int_Tables_number   1
_chemical_formula_structural   CdNiH44(C11N4)2
_chemical_formula_sum   'Cd2 Ni2 H88 C44 N16'
_cell_volume   2151.74031598
_cell_formula_units_Z   2
loop_
 _symmetry_equiv_pos_site_id
 _symmetry_equiv_pos_as_xyz
  1  'x, y, z'
loop_
 _atom_site_type_symbol
 _atom_site_label
 _atom_site_symmetry_multiplicity
 _atom_site_fract_x
 _atom_site_fract_y
 _atom_site_fract_z
 _atom_site_occupancy
 _atom_site_charge
Cd  Cd1  1  0.00000000  0.00000000  0.00000000  1.0 0.7843086238
Cd  Cd2  1  0.00000000  0.00000000  0.50000000  1.0 0.7843086238
Ni  Ni1  1  0.65746000  0.65746000  0.75000000  1.0 0.1219934886
Ni  Ni2  1  0.34254000  0.34254000  0.25000000  1.0 0.1219934886
H  H1  1  0.80400000  0.95600000  0.04900000  1.0 0.1925806965
H  H2  1  0.95600000  0.80400000  0.45100000  1.0 0.1925806965
H  H3  1  0.19600000  0.04400000  0.95100000  1.0 0.1925806965
H  H4  1  0.04400000  0.19600000  0.54900000  1.0 0.1925806965
H  H5  1  0.73700000  0.82100000  0.06500000  1.0 0.2268106307
H  H6  1  0.82100000  0.73700000  0.43500000  1.0 0.2268106307
H  H7  1  0.26300000  0.17900000  0.93500000  1.0 0.2268106307
H  H8  1  0.17900000  0.26300000  0.56500000  1.0 0.2268106307
H  H9  1  0.62200000  0.76200000  0.94100000  1.0 0.1074164047
H  H10  1  0.76200000  0.62200000  0.55900000  1.0 0.1074164047
H  H11  1  0.37800000  0.23800000  0.05900000  1.0 0.1074164047
H  H12  1  0.23800000  0.37800000  0.44100000  1.0 0.1074164047
H  H13  1  0.57300000  0.78500000  0.99400000  1.0 0.0866613978
H  H14  1  0.78500000  0.57300000  0.50600000  1.0 0.0866613978
H  H15  1  0.42700000  0.21500000  0.00600000  1.0 0.0866613978
H  H16  1  0.21500000  0.42700000  0.49400000  1.0 0.0866613978
H  H17  1  0.78400000  0.01000000  0.87600000  1.0 0.1074164047
H  H18  1  0.01000000  0.78400000  0.62400000  1.0 0.1074164047
H  H19  1  0.21600000  0.99000000  0.12400000  1.0 0.1074164047
H  H20  1  0.99000000  0.21600000  0.37600000  1.0 0.1074164047
H  H21  1  0.75100000  0.03500000  0.94000000  1.0 0.1074164047
H  H22  1  0.03500000  0.75100000  0.56000000  1.0 0.1074164047
H  H23  1  0.24900000  0.96500000  0.06000000  1.0 0.1074164047
H  H24  1  0.96500000  0.24900000  0.44000000  1.0 0.1074164047
H  H25  1  0.53700000  0.84300000  0.81800000  1.0 0.1074164047
H  H26  1  0.84300000  0.53700000  0.68200000  1.0 0.1074164047
H  H27  1  0.46300000  0.15700000  0.18200000  1.0 0.1074164047
H  H28  1  0.15700000  0.46300000  0.31800000  1.0 0.1074164047
H  H29  1  0.49000000  0.84800000  0.88000000  1.0 0.1002608955
H  H30  1  0.84800000  0.49000000  0.62000000  1.0 0.1002608955
H  H31  1  0.51000000  0.15200000  0.12000000  1.0 0.1002608955
H  H32  1  0.15200000  0.51000000  0.38000000  1.0 0.1002608955
H  H33  1  0.66100000  0.10300000  0.83000000  1.0 0.1002608955
H  H34  1  0.10300000  0.66100000  0.67000000  1.0 0.1002608955
H  H35  1  0.33900000  0.89700000  0.17000000  1.0 0.1002608955
H  H36  1  0.89700000  0.33900000  0.33000000  1.0 0.1002608955
H  H37  1  0.70000000  0.08800000  0.76300000  1.0 0.1002608955
H  H38  1  0.08800000  0.70000000  0.73700000  1.0 0.1002608955
H  H39  1  0.30000000  0.91200000  0.23700000  1.0 0.1002608955
H  H40  1  0.91200000  0.30000000  0.26300000  1.0 0.1002608955
H  H41  1  0.44100000  0.91100000  0.70900000  1.0 0.1002608955
H  H42  1  0.91100000  0.44100000  0.79100000  1.0 0.1002608955
H  H43  1  0.55900000  0.08900000  0.29100000  1.0 0.1002608955
H  H44  1  0.08900000  0.55900000  0.20900000  1.0 0.1002608955
H  H45  1  0.41900000  0.94100000  0.77100000  1.0 0.1002608955
H  H46  1  0.94100000  0.41900000  0.72900000  1.0 0.1002608955
H  H47  1  0.58100000  0.05900000  0.22900000  1.0 0.1002608955
H  H48  1  0.05900000  0.58100000  0.27100000  1.0 0.1002608955
H  H49  1  0.61400000  0.16600000  0.65600000  1.0 0.1002608955
H  H50  1  0.16600000  0.61400000  0.84400000  1.0 0.1002608955
H  H51  1  0.38600000  0.83400000  0.34400000  1.0 0.1002608955
H  H52  1  0.83400000  0.38600000  0.15600000  1.0 0.1002608955
H  H53  1  0.59200000  0.19400000  0.72400000  1.0 0.1002608955
H  H54  1  0.19400000  0.59200000  0.77600000  1.0 0.1002608955
H  H55  1  0.40800000  0.80600000  0.27600000  1.0 0.1002608955
H  H56  1  0.80600000  0.40800000  0.22400000  1.0 0.1002608955
H  H57  1  0.33100000  0.02100000  0.66900000  1.0 0.0839774984
H  H58  1  0.02100000  0.33100000  0.83100000  1.0 0.0839774984
H  H59  1  0.66900000  0.97900000  0.33100000  1.0 0.0839774984
H  H60  1  0.97900000  0.66900000  0.16900000  1.0 0.0839774984
H  H61  1  0.35300000  0.98900000  0.61000000  1.0 0.1002608955
H  H62  1  0.98900000  0.35300000  0.89000000  1.0 0.1002608955
H  H63  1  0.64700000  0.01100000  0.39000000  1.0 0.1002608955
H  H64  1  0.01100000  0.64700000  0.11000000  1.0 0.1002608955
H  H65  1  0.51500000  0.27900000  0.60700000  1.0 0.1219934886
H  H66  1  0.27900000  0.51500000  0.89300000  1.0 0.1219934886
H  H67  1  0.48500000  0.72100000  0.39300000  1.0 0.1219934886
H  H68  1  0.72100000  0.48500000  0.10700000  1.0 0.1219934886
H  H69  1  0.53800000  0.23800000  0.53900000  1.0 0.1074164047
H  H70  1  0.23800000  0.53800000  0.96100000  1.0 0.1074164047
H  H71  1  0.46200000  0.76200000  0.46100000  1.0 0.1074164047
H  H72  1  0.76200000  0.46200000  0.03900000  1.0 0.1074164047
H  H73  1  0.37400000  0.23400000  0.48000000  1.0 0.1002608955
H  H74  1  0.23400000  0.37400000  0.02000000  1.0 0.1002608955
H  H75  1  0.62600000  0.76600000  0.52000000  1.0 0.1002608955
H  H76  1  0.76600000  0.62600000  0.98000000  1.0 0.1002608955
H  H77  1  0.27200000  0.06400000  0.48900000  1.0 0.0866613978
H  H78  1  0.06400000  0.27200000  0.01100000  1.0 0.0866613978
H  H79  1  0.72800000  0.93600000  0.51100000  1.0 0.0866613978
H  H80  1  0.93600000  0.72800000  0.98900000  1.0 0.0866613978
H  H81  1  0.20400000  0.05400000  0.60600000  1.0 0.2226029525
H  H82  1  0.05400000  0.20400000  0.89400000  1.0 0.2226029525
H  H83  1  0.79600000  0.94600000  0.39400000  1.0 0.2226029525
H  H84  1  0.94600000  0.79600000  0.10600000  1.0 0.2226029525
H  H85  1  0.29000000  0.20200000  0.58000000  1.0 0.2516515146
H  H86  1  0.20200000  0.29000000  0.92000000  1.0 0.2516515146
H  H87  1  0.71000000  0.79800000  0.42000000  1.0 0.2516515146
H  H88  1  0.79800000  0.71000000  0.08000000  1.0 0.2516515146
C  C1  1  0.65270000  0.83290000  0.96720000  1.0 -0.0275453263
C  C2  1  0.83290000  0.65270000  0.53280000  1.0 -0.0275453263
C  C3  1  0.34730000  0.16710000  0.03280000  1.0 -0.0275453263
C  C4  1  0.16710000  0.34730000  0.46720000  1.0 -0.0275453263
C  C5  1  0.70360000  0.96080000  0.90860000  1.0 -0.2219278083
C  C6  1  0.96080000  0.70360000  0.59140000  1.0 -0.2219278083
C  C7  1  0.29640000  0.03920000  0.09140000  1.0 -0.2219278083
C  C8  1  0.03920000  0.29640000  0.40860000  1.0 -0.2219278083
C  C9  1  0.57180000  0.90660000  0.85160000  1.0 -0.1678377722
C  C10  1  0.90660000  0.57180000  0.64840000  1.0 -0.1678377722
C  C11  1  0.42820000  0.09340000  0.14840000  1.0 -0.1678377722
C  C12  1  0.09340000  0.42820000  0.35160000  1.0 -0.1678377722
C  C13  1  0.62060000  0.03740000  0.79800000  1.0 -0.1891012551
C  C14  1  0.03740000  0.62060000  0.70200000  1.0 -0.1891012551
C  C15  1  0.37940000  0.96260000  0.20200000  1.0 -0.1891012551
C  C16  1  0.96260000  0.37940000  0.29800000  1.0 -0.1891012551
C  C17  1  0.48980000  0.98600000  0.74220000  1.0 -0.1891012551
C  C18  1  0.98600000  0.48980000  0.75780000  1.0 -0.1891012551
C  C19  1  0.51020000  0.01400000  0.25780000  1.0 -0.184240732
C  C20  1  0.01400000  0.51020000  0.24220000  1.0 -0.1891012551
C  C21  1  0.54210000  0.11890000  0.68880000  1.0 -0.1891012551
C  C22  1  0.11890000  0.54210000  0.81120000  1.0 -0.1891012551
C  C23  1  0.45790000  0.88110000  0.31120000  1.0 -0.1891012551
C  C24  1  0.88110000  0.45790000  0.18880000  1.0 -0.1891012551
C  C25  1  0.41150000  0.07050000  0.63430000  1.0 -0.157587338
C  C26  1  0.07050000  0.41150000  0.86570000  1.0 -0.157587338
C  C27  1  0.58850000  0.92950000  0.36570000  1.0 -0.157587338
C  C28  1  0.92950000  0.58850000  0.13430000  1.0 -0.157587338
C  C29  1  0.46510000  0.20010000  0.57520000  1.0 -0.2219278083
C  C30  1  0.20010000  0.46510000  0.92480000  1.0 -0.2219278083
C  C31  1  0.53490000  0.79990000  0.42480000  1.0 -0.2219278083
C  C32  1  0.79990000  0.53490000  0.07520000  1.0 -0.2219278083
C  C33  1  0.33410000  0.15150000  0.52130000  1.0 -0.0275453263
C  C34  1  0.15150000  0.33410000  0.97870000  1.0 -0.0275453263
C  C35  1  0.66590000  0.84850000  0.47870000  1.0 -0.0275453263
C  C36  1  0.84850000  0.66590000  0.02130000  1.0 -0.0275453263
C  C37  1  0.79750000  0.80430000  0.82550000  1.0 0.0481395054
C  C38  1  0.80430000  0.79750000  0.67450000  1.0 0.0481395054
C  C39  1  0.20250000  0.19570000  0.17450000  1.0 0.0481395054
C  C40  1  0.19570000  0.20250000  0.32550000  1.0 0.0481395054
C  C41  1  0.50820000  0.51500000  0.82360000  1.0 -0.0080401206
C  C42  1  0.51500000  0.50820000  0.67640000  1.0 -0.0080401206
C  C43  1  0.49180000  0.48500000  0.17640000  1.0 -0.0080401206
C  C44  1  0.48500000  0.49180000  0.32360000  1.0 -0.0080401206
N  N1  1  0.77990000  0.89450000  0.02840000  1.0 -0.5066990589
N  N2  1  0.89450000  0.77990000  0.47160000  1.0 -0.5066990589
N  N3  1  0.22010000  0.10550000  0.97160000  1.0 -0.5066990589
N  N4  1  0.10550000  0.22010000  0.52840000  1.0 -0.5066990589
N  N5  1  0.23340000  0.11480000  0.56360000  1.0 -0.5162157748
N  N6  1  0.11480000  0.23340000  0.93640000  1.0 -0.5162157748
N  N7  1  0.76660000  0.88520000  0.43640000  1.0 -0.5162157748
N  N8  1  0.88520000  0.76660000  0.06360000  1.0 -0.5162157748
N  N9  1  0.88190000  0.89310000  0.87210000  1.0 -0.3876354356
N  N10  1  0.89310000  0.88190000  0.62790000  1.0 -0.3876354356
N  N11  1  0.11810000  0.10690000  0.12790000  1.0 -0.3876354356
N  N12  1  0.10690000  0.11810000  0.37210000  1.0 -0.3876354356
N  N13  1  0.41370000  0.42330000  0.86790000  1.0 -0.404147991
N  N14  1  0.42330000  0.41370000  0.63210000  1.0 -0.404147991
N  N15  1  0.58630000  0.57670000  0.13210000  1.0 -0.4059952979
N  N16  1  0.57670000  0.58630000  0.36790000  1.0 -0.404147991
