# DDEC6 charges by PACMAN v1.1 (https://github.com/mtap-research/PACMAN-charge/)
data_KEYMUY_FSR_pacman
_symmetry_space_group_name_H-M   'P 1'
_cell_length_a   9.93450000
_cell_length_b   14.74240000
_cell_length_c   18.62940000
_cell_angle_alpha   90.00000000
_cell_angle_beta   90.00000000
_cell_angle_gamma   90.00000000
_symmetry_Int_Tables_number   1
_chemical_formula_structural   NaCdH8(C4O3)4
_chemical_formula_sum   'Na4 Cd4 H32 C64 O48'
_cell_volume   2728.43161024
_cell_formula_units_Z   4
loop_
 _symmetry_equiv_pos_site_id
 _symmetry_equiv_pos_as_xyz
  1  'x, y, z'
loop_
 _atom_site_type_symbol
 _atom_site_label
 _atom_site_symmetry_multiplicity
 _atom_site_fract_x
 _atom_site_fract_y
 _atom_site_fract_z
 _atom_site_occupancy
 _atom_site_charge
Na  Na1  1  0.94520000  0.87570000  0.55967000  1.0 0.8524715428
Na  Na2  1  0.05480000  0.37570000  0.44033000  1.0 0.8524715428
Na  Na3  1  0.05480000  0.87570000  0.05967000  1.0 0.8524715428
Na  Na4  1  0.94520000  0.37570000  0.94033000  1.0 0.8524715428
Cd  Cd1  1  0.95931000  0.10302000  0.46845000  1.0 0.9735268329
Cd  Cd2  1  0.04069000  0.60302000  0.53155000  1.0 0.9735268329
Cd  Cd3  1  0.04069000  0.10302000  0.96845000  1.0 0.9735268329
Cd  Cd4  1  0.95931000  0.60302000  0.03155000  1.0 0.9735268329
H  H1  1  0.58240000  0.73160000  0.53910000  1.0 0.3492915605
H  H2  1  0.41760000  0.23160000  0.46090000  1.0 0.3492915605
H  H3  1  0.41760000  0.73160000  0.03910000  1.0 0.3492915605
H  H4  1  0.58240000  0.23160000  0.96090000  1.0 0.3492915605
H  H5  1  0.17600000  0.51440000  0.71030000  1.0 0.3550172721
H  H6  1  0.82400000  0.01440000  0.28970000  1.0 0.3550172721
H  H7  1  0.82400000  0.51440000  0.21030000  1.0 0.3550172721
H  H8  1  0.17600000  0.01440000  0.78970000  1.0 0.3550172721
H  H9  1  0.43010000  0.07090000  0.47110000  1.0 0.1229326253
H  H10  1  0.56990000  0.57090000  0.52890000  1.0 0.1229326253
H  H11  1  0.56990000  0.07090000  0.97110000  1.0 0.1229326253
H  H12  1  0.43010000  0.57090000  0.02890000  1.0 0.1229326253
H  H13  1  0.27410000  0.82140000  0.50480000  1.0 0.148483542
H  H14  1  0.72590000  0.32140000  0.49520000  1.0 0.148483542
H  H15  1  0.72590000  0.82140000  0.00480000  1.0 0.148483542
H  H16  1  0.27410000  0.32140000  0.99520000  1.0 0.148483542
H  H17  1  0.67640000  0.85590000  0.49860000  1.0 0.1229326253
H  H18  1  0.32360000  0.35590000  0.50140000  1.0 0.1229326253
H  H19  1  0.32360000  0.85590000  0.99860000  1.0 0.1229326253
H  H20  1  0.67640000  0.35590000  0.00140000  1.0 0.1229326253
H  H21  1  0.05560000  0.15640000  0.70590000  1.0 0.1229326253
H  H22  1  0.94440000  0.65640000  0.29410000  1.0 0.1229326253
H  H23  1  0.94440000  0.15640000  0.20590000  1.0 0.1229326253
H  H24  1  0.05560000  0.65640000  0.79410000  1.0 0.1229326253
H  H25  1  0.18830000  0.36180000  0.82930000  1.0 0.1299385403
H  H26  1  0.81170000  0.86180000  0.17070000  1.0 0.1299385403
H  H27  1  0.81170000  0.36180000  0.32930000  1.0 0.1299385403
H  H28  1  0.18830000  0.86180000  0.67070000  1.0 0.1299385403
H  H29  1  0.15340000  0.39430000  0.61600000  1.0 0.1390218113
H  H30  1  0.84660000  0.89430000  0.38400000  1.0 0.1390218113
H  H31  1  0.84660000  0.39430000  0.11600000  1.0 0.1390218113
H  H32  1  0.15340000  0.89430000  0.88400000  1.0 0.1390218113
C  C1  1  0.69680000  0.03300000  0.48420000  1.0 0.5542895172
C  C2  1  0.30320000  0.53300000  0.51580000  1.0 0.5542895172
C  C3  1  0.30320000  0.03300000  0.98420000  1.0 0.5542895172
C  C4  1  0.69680000  0.53300000  0.01580000  1.0 0.5542895172
C  C5  1  0.57350000  0.97420000  0.48660000  1.0 0.010374846
C  C6  1  0.42650000  0.47420000  0.51340000  1.0 0.010374846
C  C7  1  0.42650000  0.97420000  0.98660000  1.0 0.010374846
C  C8  1  0.57350000  0.47420000  0.01340000  1.0 0.010374846
C  C9  1  0.44310000  0.00940000  0.47950000  1.0 -0.1134441111
C  C10  1  0.55690000  0.50940000  0.52050000  1.0 -0.1134441111
C  C11  1  0.55690000  0.00940000  0.97950000  1.0 -0.1134441111
C  C12  1  0.44310000  0.50940000  0.02050000  1.0 -0.1134441111
C  C13  1  0.33320000  0.95150000  0.48530000  1.0 0.010374846
C  C14  1  0.66680000  0.45150000  0.51470000  1.0 0.010374846
C  C15  1  0.66680000  0.95150000  0.98530000  1.0 0.010374846
C  C16  1  0.33320000  0.45150000  0.01470000  1.0 0.010374846
C  C17  1  0.19290000  0.99020000  0.47510000  1.0 0.5575841193
C  C18  1  0.80710000  0.49020000  0.52490000  1.0 0.5575841193
C  C19  1  0.80710000  0.99020000  0.97510000  1.0 0.5575841193
C  C20  1  0.19290000  0.49020000  0.02490000  1.0 0.5575841193
C  C21  1  0.34860000  0.85910000  0.49960000  1.0 -0.1716247882
C  C22  1  0.65140000  0.35910000  0.50040000  1.0 -0.1716247882
C  C23  1  0.65140000  0.85910000  0.99960000  1.0 -0.1716247882
C  C24  1  0.34860000  0.35910000  0.00040000  1.0 -0.1716247882
C  C25  1  0.48000000  0.82450000  0.50600000  1.0 0.2721622933
C  C26  1  0.52000000  0.32450000  0.49400000  1.0 0.2721622933
C  C27  1  0.52000000  0.82450000  0.00600000  1.0 0.2721622933
C  C28  1  0.48000000  0.32450000  0.99400000  1.0 0.2721622933
C  C29  1  0.59020000  0.88040000  0.49730000  1.0 -0.2315947637
C  C30  1  0.40980000  0.38040000  0.50270000  1.0 -0.2315947637
C  C31  1  0.40980000  0.88040000  0.99730000  1.0 -0.2315947637
C  C32  1  0.59020000  0.38040000  0.00270000  1.0 -0.2315947637
C  C33  1  0.07280000  0.23150000  0.57630000  1.0 0.5690927927
C  C34  1  0.92720000  0.73150000  0.42370000  1.0 0.5690927927
C  C35  1  0.92720000  0.23150000  0.07630000  1.0 0.5690927927
C  C36  1  0.07280000  0.73150000  0.92370000  1.0 0.5690927927
C  C37  1  0.10290000  0.26960000  0.65010000  1.0 0.0049475453
C  C38  1  0.89710000  0.76960000  0.34990000  1.0 0.0049475453
C  C39  1  0.89710000  0.26960000  0.15010000  1.0 0.0049475453
C  C40  1  0.10290000  0.76960000  0.84990000  1.0 0.0049475453
C  C41  1  0.08690000  0.21560000  0.71060000  1.0 -0.1134441111
C  C42  1  0.91310000  0.71560000  0.28940000  1.0 -0.1134441111
C  C43  1  0.91310000  0.21560000  0.21060000  1.0 -0.1134441111
C  C44  1  0.08690000  0.71560000  0.78940000  1.0 -0.1134441111
C  C45  1  0.11810000  0.25030000  0.77860000  1.0 -0.0085231873
C  C46  1  0.88190000  0.75030000  0.22140000  1.0 -0.0085231873
C  C47  1  0.88190000  0.25030000  0.27860000  1.0 -0.0085231873
C  C48  1  0.11810000  0.75030000  0.72140000  1.0 -0.0085231873
C  C49  1  0.09100000  0.19400000  0.84530000  1.0 0.5575841193
C  C50  1  0.90900000  0.69400000  0.15470000  1.0 0.5575841193
C  C51  1  0.90900000  0.19400000  0.34530000  1.0 0.5575841193
C  C52  1  0.09100000  0.69400000  0.65470000  1.0 0.5575841193
C  C53  1  0.16510000  0.33910000  0.78440000  1.0 -0.2078442003
C  C54  1  0.83490000  0.83910000  0.21560000  1.0 -0.2078442003
C  C55  1  0.83490000  0.33910000  0.28440000  1.0 -0.2078442003
C  C56  1  0.16510000  0.83910000  0.71560000  1.0 -0.2078442003
C  C57  1  0.17800000  0.39370000  0.72480000  1.0 0.2721622933
C  C58  1  0.82200000  0.89370000  0.27520000  1.0 0.2721622933
C  C59  1  0.82200000  0.39370000  0.22480000  1.0 0.2721622933
C  C60  1  0.17800000  0.89370000  0.77520000  1.0 0.2721622933
C  C61  1  0.14570000  0.35800000  0.65660000  1.0 -0.1750879015
C  C62  1  0.85430000  0.85800000  0.34340000  1.0 -0.1716247882
C  C63  1  0.85430000  0.35800000  0.15660000  1.0 -0.1750879015
C  C64  1  0.14570000  0.85800000  0.84340000  1.0 -0.1750879015
O  O1  1  0.81000000  0.99480000  0.49300000  1.0 -0.5711622189
O  O2  1  0.19000000  0.49480000  0.50700000  1.0 -0.5711622189
O  O3  1  0.19000000  0.99480000  0.99300000  1.0 -0.5711622189
O  O4  1  0.81000000  0.49480000  0.00700000  1.0 -0.5711622189
O  O5  1  0.68650000  0.11620000  0.47290000  1.0 -0.4379956897
O  O6  1  0.31350000  0.61620000  0.52710000  1.0 -0.4379956897
O  O7  1  0.31350000  0.11620000  0.97290000  1.0 -0.4379956897
O  O8  1  0.68650000  0.61620000  0.02710000  1.0 -0.4379956897
O  O9  1  0.18170000  0.07090000  0.45700000  1.0 -0.4795848827
O  O10  1  0.81830000  0.57090000  0.54300000  1.0 -0.4795848827
O  O11  1  0.81830000  0.07090000  0.95700000  1.0 -0.4795848827
O  O12  1  0.18170000  0.57090000  0.04300000  1.0 -0.4795848827
O  O13  1  0.09430000  0.94010000  0.48230000  1.0 -0.5711622189
O  O14  1  0.90570000  0.44010000  0.51770000  1.0 -0.5711622189
O  O15  1  0.90570000  0.94010000  0.98230000  1.0 -0.5711622189
O  O16  1  0.09430000  0.44010000  0.01770000  1.0 -0.5711622189
O  O17  1  0.50770000  0.73550000  0.52060000  1.0 -0.3814206596
O  O18  1  0.49230000  0.23550000  0.47940000  1.0 -0.3814206596
O  O19  1  0.49230000  0.73550000  0.02060000  1.0 -0.3814206596
O  O20  1  0.50770000  0.23550000  0.97940000  1.0 -0.3814206596
O  O21  1  0.98880000  0.16550000  0.57580000  1.0 -0.4795848827
O  O22  1  0.01120000  0.66550000  0.42420000  1.0 -0.4795848827
O  O23  1  0.01120000  0.16550000  0.07580000  1.0 -0.4795848827
O  O24  1  0.98880000  0.66550000  0.92420000  1.0 -0.4795848827
O  O25  1  0.12800000  0.26320000  0.52280000  1.0 -0.5556869532
O  O26  1  0.87200000  0.76320000  0.47720000  1.0 -0.5556869532
O  O27  1  0.87200000  0.26320000  0.02280000  1.0 -0.5556869532
O  O28  1  0.12800000  0.76320000  0.97720000  1.0 -0.5556869532
O  O29  1  0.09420000  0.10960000  0.84270000  1.0 -0.4954763677
O  O30  1  0.90580000  0.60960000  0.15730000  1.0 -0.4954763677
O  O31  1  0.90580000  0.10960000  0.34270000  1.0 -0.4954763677
O  O32  1  0.09420000  0.60960000  0.65730000  1.0 -0.4954763677
O  O33  1  0.06720000  0.23530000  0.90240000  1.0 -0.5378198649
O  O34  1  0.93280000  0.73530000  0.09760000  1.0 -0.5378198649
O  O35  1  0.93280000  0.23530000  0.40240000  1.0 -0.5378198649
O  O36  1  0.06720000  0.73530000  0.59760000  1.0 -0.5378198649
O  O37  1  0.21850000  0.48000000  0.73650000  1.0 -0.4069523539
O  O38  1  0.78150000  0.98000000  0.26350000  1.0 -0.4069523539
O  O39  1  0.78150000  0.48000000  0.23650000  1.0 -0.4069523539
O  O40  1  0.21850000  0.98000000  0.76350000  1.0 -0.4069523539
O  O41  1  0.99230000  0.99630000  0.64450000  1.0 0.0492481909
O  O42  1  0.00770000  0.49630000  0.35550000  1.0 0.0492481909
O  O43  1  0.00770000  0.99630000  0.14450000  1.0 0.0492481909
O  O44  1  0.99230000  0.49630000  0.85550000  1.0 0.0492481909
O  O45  1  0.77120000  0.83360000  0.64060000  1.0 -0.2420575644
O  O46  1  0.22880000  0.33360000  0.35940000  1.0 -0.2315947637
O  O47  1  0.22880000  0.83360000  0.14060000  1.0 -0.2420575644
O  O48  1  0.77120000  0.33360000  0.85940000  1.0 -0.2315947637
