# DDEC6 charges by PACMAN v1.1 (https://github.com/mtap-research/PACMAN-charge/)
data_KIBGOV_FSR_pacman
_symmetry_space_group_name_H-M   'P 1'
_cell_length_a   15.75900000
_cell_length_b   44.01100000
_cell_length_c   19.27710000
_cell_angle_alpha   90.00000000
_cell_angle_beta   121.84700000
_cell_angle_gamma   90.00000000
_symmetry_Int_Tables_number   1
_chemical_formula_structural   Fe7H60C81N16Cl14O3
_chemical_formula_sum   'Fe28 H240 C324 N64 Cl56 O12'
_cell_volume   11357.28694843
_cell_formula_units_Z   4
loop_
 _symmetry_equiv_pos_site_id
 _symmetry_equiv_pos_as_xyz
  1  'x, y, z'
loop_
 _atom_site_type_symbol
 _atom_site_label
 _atom_site_symmetry_multiplicity
 _atom_site_fract_x
 _atom_site_fract_y
 _atom_site_fract_z
 _atom_site_occupancy
 _atom_site_charge
Fe  Fe1  1  0.05208000  0.50390000  0.26795000  1.0 0.3740198563
Fe  Fe2  1  0.94792000  0.00390000  0.23205000  1.0 0.3740198563
Fe  Fe3  1  0.94792000  0.49610000  0.73205000  1.0 0.3740198563
Fe  Fe4  1  0.05208000  0.99610000  0.76795000  1.0 0.3760392616
Fe  Fe5  1  0.11323000  0.25145000  0.29197000  1.0 0.6024938623
Fe  Fe6  1  0.88677000  0.75145000  0.20803000  1.0 0.6024938623
Fe  Fe7  1  0.88677000  0.74855000  0.70803000  1.0 0.6024938623
Fe  Fe8  1  0.11323000  0.24855000  0.79197000  1.0 0.6024938623
Fe  Fe9  1  0.61301000  0.25939000  0.04261000  1.0 0.3396564076
Fe  Fe10  1  0.38699000  0.75939000  0.45739000  1.0 0.3396564076
Fe  Fe11  1  0.38699000  0.74061000  0.95739000  1.0 0.3396564076
Fe  Fe12  1  0.61301000  0.24061000  0.54261000  1.0 0.3396564076
Fe  Fe13  1  0.09694000  0.63827000  0.52785000  1.0 0.8526586393
Fe  Fe14  1  0.90306000  0.13827000  0.97215000  1.0 0.8526586393
Fe  Fe15  1  0.90306000  0.36173000  0.47215000  1.0 0.8526586393
Fe  Fe16  1  0.09694000  0.86173000  0.02785000  1.0 0.8526586393
Fe  Fe17  1  0.90724000  0.58477000  0.43433000  1.0 0.8692880223
Fe  Fe18  1  0.09276000  0.08477000  0.06567000  1.0 0.8692880223
Fe  Fe19  1  0.09276000  0.41523000  0.56567000  1.0 0.8692880223
Fe  Fe20  1  0.90724000  0.91523000  0.93433000  1.0 0.8692880223
Fe  Fe21  1  0.22926000  0.37742000  0.08461000  1.0 0.8526586393
Fe  Fe22  1  0.77074000  0.87742000  0.41539000  1.0 0.8526586393
Fe  Fe23  1  0.77074000  0.62258000  0.91539000  1.0 0.8526586393
Fe  Fe24  1  0.22926000  0.12258000  0.58461000  1.0 0.8526586393
Fe  Fe25  1  0.97757000  0.38756000  0.99334000  1.0 0.8692880223
Fe  Fe26  1  0.02243000  0.88756000  0.50666000  1.0 0.8692880223
Fe  Fe27  1  0.02243000  0.61244000  0.00666000  1.0 0.8692880223
Fe  Fe28  1  0.97757000  0.11244000  0.49334000  1.0 0.8692880223
H  H1  1  0.17836000  0.47816000  0.44317000  1.0 0.120252599
H  H2  1  0.82164000  0.97816000  0.05683000  1.0 0.120252599
H  H3  1  0.82164000  0.52184000  0.55683000  1.0 0.120252599
H  H4  1  0.17836000  0.02184000  0.94317000  1.0 0.120252599
H  H5  1  0.25855000  0.49748000  0.57622000  1.0 0.1396261179
H  H6  1  0.74145000  0.99748000  0.92378000  1.0 0.1396261179
H  H7  1  0.74145000  0.50252000  0.42378000  1.0 0.1396261179
H  H8  1  0.25855000  0.00252000  0.07622000  1.0 0.1396261179
H  H9  1  0.26405000  0.55058000  0.59369000  1.0 0.120252599
H  H10  1  0.73595000  0.05058000  0.90631000  1.0 0.120252599
H  H11  1  0.73595000  0.44942000  0.40631000  1.0 0.120252599
H  H12  1  0.26405000  0.94942000  0.09369000  1.0 0.120252599
H  H13  1  0.18542000  0.58188000  0.47618000  1.0 0.1499155124
H  H14  1  0.81458000  0.08188000  0.02382000  1.0 0.1499155124
H  H15  1  0.81458000  0.41812000  0.52382000  1.0 0.1499155124
H  H16  1  0.18542000  0.91812000  0.97618000  1.0 0.1499155124
H  H17  1  0.06493000  0.60759000  0.35490000  1.0 0.1499155124
H  H18  1  0.93507000  0.10759000  0.14510000  1.0 0.1499155124
H  H19  1  0.93507000  0.39241000  0.64510000  1.0 0.1499155124
H  H20  1  0.06493000  0.89241000  0.85490000  1.0 0.1499155124
H  H21  1  0.88744000  0.59356000  0.11106000  1.0 0.1499155124
H  H22  1  0.11256000  0.09356000  0.38894000  1.0 0.1499155124
H  H23  1  0.11256000  0.40644000  0.88894000  1.0 0.1499155124
H  H24  1  0.88744000  0.90644000  0.61106000  1.0 0.1499155124
H  H25  1  0.85041000  0.55690000  0.00900000  1.0 0.1618050779
H  H26  1  0.14959000  0.05690000  0.49100000  1.0 0.1618050779
H  H27  1  0.14959000  0.44310000  0.99100000  1.0 0.1618050779
H  H28  1  0.85041000  0.94310000  0.50900000  1.0 0.1618050779
H  H29  1  0.81591000  0.51616000  0.92246000  1.0 0.1302261439
H  H30  1  0.18409000  0.01616000  0.57754000  1.0 0.120252599
H  H31  1  0.18409000  0.48384000  0.07754000  1.0 0.1302261439
H  H32  1  0.81591000  0.98384000  0.42246000  1.0 0.1302261439
H  H33  1  0.88019000  0.46783000  0.97708000  1.0 0.1396261179
H  H34  1  0.11981000  0.96783000  0.52292000  1.0 0.1396261179
H  H35  1  0.11981000  0.53217000  0.02292000  1.0 0.1396261179
H  H36  1  0.88019000  0.03217000  0.47708000  1.0 0.1396261179
H  H37  1  0.97351000  0.46215000  0.11647000  1.0 0.1302261439
H  H38  1  0.02649000  0.96215000  0.38353000  1.0 0.1302261439
H  H39  1  0.02649000  0.53785000  0.88353000  1.0 0.1302261439
H  H40  1  0.97351000  0.03785000  0.61647000  1.0 0.1302261439
H  H41  1  0.90799000  0.64453000  0.10469000  1.0 0.1396261179
H  H42  1  0.09201000  0.14453000  0.39531000  1.0 0.1396261179
H  H43  1  0.09201000  0.35547000  0.89531000  1.0 0.1396261179
H  H44  1  0.90799000  0.85547000  0.60469000  1.0 0.1396261179
H  H45  1  0.87512000  0.69558000  0.09812000  1.0 0.1011868839
H  H46  1  0.12488000  0.19558000  0.40188000  1.0 0.1011868839
H  H47  1  0.12488000  0.30442000  0.90188000  1.0 0.1011868839
H  H48  1  0.87512000  0.80442000  0.59812000  1.0 0.1011868839
H  H49  1  0.91296000  0.69519000  0.31707000  1.0 0.120252599
H  H50  1  0.08704000  0.19519000  0.18293000  1.0 0.120252599
H  H51  1  0.08704000  0.30481000  0.68293000  1.0 0.120252599
H  H52  1  0.91296000  0.80481000  0.81707000  1.0 0.120252599
H  H53  1  0.94941000  0.64448000  0.33284000  1.0 0.1396261179
H  H54  1  0.05059000  0.14448000  0.16716000  1.0 0.1396261179
H  H55  1  0.05059000  0.35552000  0.66716000  1.0 0.1396261179
H  H56  1  0.94941000  0.85552000  0.83284000  1.0 0.1396261179
H  H57  1  0.20242000  0.54538000  0.25770000  1.0 0.1302261439
H  H58  1  0.79758000  0.04538000  0.24230000  1.0 0.1302261439
H  H59  1  0.79758000  0.45462000  0.74230000  1.0 0.1302261439
H  H60  1  0.20242000  0.95462000  0.75770000  1.0 0.1302261439
H  H61  1  0.35137000  0.53837000  0.26214000  1.0 0.1396261179
H  H62  1  0.64863000  0.03837000  0.23786000  1.0 0.1396261179
H  H63  1  0.64863000  0.46163000  0.73786000  1.0 0.1396261179
H  H64  1  0.35137000  0.96163000  0.76214000  1.0 0.1396261179
H  H65  1  0.41336000  0.48886000  0.27279000  1.0 0.1396261179
H  H66  1  0.58664000  0.98886000  0.22721000  1.0 0.1396261179
H  H67  1  0.58664000  0.51114000  0.72721000  1.0 0.1396261179
H  H68  1  0.41336000  0.01114000  0.77279000  1.0 0.1396261179
H  H69  1  0.32834000  0.44803000  0.28596000  1.0 0.1499155124
H  H70  1  0.67166000  0.94803000  0.21404000  1.0 0.1499155124
H  H71  1  0.67166000  0.55197000  0.71404000  1.0 0.1499155124
H  H72  1  0.32834000  0.05197000  0.78596000  1.0 0.1499155124
H  H73  1  0.22038000  0.40972000  0.28381000  1.0 0.1499155124
H  H74  1  0.77962000  0.90972000  0.21619000  1.0 0.1499155124
H  H75  1  0.77962000  0.59028000  0.71619000  1.0 0.1499155124
H  H76  1  0.22038000  0.09028000  0.78381000  1.0 0.1499155124
H  H77  1  0.97589000  0.40069000  0.30322000  1.0 0.1499155124
H  H78  1  0.02411000  0.90069000  0.19678000  1.0 0.1499155124
H  H79  1  0.02411000  0.59931000  0.69678000  1.0 0.1499155124
H  H80  1  0.97589000  0.09931000  0.80322000  1.0 0.1499155124
H  H81  1  0.84331000  0.42882000  0.28902000  1.0 0.1396261179
H  H82  1  0.15669000  0.92882000  0.21098000  1.0 0.1396261179
H  H83  1  0.15669000  0.57118000  0.71098000  1.0 0.1396261179
H  H84  1  0.84331000  0.07118000  0.78902000  1.0 0.1396261179
H  H85  1  0.71681000  0.46176000  0.27703000  1.0 0.120252599
H  H86  1  0.28319000  0.96176000  0.22297000  1.0 0.120252599
H  H87  1  0.28319000  0.53824000  0.72297000  1.0 0.120252599
H  H88  1  0.71681000  0.03824000  0.77703000  1.0 0.120252599
H  H89  1  0.73333000  0.51429000  0.26716000  1.0 0.1396261179
H  H90  1  0.26667000  0.01429000  0.23284000  1.0 0.1396261179
H  H91  1  0.26667000  0.48571000  0.73284000  1.0 0.1396261179
H  H92  1  0.73333000  0.98571000  0.76716000  1.0 0.1396261179
H  H93  1  0.86667000  0.53273000  0.26081000  1.0 0.120252599
H  H94  1  0.13333000  0.03273000  0.23919000  1.0 0.120252599
H  H95  1  0.13333000  0.46727000  0.73919000  1.0 0.120252599
H  H96  1  0.86667000  0.96727000  0.76081000  1.0 0.120252599
H  H97  1  0.13945000  0.36171000  0.20442000  1.0 0.1396261179
H  H98  1  0.86055000  0.86171000  0.29558000  1.0 0.1396261179
H  H99  1  0.86055000  0.63829000  0.79558000  1.0 0.1396261179
H  H100  1  0.13945000  0.13829000  0.70442000  1.0 0.1396261179
H  H101  1  0.13668000  0.30929000  0.20106000  1.0 0.1116024736
H  H102  1  0.86332000  0.80929000  0.29894000  1.0 0.1116024736
H  H103  1  0.86332000  0.69071000  0.79894000  1.0 0.1116024736
H  H104  1  0.13668000  0.19071000  0.70106000  1.0 0.1116024736
H  H105  1  0.09670000  0.30572000  0.38473000  1.0 0.1116024736
H  H106  1  0.90330000  0.80572000  0.11527000  1.0 0.1116024736
H  H107  1  0.90330000  0.69428000  0.61527000  1.0 0.1116024736
H  H108  1  0.09670000  0.19428000  0.88473000  1.0 0.1116024736
H  H109  1  0.08710000  0.35779000  0.38939000  1.0 0.1396261179
H  H110  1  0.91290000  0.85779000  0.11061000  1.0 0.1396261179
H  H111  1  0.91290000  0.64221000  0.61061000  1.0 0.1396261179
H  H112  1  0.08710000  0.14221000  0.88939000  1.0 0.1396261179
H  H113  1  0.55272000  0.30668000  0.90583000  1.0 0.1116024736
H  H114  1  0.44728000  0.80668000  0.59417000  1.0 0.1116024736
H  H115  1  0.44728000  0.69332000  0.09417000  1.0 0.1116024736
H  H116  1  0.55272000  0.19332000  0.40583000  1.0 0.1116024736
H  H117  1  0.43462000  0.34568000  0.84559000  1.0 0.1396261179
H  H118  1  0.56538000  0.84568000  0.65441000  1.0 0.1396261179
H  H119  1  0.56538000  0.65432000  0.15441000  1.0 0.1396261179
H  H120  1  0.43462000  0.15432000  0.34559000  1.0 0.1396261179
H  H121  1  0.32575000  0.35454000  0.89240000  1.0 0.1396261179
H  H122  1  0.67425000  0.85454000  0.60760000  1.0 0.1396261179
H  H123  1  0.67425000  0.64546000  0.10760000  1.0 0.1396261179
H  H124  1  0.32575000  0.14546000  0.39240000  1.0 0.1396261179
H  H125  1  0.33396000  0.32316000  0.99353000  1.0 0.1499155124
H  H126  1  0.66604000  0.82316000  0.50647000  1.0 0.1499155124
H  H127  1  0.66604000  0.67684000  0.00647000  1.0 0.1499155124
H  H128  1  0.33396000  0.17684000  0.49353000  1.0 0.1499155124
H  H129  1  0.35353000  0.28810000  0.08989000  1.0 0.1499155124
H  H130  1  0.64647000  0.78810000  0.41011000  1.0 0.1499155124
H  H131  1  0.64647000  0.71190000  0.91011000  1.0 0.1499155124
H  H132  1  0.35353000  0.21190000  0.58989000  1.0 0.1499155124
H  H133  1  0.53073000  0.21921000  0.23474000  1.0 0.1396261179
H  H134  1  0.46927000  0.71921000  0.26526000  1.0 0.1396261179
H  H135  1  0.46927000  0.78079000  0.76526000  1.0 0.1396261179
H  H136  1  0.53073000  0.28079000  0.73474000  1.0 0.1396261179
H  H137  1  0.68048000  0.19279000  0.26876000  1.0 0.1302261439
H  H138  1  0.31952000  0.69279000  0.23124000  1.0 0.1302261439
H  H139  1  0.31952000  0.80721000  0.73124000  1.0 0.1302261439
H  H140  1  0.68048000  0.30721000  0.76876000  1.0 0.1302261439
H  H141  1  0.82517000  0.16842000  0.28672000  1.0 0.1396261179
H  H142  1  0.17483000  0.66842000  0.21328000  1.0 0.1396261179
H  H143  1  0.17483000  0.83158000  0.71328000  1.0 0.1396261179
H  H144  1  0.82517000  0.33158000  0.78672000  1.0 0.1396261179
H  H145  1  0.88342000  0.18210000  0.20298000  1.0 0.1396261179
H  H146  1  0.11658000  0.68210000  0.29702000  1.0 0.1396261179
H  H147  1  0.11658000  0.81790000  0.79702000  1.0 0.1396261179
H  H148  1  0.88342000  0.31790000  0.70298000  1.0 0.1396261179
H  H149  1  0.80174000  0.21888000  0.10397000  1.0 0.1302261439
H  H150  1  0.19826000  0.71888000  0.39603000  1.0 0.1302261439
H  H151  1  0.19826000  0.78112000  0.89603000  1.0 0.1302261439
H  H152  1  0.80174000  0.28112000  0.60397000  1.0 0.1302261439
H  H153  1  0.23150000  0.25916000  0.08480000  1.0 0.1396261179
H  H154  1  0.76850000  0.75916000  0.41520000  1.0 0.1396261179
H  H155  1  0.76850000  0.74084000  0.91520000  1.0 0.1396261179
H  H156  1  0.23150000  0.24084000  0.58480000  1.0 0.1396261179
H  H157  1  0.12345000  0.25604000  0.13186000  1.0 0.1116024736
H  H158  1  0.87655000  0.75604000  0.36814000  1.0 0.1116024736
H  H159  1  0.87655000  0.74396000  0.86814000  1.0 0.1116024736
H  H160  1  0.12345000  0.24396000  0.63186000  1.0 0.1116024736
H  H161  1  0.34082000  0.23516000  0.35273000  1.0 0.1011868839
H  H162  1  0.65918000  0.73516000  0.14727000  1.0 0.1011868839
H  H163  1  0.65918000  0.76484000  0.64727000  1.0 0.1011868839
H  H164  1  0.34082000  0.26484000  0.85273000  1.0 0.1011868839
H  H165  1  0.45539000  0.23443000  0.31148000  1.0 0.120252599
H  H166  1  0.54461000  0.73443000  0.18852000  1.0 0.120252599
H  H167  1  0.54461000  0.76557000  0.68852000  1.0 0.120252599
H  H168  1  0.45539000  0.26557000  0.81148000  1.0 0.120252599
H  H169  1  0.43040000  0.21780000  0.98799000  1.0 0.120252599
H  H170  1  0.56960000  0.71780000  0.51201000  1.0 0.120252599
H  H171  1  0.56960000  0.78220000  0.01201000  1.0 0.120252599
H  H172  1  0.43040000  0.28220000  0.48799000  1.0 0.120252599
H  H173  1  0.35204000  0.17944000  0.89428000  1.0 0.1396261179
H  H174  1  0.64796000  0.67944000  0.60572000  1.0 0.1396261179
H  H175  1  0.64796000  0.82056000  0.10572000  1.0 0.1396261179
H  H176  1  0.35204000  0.32056000  0.39428000  1.0 0.1396261179
H  H177  1  0.41413000  0.16331000  0.81231000  1.0 0.1302261439
H  H178  1  0.58587000  0.66331000  0.68769000  1.0 0.1302261439
H  H179  1  0.58587000  0.83669000  0.18769000  1.0 0.1302261439
H  H180  1  0.41413000  0.33669000  0.31231000  1.0 0.1302261439
H  H181  1  0.56015000  0.18729000  0.83265000  1.0 0.1396261179
H  H182  1  0.43985000  0.68729000  0.66735000  1.0 0.1396261179
H  H183  1  0.43985000  0.81271000  0.16735000  1.0 0.1396261179
H  H184  1  0.56015000  0.31271000  0.33265000  1.0 0.1396261179
H  H185  1  0.70254000  0.21546000  0.85839000  1.0 0.1499155124
H  H186  1  0.29746000  0.71546000  0.64161000  1.0 0.1499155124
H  H187  1  0.29746000  0.78454000  0.14161000  1.0 0.1499155124
H  H188  1  0.70254000  0.28454000  0.35839000  1.0 0.1499155124
H  H189  1  0.86191000  0.29074000  0.98260000  1.0 0.1499155124
H  H190  1  0.13809000  0.79074000  0.51740000  1.0 0.1499155124
H  H191  1  0.13809000  0.70926000  0.01740000  1.0 0.1499155124
H  H192  1  0.86191000  0.20926000  0.48260000  1.0 0.1499155124
H  H193  1  0.87058000  0.32841000  0.07295000  1.0 0.1499155124
H  H194  1  0.12942000  0.82841000  0.42705000  1.0 0.1499155124
H  H195  1  0.12942000  0.67159000  0.92705000  1.0 0.1499155124
H  H196  1  0.87058000  0.17159000  0.57295000  1.0 0.1499155124
H  H197  1  0.88100000  0.35982000  0.17537000  1.0 0.1302261439
H  H198  1  0.11900000  0.85982000  0.32463000  1.0 0.1302261439
H  H199  1  0.11900000  0.64018000  0.82463000  1.0 0.1302261439
H  H200  1  0.88100000  0.14018000  0.67537000  1.0 0.1302261439
H  H201  1  0.77841000  0.34985000  0.22646000  1.0 0.1396261179
H  H202  1  0.22159000  0.84985000  0.27354000  1.0 0.1396261179
H  H203  1  0.22159000  0.65015000  0.77354000  1.0 0.1396261179
H  H204  1  0.77841000  0.15015000  0.72646000  1.0 0.1396261179
H  H205  1  0.66765000  0.30879000  0.17385000  1.0 0.1116024736
H  H206  1  0.33235000  0.80879000  0.32615000  1.0 0.1116024736
H  H207  1  0.33235000  0.69121000  0.82615000  1.0 0.1116024736
H  H208  1  0.66765000  0.19121000  0.67385000  1.0 0.1116024736
H  H209  1  0.77104000  0.22959000  0.77501000  1.0 0.120252599
H  H210  1  0.22896000  0.72959000  0.72499000  1.0 0.120252599
H  H211  1  0.22896000  0.77041000  0.22499000  1.0 0.120252599
H  H212  1  0.77104000  0.27041000  0.27501000  1.0 0.120252599
H  H213  1  0.88733000  0.22778000  0.73741000  1.0 0.1011868839
H  H214  1  0.11267000  0.72778000  0.76259000  1.0 0.1011868839
H  H215  1  0.11267000  0.77222000  0.26259000  1.0 0.1011868839
H  H216  1  0.88733000  0.27222000  0.23741000  1.0 0.1011868839
H  H217  1  0.09749000  0.26196000  0.94921000  1.0 0.1011868839
H  H218  1  0.90251000  0.76196000  0.55079000  1.0 0.1011868839
H  H219  1  0.90251000  0.73804000  0.05079000  1.0 0.1011868839
H  H220  1  0.09749000  0.23804000  0.44921000  1.0 0.1011868839
H  H221  1  0.98835000  0.26460000  0.99271000  1.0 0.1396261179
H  H222  1  0.01165000  0.76460000  0.50729000  1.0 0.1396261179
H  H223  1  0.01165000  0.73540000  0.00729000  1.0 0.1396261179
H  H224  1  0.98835000  0.23540000  0.49271000  1.0 0.1396261179
H  H225  1  0.67058000  0.34534000  0.28548000  1.0 0.3131392251
H  H226  1  0.32942000  0.84534000  0.21452000  1.0 0.3131392251
H  H227  1  0.32942000  0.65466000  0.71452000  1.0 0.3131392251
H  H228  1  0.67058000  0.15466000  0.78548000  1.0 0.3131392251
H  H229  1  0.47824000  0.34004000  0.17339000  1.0 0.1116024736
H  H230  1  0.52176000  0.84004000  0.32661000  1.0 0.1116024736
H  H231  1  0.52176000  0.65996000  0.82661000  1.0 0.1116024736
H  H232  1  0.47824000  0.15996000  0.67339000  1.0 0.1116024736
H  H233  1  0.53290000  0.37023000  0.22344000  1.0 0.120252599
H  H234  1  0.46710000  0.87023000  0.27656000  1.0 0.120252599
H  H235  1  0.46710000  0.62977000  0.77656000  1.0 0.120252599
H  H236  1  0.53290000  0.12977000  0.72344000  1.0 0.120252599
H  H237  1  0.55356000  0.35776000  0.15570000  1.0 0.1011868839
H  H238  1  0.44644000  0.85776000  0.34430000  1.0 0.1011868839
H  H239  1  0.44644000  0.64224000  0.84430000  1.0 0.1011868839
H  H240  1  0.55356000  0.14224000  0.65570000  1.0 0.1011868839
C  C1  1  0.17640000  0.49940000  0.45050000  1.0 0.1116024736
C  C2  1  0.82360000  0.99940000  0.04950000  1.0 0.1116024736
C  C3  1  0.82360000  0.50060000  0.54950000  1.0 0.1116024736
C  C4  1  0.17640000  0.00060000  0.95050000  1.0 0.1116024736
C  C5  1  0.22710000  0.51080000  0.53050000  1.0 -0.1281993131
C  C6  1  0.77290000  0.01080000  0.96950000  1.0 -0.1281993131
C  C7  1  0.77290000  0.48920000  0.46950000  1.0 -0.1281993131
C  C8  1  0.22710000  0.98920000  0.03050000  1.0 -0.1281993131
C  C9  1  0.22970000  0.54190000  0.54060000  1.0 -0.02141324
C  C10  1  0.77030000  0.04190000  0.95940000  1.0 -0.02141324
C  C11  1  0.77030000  0.45810000  0.45940000  1.0 -0.02141324
C  C12  1  0.22970000  0.95810000  0.04060000  1.0 -0.02141324
C  C13  1  0.18060000  0.56040000  0.47080000  1.0 -0.1281993131
C  C14  1  0.81940000  0.06040000  0.02920000  1.0 -0.1281993131
C  C15  1  0.81940000  0.43960000  0.52920000  1.0 -0.1281993131
C  C16  1  0.18060000  0.93960000  0.97080000  1.0 -0.1281993131
C  C17  1  0.12570000  0.54740000  0.39480000  1.0 0.1618050779
C  C18  1  0.87430000  0.04740000  0.10520000  1.0 0.1618050779
C  C19  1  0.87430000  0.45260000  0.60520000  1.0 0.1618050779
C  C20  1  0.12570000  0.95260000  0.89480000  1.0 0.1618050779
C  C21  1  0.06340000  0.56430000  0.31860000  1.0 0.1781766941
C  C22  1  0.93660000  0.06430000  0.18140000  1.0 0.1781766941
C  C23  1  0.93660000  0.43570000  0.68140000  1.0 0.1781766941
C  C24  1  0.06340000  0.93570000  0.81860000  1.0 0.1781766941
C  C25  1  0.03650000  0.59450000  0.30870000  1.0 -0.1726468649
C  C26  1  0.96350000  0.09450000  0.19130000  1.0 -0.1726468649
C  C27  1  0.96350000  0.40550000  0.69130000  1.0 -0.1726468649
C  C28  1  0.03650000  0.90550000  0.80870000  1.0 -0.1726468649
C  C29  1  0.96790000  0.60610000  0.23150000  1.0 0.1302261439
C  C30  1  0.03210000  0.10610000  0.26850000  1.0 0.1302261439
C  C31  1  0.03210000  0.39390000  0.76850000  1.0 0.1302261439
C  C32  1  0.96790000  0.89390000  0.73150000  1.0 0.1302261439
C  C33  1  0.93220000  0.58630000  0.16480000  1.0 -0.1618824564
C  C34  1  0.06780000  0.08630000  0.33520000  1.0 -0.1618824564
C  C35  1  0.06780000  0.41370000  0.83520000  1.0 -0.1618824564
C  C36  1  0.93220000  0.91370000  0.66480000  1.0 -0.1618824564
C  C37  1  0.96210000  0.55660000  0.17720000  1.0 0.1781766941
C  C38  1  0.03790000  0.05660000  0.32280000  1.0 0.1781766941
C  C39  1  0.03790000  0.44340000  0.82280000  1.0 0.1781766941
C  C40  1  0.96210000  0.94340000  0.67720000  1.0 0.1781766941
C  C41  1  0.93380000  0.53250000  0.11450000  1.0 0.1904046188
C  C42  1  0.06620000  0.03250000  0.38550000  1.0 0.1904046188
C  C43  1  0.06620000  0.46750000  0.88550000  1.0 0.1904046188
C  C44  1  0.93380000  0.96750000  0.61450000  1.0 0.1904046188
C  C45  1  0.87560000  0.53730000  0.03040000  1.0 -0.1383686177
C  C46  1  0.12440000  0.03730000  0.46960000  1.0 -0.1383686177
C  C47  1  0.12440000  0.46270000  0.96960000  1.0 -0.1383686177
C  C48  1  0.87560000  0.96270000  0.53040000  1.0 -0.1383686177
C  C49  1  0.85560000  0.51340000  0.97990000  1.0 -0.0283376382
C  C50  1  0.14440000  0.01340000  0.52010000  1.0 -0.0283376382
C  C51  1  0.14440000  0.48660000  0.02010000  1.0 -0.0283376382
C  C52  1  0.85560000  0.98660000  0.47990000  1.0 -0.0283376382
C  C53  1  0.89300000  0.48480000  0.01190000  1.0 -0.1281993131
C  C54  1  0.10700000  0.98480000  0.48810000  1.0 -0.1281993131
C  C55  1  0.10700000  0.51520000  0.98810000  1.0 -0.1281993131
C  C56  1  0.89300000  0.01520000  0.51190000  1.0 -0.1281993131
C  C57  1  0.94830000  0.48170000  0.09440000  1.0 0.0753633554
C  C58  1  0.05170000  0.98170000  0.40560000  1.0 0.0708562086
C  C59  1  0.05170000  0.51830000  0.90560000  1.0 0.0708562086
C  C60  1  0.94830000  0.01830000  0.59440000  1.0 0.0753633554
C  C61  1  0.93800000  0.63820000  0.22120000  1.0 0.120252599
C  C62  1  0.06200000  0.13820000  0.27880000  1.0 0.120252599
C  C63  1  0.06200000  0.36180000  0.77880000  1.0 0.120252599
C  C64  1  0.93800000  0.86180000  0.72120000  1.0 0.120252599
C  C65  1  0.91160000  0.65450000  0.14990000  1.0 -0.1810985525
C  C66  1  0.08840000  0.15450000  0.35010000  1.0 -0.1810985525
C  C67  1  0.08840000  0.34550000  0.85010000  1.0 -0.1810985525
C  C68  1  0.91160000  0.84550000  0.64990000  1.0 -0.1810985525
C  C69  1  0.89110000  0.68500000  0.14650000  1.0 0.0915214305
C  C70  1  0.10890000  0.18500000  0.35350000  1.0 0.0915214305
C  C71  1  0.10890000  0.31500000  0.85350000  1.0 0.0915214305
C  C72  1  0.89110000  0.81500000  0.64650000  1.0 0.0915214305
C  C73  1  0.91340000  0.68470000  0.27420000  1.0 0.0708562086
C  C74  1  0.08660000  0.18470000  0.22580000  1.0 0.0708562086
C  C75  1  0.08660000  0.31530000  0.72580000  1.0 0.0708562086
C  C76  1  0.91340000  0.81530000  0.77420000  1.0 0.0708562086
C  C77  1  0.93560000  0.65460000  0.28440000  1.0 -0.1726468649
C  C78  1  0.06440000  0.15460000  0.21560000  1.0 -0.1726468649
C  C79  1  0.06440000  0.34540000  0.71560000  1.0 -0.1726468649
C  C80  1  0.93560000  0.84540000  0.78440000  1.0 -0.1726468649
C  C81  1  0.22790000  0.52540000  0.26270000  1.0 0.0708562086
C  C82  1  0.77210000  0.02540000  0.23730000  1.0 0.0708562086
C  C83  1  0.77210000  0.47460000  0.73730000  1.0 0.0708562086
C  C84  1  0.22790000  0.97460000  0.76270000  1.0 0.0708562086
C  C85  1  0.31630000  0.52140000  0.26520000  1.0 -0.1383686177
C  C86  1  0.68370000  0.02140000  0.23480000  1.0 -0.1383686177
C  C87  1  0.68370000  0.47860000  0.73480000  1.0 -0.1383686177
C  C88  1  0.31630000  0.97860000  0.76520000  1.0 -0.1383686177
C  C89  1  0.35350000  0.49210000  0.27230000  1.0 -0.0409803403
C  C90  1  0.64650000  0.99210000  0.22770000  1.0 -0.0409803403
C  C91  1  0.64650000  0.50790000  0.72770000  1.0 -0.0409803403
C  C92  1  0.35350000  0.00790000  0.77230000  1.0 -0.0409803403
C  C93  1  0.30240000  0.46800000  0.27860000  1.0 -0.1508022447
C  C94  1  0.69760000  0.96800000  0.22140000  1.0 -0.1508022447
C  C95  1  0.69760000  0.53200000  0.72140000  1.0 -0.1508022447
C  C96  1  0.30240000  0.03200000  0.77860000  1.0 -0.1508022447
C  C97  1  0.21340000  0.47310000  0.27420000  1.0 0.1781766941
C  C98  1  0.78660000  0.97310000  0.22580000  1.0 0.1781766941
C  C99  1  0.78660000  0.52690000  0.72580000  1.0 0.1781766941
C  C100  1  0.21340000  0.02690000  0.77420000  1.0 0.1781766941
C  C101  1  0.15270000  0.44920000  0.28210000  1.0 0.1781766941
C  C102  1  0.84730000  0.94920000  0.21790000  1.0 0.1781766941
C  C103  1  0.84730000  0.55080000  0.71790000  1.0 0.1747315179
C  C104  1  0.15270000  0.05080000  0.78210000  1.0 0.1781766941
C  C105  1  0.16630000  0.41830000  0.28560000  1.0 -0.1889220364
C  C106  1  0.83370000  0.91830000  0.21440000  1.0 -0.1889220364
C  C107  1  0.83370000  0.58170000  0.71440000  1.0 -0.1889220364
C  C108  1  0.16630000  0.08170000  0.78560000  1.0 -0.1889220364
C  C109  1  0.09700000  0.39940000  0.29190000  1.0 0.1396261179
C  C110  1  0.90300000  0.89940000  0.20810000  1.0 0.1396261179
C  C111  1  0.90300000  0.60060000  0.70810000  1.0 0.1396261179
C  C112  1  0.09700000  0.10060000  0.79190000  1.0 0.1396261179
C  C113  1  0.01990000  0.41280000  0.29530000  1.0 -0.1810985525
C  C114  1  0.98010000  0.91280000  0.20470000  1.0 -0.1810985525
C  C115  1  0.98010000  0.58720000  0.70470000  1.0 -0.1810985525
C  C116  1  0.01990000  0.08720000  0.79530000  1.0 -0.1810985525
C  C117  1  0.00700000  0.44400000  0.28710000  1.0 0.1951820652
C  C118  1  0.99300000  0.94400000  0.21290000  1.0 0.1951820652
C  C119  1  0.99300000  0.55600000  0.71290000  1.0 0.1951820652
C  C120  1  0.00700000  0.05600000  0.78710000  1.0 0.1951820652
C  C121  1  0.92520000  0.46230000  0.28150000  1.0 0.1618050779
C  C122  1  0.07480000  0.96230000  0.21850000  1.0 0.1618050779
C  C123  1  0.07480000  0.53770000  0.71850000  1.0 0.1618050779
C  C124  1  0.92520000  0.03770000  0.78150000  1.0 0.1618050779
C  C125  1  0.84740000  0.45010000  0.28340000  1.0 -0.1383686177
C  C126  1  0.15260000  0.95010000  0.21660000  1.0 -0.1383686177
C  C127  1  0.15260000  0.54990000  0.71660000  1.0 -0.1383686177
C  C128  1  0.84740000  0.04990000  0.78340000  1.0 -0.1383686177
C  C129  1  0.77260000  0.46970000  0.27670000  1.0 -0.0283376382
C  C130  1  0.22740000  0.96970000  0.22330000  1.0 -0.0283376382
C  C131  1  0.22740000  0.53030000  0.72330000  1.0 -0.0283376382
C  C132  1  0.77260000  0.03030000  0.77670000  1.0 -0.0283376382
C  C133  1  0.78170000  0.50070000  0.26980000  1.0 -0.1123216462
C  C134  1  0.21830000  0.00070000  0.23020000  1.0 -0.1123216462
C  C135  1  0.21830000  0.49930000  0.73020000  1.0 -0.1123216462
C  C136  1  0.78170000  0.99930000  0.76980000  1.0 -0.1123216462
C  C137  1  0.86170000  0.51150000  0.26670000  1.0 0.0708562086
C  C138  1  0.13830000  0.01150000  0.23330000  1.0 0.0708562086
C  C139  1  0.13830000  0.48850000  0.73330000  1.0 0.0708562086
C  C140  1  0.86170000  0.98850000  0.76670000  1.0 0.0708562086
C  C141  1  0.10850000  0.36630000  0.29480000  1.0 0.1116024736
C  C142  1  0.89150000  0.86630000  0.20520000  1.0 0.1116024736
C  C143  1  0.89150000  0.63370000  0.70520000  1.0 0.1116024736
C  C144  1  0.10850000  0.13370000  0.79480000  1.0 0.1116024736
C  C145  1  0.12730000  0.35070000  0.24070000  1.0 -0.1618824564
C  C146  1  0.87270000  0.85070000  0.25930000  1.0 -0.1618824564
C  C147  1  0.87270000  0.64930000  0.75930000  1.0 -0.1618824564
C  C148  1  0.12730000  0.14930000  0.74070000  1.0 -0.1618824564
C  C149  1  0.12810000  0.31940000  0.24050000  1.0 0.0708562086
C  C150  1  0.87190000  0.81940000  0.25950000  1.0 0.0708562086
C  C151  1  0.87190000  0.68060000  0.75950000  1.0 0.0708562086
C  C152  1  0.12810000  0.18060000  0.74050000  1.0 0.0708562086
C  C153  1  0.10340000  0.31730000  0.34630000  1.0 0.1011868839
C  C154  1  0.89660000  0.81730000  0.15370000  1.0 0.1011868839
C  C155  1  0.89660000  0.68270000  0.65370000  1.0 0.1011868839
C  C156  1  0.10340000  0.18270000  0.84630000  1.0 0.1011868839
C  C157  1  0.09780000  0.34850000  0.35010000  1.0 -0.1726468649
C  C158  1  0.90220000  0.84850000  0.14990000  1.0 -0.1726468649
C  C159  1  0.90220000  0.65150000  0.64990000  1.0 -0.1726468649
C  C160  1  0.09780000  0.15150000  0.85010000  1.0 -0.1726468649
C  C161  1  0.50700000  0.30990000  0.92310000  1.0 0.0538087549
C  C162  1  0.49300000  0.80990000  0.57690000  1.0 0.0538087549
C  C163  1  0.49300000  0.69010000  0.07690000  1.0 0.0538087549
C  C164  1  0.50700000  0.19010000  0.42310000  1.0 0.0538087549
C  C165  1  0.43770000  0.33350000  0.88750000  1.0 -0.1383686177
C  C166  1  0.56230000  0.83350000  0.61250000  1.0 -0.1383686177
C  C167  1  0.56230000  0.66650000  0.11250000  1.0 -0.1383686177
C  C168  1  0.43770000  0.16650000  0.38750000  1.0 -0.1383686177
C  C169  1  0.37330000  0.33850000  0.91500000  1.0 -0.008195814
C  C170  1  0.62670000  0.83850000  0.58500000  1.0 -0.008195814
C  C171  1  0.62670000  0.66150000  0.08500000  1.0 -0.008195814
C  C172  1  0.37330000  0.16150000  0.41500000  1.0 -0.008195814
C  C173  1  0.37880000  0.32020000  0.97530000  1.0 -0.1383686177
C  C174  1  0.62120000  0.82020000  0.52470000  1.0 -0.1383686177
C  C175  1  0.62120000  0.67980000  0.02470000  1.0 -0.1383686177
C  C176  1  0.37880000  0.17980000  0.47530000  1.0 -0.1383686177
C  C177  1  0.45010000  0.29750000  0.00900000  1.0 0.1618050779
C  C178  1  0.54990000  0.79750000  0.49100000  1.0 0.1618050779
C  C179  1  0.54990000  0.70250000  0.99100000  1.0 0.1618050779
C  C180  1  0.45010000  0.20250000  0.50900000  1.0 0.1618050779
C  C181  1  0.46770000  0.27730000  0.07530000  1.0 0.1904046188
C  C182  1  0.53230000  0.77730000  0.42470000  1.0 0.1904046188
C  C183  1  0.53230000  0.72270000  0.92470000  1.0 0.1904046188
C  C184  1  0.46770000  0.22270000  0.57530000  1.0 0.1904046188
C  C185  1  0.40880000  0.27480000  0.10770000  1.0 -0.1810985525
C  C186  1  0.59120000  0.77480000  0.39230000  1.0 -0.1810985525
C  C187  1  0.59120000  0.72520000  0.89230000  1.0 -0.1810985525
C  C188  1  0.40880000  0.22520000  0.60770000  1.0 -0.1810985525
C  C189  1  0.43010000  0.25240000  0.16790000  1.0 0.1396261179
C  C190  1  0.56990000  0.75240000  0.33210000  1.0 0.1396261179
C  C191  1  0.56990000  0.74760000  0.83210000  1.0 0.1396261179
C  C192  1  0.43010000  0.24760000  0.66790000  1.0 0.1396261179
C  C193  1  0.51280000  0.23400000  0.19330000  1.0 -0.2198027836
C  C194  1  0.48720000  0.73400000  0.30670000  1.0 -0.2198027836
C  C195  1  0.48720000  0.76600000  0.80670000  1.0 -0.2198027836
C  C196  1  0.51280000  0.26600000  0.69330000  1.0 -0.2198027836
C  C197  1  0.56890000  0.23730000  0.15760000  1.0 0.1781766941
C  C198  1  0.43110000  0.73730000  0.34240000  1.0 0.1781766941
C  C199  1  0.43110000  0.76270000  0.84240000  1.0 0.1781766941
C  C200  1  0.56890000  0.26270000  0.65760000  1.0 0.1781766941
C  C201  1  0.65990000  0.21990000  0.17470000  1.0 0.1499155124
C  C202  1  0.34010000  0.71990000  0.32530000  1.0 0.1499155124
C  C203  1  0.34010000  0.78010000  0.82530000  1.0 0.1499155124
C  C204  1  0.65990000  0.28010000  0.67470000  1.0 0.1499155124
C  C205  1  0.70610000  0.19790000  0.23540000  1.0 -0.1726468649
C  C206  1  0.29390000  0.69790000  0.26460000  1.0 -0.1726468649
C  C207  1  0.29390000  0.80210000  0.76460000  1.0 -0.1726468649
C  C208  1  0.70610000  0.30210000  0.73540000  1.0 -0.1726468649
C  C209  1  0.79160000  0.18360000  0.24590000  1.0 -0.008195814
C  C210  1  0.20840000  0.68360000  0.25410000  1.0 -0.008195814
C  C211  1  0.20840000  0.81640000  0.75410000  1.0 -0.008195814
C  C212  1  0.79160000  0.31640000  0.74590000  1.0 -0.008195814
C  C213  1  0.82570000  0.19170000  0.19670000  1.0 -0.1123216462
C  C214  1  0.17430000  0.69170000  0.30330000  1.0 -0.1123216462
C  C215  1  0.17430000  0.80830000  0.80330000  1.0 -0.1123216462
C  C216  1  0.82570000  0.30830000  0.69670000  1.0 -0.1123216462
C  C217  1  0.77680000  0.21370000  0.13780000  1.0 0.0915214305
C  C218  1  0.22320000  0.71370000  0.36220000  1.0 0.0915214305
C  C219  1  0.22320000  0.78630000  0.86220000  1.0 0.0915214305
C  C220  1  0.77680000  0.28630000  0.63780000  1.0 0.0915214305
C  C221  1  0.35930000  0.24880000  0.19610000  1.0 0.1116024736
C  C222  1  0.64070000  0.74880000  0.30390000  1.0 0.1116024736
C  C223  1  0.64070000  0.75120000  0.80390000  1.0 0.1116024736
C  C224  1  0.35930000  0.25120000  0.69610000  1.0 0.1116024736
C  C225  1  0.25620000  0.25440000  0.14040000  1.0 -0.1618824564
C  C226  1  0.74380000  0.75440000  0.35960000  1.0 -0.1618824564
C  C227  1  0.74380000  0.74560000  0.85960000  1.0 -0.1618824564
C  C228  1  0.25620000  0.24560000  0.64040000  1.0 -0.1618824564
C  C229  1  0.19270000  0.25280000  0.16940000  1.0 0.0915214305
C  C230  1  0.80730000  0.75280000  0.33060000  1.0 0.0915214305
C  C231  1  0.80730000  0.74720000  0.83060000  1.0 0.0915214305
C  C232  1  0.19270000  0.24720000  0.66940000  1.0 0.0915214305
C  C233  1  0.31880000  0.24020000  0.29780000  1.0 0.0915214305
C  C234  1  0.68120000  0.74020000  0.20220000  1.0 0.0915214305
C  C235  1  0.68120000  0.75980000  0.70220000  1.0 0.0915214305
C  C236  1  0.31880000  0.25980000  0.79780000  1.0 0.0915214305
C  C237  1  0.38820000  0.24030000  0.27390000  1.0 -0.1810985525
C  C238  1  0.61180000  0.74030000  0.22610000  1.0 -0.1810985525
C  C239  1  0.61180000  0.75970000  0.72610000  1.0 -0.1889220364
C  C240  1  0.38820000  0.25970000  0.77390000  1.0 -0.1810985525
C  C241  1  0.45680000  0.21170000  0.95580000  1.0 0.0581979702
C  C242  1  0.54320000  0.71170000  0.54420000  1.0 0.0581979702
C  C243  1  0.54320000  0.78830000  0.04420000  1.0 0.0581979702
C  C244  1  0.45680000  0.28830000  0.45580000  1.0 0.0581979702
C  C245  1  0.40980000  0.18880000  0.90000000  1.0 -0.121207421
C  C246  1  0.59020000  0.68880000  0.60000000  1.0 -0.121207421
C  C247  1  0.59020000  0.81120000  0.10000000  1.0 -0.121207421
C  C248  1  0.40980000  0.31120000  0.40000000  1.0 -0.121207421
C  C249  1  0.44600000  0.17910000  0.85140000  1.0 -0.02141324
C  C250  1  0.55400000  0.67910000  0.64860000  1.0 -0.02141324
C  C251  1  0.55400000  0.82090000  0.14860000  1.0 -0.02141324
C  C252  1  0.44600000  0.32090000  0.35140000  1.0 -0.02141324
C  C253  1  0.53160000  0.19370000  0.86300000  1.0 -0.1508022447
C  C254  1  0.46840000  0.69370000  0.63700000  1.0 -0.1508022447
C  C255  1  0.46840000  0.80630000  0.13700000  1.0 -0.1508022447
C  C256  1  0.53160000  0.30630000  0.36300000  1.0 -0.1508022447
C  C257  1  0.57460000  0.21730000  0.91800000  1.0 0.1396261179
C  C258  1  0.42540000  0.71730000  0.58200000  1.0 0.1396261179
C  C259  1  0.42540000  0.78270000  0.08200000  1.0 0.1396261179
C  C260  1  0.57460000  0.28270000  0.41800000  1.0 0.1396261179
C  C261  1  0.65950000  0.23560000  0.93090000  1.0 0.1781766941
C  C262  1  0.34050000  0.73560000  0.56910000  1.0 0.1781766941
C  C263  1  0.34050000  0.76440000  0.06910000  1.0 0.1781766941
C  C264  1  0.65950000  0.26440000  0.43090000  1.0 0.1781766941
C  C265  1  0.71670000  0.23150000  0.89590000  1.0 -0.2008086067
C  C266  1  0.28330000  0.73150000  0.60410000  1.0 -0.2008086067
C  C267  1  0.28330000  0.76850000  0.10410000  1.0 -0.2008086067
C  C268  1  0.71670000  0.26850000  0.39590000  1.0 -0.2008086067
C  C269  1  0.79570000  0.25160000  0.91750000  1.0 0.1302261439
C  C270  1  0.20430000  0.75160000  0.58250000  1.0 0.1302261439
C  C271  1  0.20430000  0.74840000  0.08250000  1.0 0.1302261439
C  C272  1  0.79570000  0.24840000  0.41750000  1.0 0.1302261439
C  C273  1  0.81220000  0.27590000  0.97060000  1.0 -0.2008086067
C  C274  1  0.18780000  0.77590000  0.52940000  1.0 -0.2008086067
C  C275  1  0.18780000  0.72410000  0.02940000  1.0 -0.2008086067
C  C276  1  0.81220000  0.22410000  0.47060000  1.0 -0.2008086067
C  C277  1  0.75410000  0.27760000  0.00540000  1.0 0.1904046188
C  C278  1  0.24590000  0.77760000  0.49460000  1.0 0.1904046188
C  C279  1  0.24590000  0.72240000  0.99460000  1.0 0.1904046188
C  C280  1  0.75410000  0.22240000  0.50540000  1.0 0.1904046188
C  C281  1  0.76830000  0.29950000  0.06940000  1.0 0.1618050779
C  C282  1  0.23170000  0.79950000  0.43060000  1.0 0.1618050779
C  C283  1  0.23170000  0.70050000  0.93060000  1.0 0.1618050779
C  C284  1  0.76830000  0.20050000  0.56940000  1.0 0.1618050779
C  C285  1  0.83100000  0.32430000  0.09570000  1.0 -0.1383686177
C  C286  1  0.16900000  0.82430000  0.40430000  1.0 -0.1383686177
C  C287  1  0.16900000  0.67570000  0.90430000  1.0 -0.1383686177
C  C288  1  0.83100000  0.17570000  0.59570000  1.0 -0.1383686177
C  C289  1  0.83620000  0.34310000  0.15540000  1.0 -0.008195814
C  C290  1  0.16380000  0.84310000  0.34460000  1.0 -0.008195814
C  C291  1  0.16380000  0.65690000  0.84460000  1.0 -0.008195814
C  C292  1  0.83620000  0.15690000  0.65540000  1.0 -0.008195814
C  C293  1  0.77610000  0.33720000  0.18550000  1.0 -0.1281993131
C  C294  1  0.22390000  0.83720000  0.31450000  1.0 -0.1281993131
C  C295  1  0.22390000  0.66280000  0.81450000  1.0 -0.1281993131
C  C296  1  0.77610000  0.16280000  0.68550000  1.0 -0.1281993131
C  C297  1  0.71120000  0.31240000  0.15460000  1.0 0.0708562086
C  C298  1  0.28880000  0.81240000  0.34540000  1.0 0.0708562086
C  C299  1  0.28880000  0.68760000  0.84540000  1.0 0.0708562086
C  C300  1  0.71120000  0.18760000  0.65460000  1.0 0.0708562086
C  C301  1  0.86570000  0.24850000  0.88890000  1.0 0.120252599
C  C302  1  0.13430000  0.74850000  0.61110000  1.0 0.120252599
C  C303  1  0.13430000  0.75150000  0.11110000  1.0 0.120252599
C  C304  1  0.86570000  0.25150000  0.38890000  1.0 0.120252599
C  C305  1  0.83700000  0.23680000  0.81120000  1.0 -0.1889220364
C  C306  1  0.16300000  0.73680000  0.68880000  1.0 -0.1889220364
C  C307  1  0.16300000  0.76320000  0.18880000  1.0 -0.1889220364
C  C308  1  0.83700000  0.26320000  0.31120000  1.0 -0.1889220364
C  C309  1  0.90720000  0.23600000  0.78940000  1.0 0.1011868839
C  C310  1  0.09280000  0.73600000  0.71060000  1.0 0.1011868839
C  C311  1  0.09280000  0.76400000  0.21060000  1.0 0.1011868839
C  C312  1  0.90720000  0.26400000  0.28940000  1.0 0.1011868839
C  C313  1  0.03010000  0.25590000  0.91300000  1.0 0.0708562086
C  C314  1  0.96990000  0.75590000  0.58700000  1.0 0.0708562086
C  C315  1  0.96990000  0.74410000  0.08700000  1.0 0.0708562086
C  C316  1  0.03010000  0.24410000  0.41300000  1.0 0.0708562086
C  C317  1  0.96550000  0.25740000  0.93920000  1.0 -0.1508022447
C  C318  1  0.03450000  0.75740000  0.56080000  1.0 -0.1508022447
C  C319  1  0.03450000  0.74260000  0.06080000  1.0 -0.1508022447
C  C320  1  0.96550000  0.24260000  0.43920000  1.0 -0.1508022447
C  C321  1  0.54000000  0.35190000  0.19800000  1.0 -0.2095190932
C  C322  1  0.46000000  0.85190000  0.30200000  1.0 -0.2095190932
C  C323  1  0.46000000  0.64810000  0.80200000  1.0 -0.2095190932
C  C324  1  0.54000000  0.14810000  0.69800000  1.0 -0.2095190932
N  N1  1  0.12600000  0.51660000  0.38460000  1.0 -0.1810985525
N  N2  1  0.87400000  0.01660000  0.11540000  1.0 -0.1810985525
N  N3  1  0.87400000  0.48340000  0.61540000  1.0 -0.1810985525
N  N4  1  0.12600000  0.98340000  0.88460000  1.0 -0.1810985525
N  N5  1  0.02410000  0.54550000  0.25300000  1.0 -0.2095190932
N  N6  1  0.97590000  0.04550000  0.24700000  1.0 -0.2095190932
N  N7  1  0.97590000  0.45450000  0.74700000  1.0 -0.2095190932
N  N8  1  0.02410000  0.95450000  0.75300000  1.0 -0.2095190932
N  N9  1  0.96940000  0.50490000  0.14670000  1.0 -0.1889220364
N  N10  1  0.03060000  0.00490000  0.35330000  1.0 -0.1889220364
N  N11  1  0.03060000  0.49510000  0.85330000  1.0 -0.1889220364
N  N12  1  0.96940000  0.99510000  0.64670000  1.0 -0.1889220364
N  N13  1  0.89170000  0.70090000  0.20600000  1.0 -0.2318132197
N  N14  1  0.10830000  0.20090000  0.29400000  1.0 -0.2318132197
N  N15  1  0.10830000  0.29910000  0.79400000  1.0 -0.2318132197
N  N16  1  0.89170000  0.79910000  0.70600000  1.0 -0.2318132197
N  N17  1  0.17680000  0.50160000  0.26730000  1.0 -0.1810985525
N  N18  1  0.82320000  0.00160000  0.23270000  1.0 -0.1810985525
N  N19  1  0.82320000  0.49840000  0.73270000  1.0 -0.1810985525
N  N20  1  0.17680000  0.99840000  0.76730000  1.0 -0.1810985525
N  N21  1  0.07330000  0.46160000  0.28130000  1.0 -0.2198027836
N  N22  1  0.92670000  0.96160000  0.21870000  1.0 -0.2095190932
N  N23  1  0.92670000  0.53840000  0.71870000  1.0 -0.2095190932
N  N24  1  0.07330000  0.03840000  0.78130000  1.0 -0.2198027836
N  N25  1  0.93510000  0.49270000  0.27200000  1.0 -0.1810985525
N  N26  1  0.06490000  0.99270000  0.22800000  1.0 -0.1726468649
N  N27  1  0.06490000  0.50730000  0.72800000  1.0 -0.1810985525
N  N28  1  0.93510000  0.00730000  0.77200000  1.0 -0.1810985525
N  N29  1  0.11720000  0.30210000  0.29390000  1.0 -0.2198027836
N  N30  1  0.88280000  0.80210000  0.20610000  1.0 -0.2198027836
N  N31  1  0.88280000  0.69790000  0.70610000  1.0 -0.2198027836
N  N32  1  0.11720000  0.19790000  0.79390000  1.0 -0.2198027836
N  N33  1  0.51150000  0.29160000  0.98090000  1.0 -0.1889220364
N  N34  1  0.48850000  0.79160000  0.51910000  1.0 -0.1889220364
N  N35  1  0.48850000  0.70840000  0.01910000  1.0 -0.1889220364
N  N36  1  0.51150000  0.20840000  0.48090000  1.0 -0.1889220364
N  N37  1  0.54480000  0.25860000  0.09930000  1.0 -0.2198027836
N  N38  1  0.45520000  0.75860000  0.40070000  1.0 -0.2198027836
N  N39  1  0.45520000  0.74140000  0.90070000  1.0 -0.2198027836
N  N40  1  0.54480000  0.24140000  0.59930000  1.0 -0.2198027836
N  N41  1  0.69610000  0.22810000  0.12650000  1.0 -0.1810985525
N  N42  1  0.30390000  0.72810000  0.37350000  1.0 -0.1810985525
N  N43  1  0.30390000  0.77190000  0.87350000  1.0 -0.1810985525
N  N44  1  0.69610000  0.27190000  0.62650000  1.0 -0.1810985525
N  N45  1  0.22250000  0.24690000  0.24660000  1.0 -0.2008086067
N  N46  1  0.77750000  0.74690000  0.25340000  1.0 -0.2008086067
N  N47  1  0.77750000  0.75310000  0.75340000  1.0 -0.2008086067
N  N48  1  0.22250000  0.25310000  0.74660000  1.0 -0.2008086067
N  N49  1  0.53920000  0.22580000  0.96690000  1.0 -0.1889220364
N  N50  1  0.46080000  0.72580000  0.53310000  1.0 -0.1889220364
N  N51  1  0.46080000  0.77420000  0.03310000  1.0 -0.1889220364
N  N52  1  0.53920000  0.27420000  0.46690000  1.0 -0.1889220364
N  N53  1  0.68000000  0.25790000  0.98630000  1.0 -0.2318132197
N  N54  1  0.32000000  0.75790000  0.51370000  1.0 -0.2318132197
N  N55  1  0.32000000  0.74210000  0.01370000  1.0 -0.2318132197
N  N56  1  0.68000000  0.24210000  0.48630000  1.0 -0.2318132197
N  N57  1  0.70810000  0.29340000  0.09880000  1.0 -0.1889220364
N  N58  1  0.29190000  0.79340000  0.40120000  1.0 -0.2008086067
N  N59  1  0.29190000  0.70660000  0.90120000  1.0 -0.2008086067
N  N60  1  0.70810000  0.20660000  0.59880000  1.0 -0.1889220364
N  N61  1  0.00210000  0.24600000  0.83620000  1.0 -0.2198027836
N  N62  1  0.99790000  0.74600000  0.66380000  1.0 -0.2198027836
N  N63  1  0.99790000  0.75400000  0.16380000  1.0 -0.2198027836
N  N64  1  0.00210000  0.25400000  0.33620000  1.0 -0.2198027836
Cl  Cl1  1  0.97640000  0.25266000  0.15333000  1.0 -0.5035494019
Cl  Cl2  1  0.02360000  0.75266000  0.34667000  1.0 -0.5035494019
Cl  Cl3  1  0.02360000  0.74734000  0.84667000  1.0 -0.5035494019
Cl  Cl4  1  0.97640000  0.24734000  0.65333000  1.0 -0.5035494019
Cl  Cl5  1  0.24795000  0.25287000  0.43336000  1.0 -0.5288636201
Cl  Cl6  1  0.75205000  0.75287000  0.06664000  1.0 -0.5288636201
Cl  Cl7  1  0.75205000  0.74713000  0.56664000  1.0 -0.5288636201
Cl  Cl8  1  0.24795000  0.24713000  0.93336000  1.0 -0.5221783369
Cl  Cl9  1  0.02880000  0.67740000  0.54940000  1.0 -0.5221783369
Cl  Cl10  1  0.97120000  0.17740000  0.95060000  1.0 -0.5221783369
Cl  Cl11  1  0.97120000  0.32260000  0.45060000  1.0 -0.5221783369
Cl  Cl12  1  0.02880000  0.82260000  0.04940000  1.0 -0.5221783369
Cl  Cl13  1  0.20850000  0.61564000  0.64760000  1.0 -0.54991701
Cl  Cl14  1  0.79150000  0.11564000  0.85240000  1.0 -0.54991701
Cl  Cl15  1  0.79150000  0.38436000  0.35240000  1.0 -0.54991701
Cl  Cl16  1  0.20850000  0.88436000  0.14760000  1.0 -0.54991701
Cl  Cl17  1  0.18550000  0.65322000  0.47630000  1.0 -0.5288636201
Cl  Cl18  1  0.81450000  0.15322000  0.02370000  1.0 -0.5288636201
Cl  Cl19  1  0.81450000  0.34678000  0.52370000  1.0 -0.5288636201
Cl  Cl20  1  0.18550000  0.84678000  0.97630000  1.0 -0.5288636201
Cl  Cl21  1  0.96400000  0.53841000  0.46760000  1.0 -0.5288636201
Cl  Cl22  1  0.03600000  0.03841000  0.03240000  1.0 -0.5288636201
Cl  Cl23  1  0.03600000  0.46159000  0.53240000  1.0 -0.5288636201
Cl  Cl24  1  0.96400000  0.96159000  0.96760000  1.0 -0.5288636201
Cl  Cl25  1  0.82220000  0.59379000  0.49560000  1.0 -0.5221783369
Cl  Cl26  1  0.17780000  0.09379000  0.00440000  1.0 -0.5221783369
Cl  Cl27  1  0.17780000  0.40621000  0.50440000  1.0 -0.5221783369
Cl  Cl28  1  0.82220000  0.90621000  0.99560000  1.0 -0.5221783369
Cl  Cl29  1  0.79870000  0.58754000  0.29970000  1.0 -0.54991701
Cl  Cl30  1  0.20130000  0.08754000  0.20030000  1.0 -0.54991701
Cl  Cl31  1  0.20130000  0.41246000  0.70030000  1.0 -0.54991701
Cl  Cl32  1  0.79870000  0.91246000  0.79970000  1.0 -0.54991701
Cl  Cl33  1  0.32410000  0.39100000  0.21550000  1.0 -0.54991701
Cl  Cl34  1  0.67590000  0.89100000  0.28450000  1.0 -0.54991701
Cl  Cl35  1  0.67590000  0.60900000  0.78450000  1.0 -0.54991701
Cl  Cl36  1  0.32410000  0.10900000  0.71550000  1.0 -0.54991701
Cl  Cl37  1  0.30650000  0.39252000  0.02140000  1.0 -0.5378260588
Cl  Cl38  1  0.69350000  0.89252000  0.47860000  1.0 -0.5378260588
Cl  Cl39  1  0.69350000  0.60748000  0.97860000  1.0 -0.5378260588
Cl  Cl40  1  0.30650000  0.10748000  0.52140000  1.0 -0.5378260588
Cl  Cl41  1  0.21810000  0.32718000  0.08120000  1.0 -0.5288636201
Cl  Cl42  1  0.78190000  0.82718000  0.41880000  1.0 -0.5288636201
Cl  Cl43  1  0.78190000  0.67282000  0.91880000  1.0 -0.5288636201
Cl  Cl44  1  0.21810000  0.17282000  0.58120000  1.0 -0.5288636201
Cl  Cl45  1  0.88300000  0.41495000  0.88110000  1.0 -0.54991701
Cl  Cl46  1  0.11700000  0.91495000  0.61890000  1.0 -0.54991701
Cl  Cl47  1  0.11700000  0.58505000  0.11890000  1.0 -0.54991701
Cl  Cl48  1  0.88300000  0.08505000  0.38110000  1.0 -0.54991701
Cl  Cl49  1  0.93540000  0.40062000  0.08220000  1.0 -0.5288636201
Cl  Cl50  1  0.06460000  0.90062000  0.41780000  1.0 -0.5288636201
Cl  Cl51  1  0.06460000  0.59938000  0.91780000  1.0 -0.5288636201
Cl  Cl52  1  0.93540000  0.09938000  0.58220000  1.0 -0.5288636201
Cl  Cl53  1  0.94330000  0.33899000  0.96210000  1.0 -0.5378260588
Cl  Cl54  1  0.05670000  0.83899000  0.53790000  1.0 -0.5378260588
Cl  Cl55  1  0.05670000  0.66101000  0.03790000  1.0 -0.5378260588
Cl  Cl56  1  0.94330000  0.16101000  0.46210000  1.0 -0.5378260588
O  O1  1  0.00610000  0.61200000  0.46670000  1.0 -0.6694911172
O  O2  1  0.99390000  0.11200000  0.03330000  1.0 -0.6694911172
O  O3  1  0.99390000  0.38800000  0.53330000  1.0 -0.6694911172
O  O4  1  0.00610000  0.88800000  0.96670000  1.0 -0.6694911172
O  O5  1  0.10840000  0.39332000  0.03500000  1.0 -0.7052957465
O  O6  1  0.89160000  0.89332000  0.46500000  1.0 -0.7048051407
O  O7  1  0.89160000  0.60668000  0.96500000  1.0 -0.7048051407
O  O8  1  0.10840000  0.10668000  0.53500000  1.0 -0.7048051407
O  O9  1  0.62020000  0.33420000  0.25800000  1.0 -0.4191729104
O  O10  1  0.37980000  0.83420000  0.24200000  1.0 -0.4191729104
O  O11  1  0.37980000  0.66580000  0.74200000  1.0 -0.4191729104
O  O12  1  0.62020000  0.16580000  0.75800000  1.0 -0.4191729104
