# DDEC6 charges by PACMAN v1.1 (https://github.com/mtap-research/PACMAN-charge/)
data_KICCEI_ASR_pacman
_symmetry_space_group_name_H-M   'P 1'
_cell_length_a   15.98140000
_cell_length_b   29.82480000
_cell_length_c   16.46430000
_cell_angle_alpha   90.00000000
_cell_angle_beta   103.25200000
_cell_angle_gamma   90.00000000
_symmetry_Int_Tables_number   1
_chemical_formula_structural   Fe4H39C57O14
_chemical_formula_sum   'Fe16 H156 C228 O56'
_cell_volume   7638.60671579
_cell_formula_units_Z   4
loop_
 _symmetry_equiv_pos_site_id
 _symmetry_equiv_pos_as_xyz
  1  'x, y, z'
loop_
 _atom_site_type_symbol
 _atom_site_label
 _atom_site_symmetry_multiplicity
 _atom_site_fract_x
 _atom_site_fract_y
 _atom_site_fract_z
 _atom_site_occupancy
 _atom_site_charge
Fe  Fe1  1  0.26216000  0.32528000  0.14017000  1.0 0.935890796
Fe  Fe2  1  0.23784000  0.82528000  0.85983000  1.0 0.9326729796
Fe  Fe3  1  0.73784000  0.67472000  0.85983000  1.0 0.935890796
Fe  Fe4  1  0.76216000  0.17472000  0.14017000  1.0 0.935890796
Fe  Fe5  1  0.43929000  0.29369000  0.27903000  1.0 0.496196585
Fe  Fe6  1  0.06071000  0.79369000  0.72097000  1.0 0.496196585
Fe  Fe7  1  0.56071000  0.70631000  0.72097000  1.0 0.496196585
Fe  Fe8  1  0.93929000  0.20631000  0.27903000  1.0 0.496196585
Fe  Fe9  1  0.92996000  0.71734000  0.74127000  1.0 1.0420926235
Fe  Fe10  1  0.57004000  0.21734000  0.25873000  1.0 1.0420926235
Fe  Fe11  1  0.07004000  0.28266000  0.25873000  1.0 1.0420926235
Fe  Fe12  1  0.42996000  0.78266000  0.74127000  1.0 1.0420926235
Fe  Fe13  1  0.38170000  0.29330000  0.27070000  1.0 0.3876520715
Fe  Fe14  1  0.11830000  0.79330000  0.72930000  1.0 0.3876520715
Fe  Fe15  1  0.61830000  0.70670000  0.72930000  1.0 0.3876520715
Fe  Fe16  1  0.88170000  0.20670000  0.27070000  1.0 0.3876520715
H  H1  1  0.74590000  0.79269000  0.76019000  1.0 0.0870306935
H  H2  1  0.75410000  0.29269000  0.23981000  1.0 0.0870306935
H  H3  1  0.25410000  0.20731000  0.23981000  1.0 0.0870306935
H  H4  1  0.24590000  0.70731000  0.76019000  1.0 0.0870306935
H  H5  1  0.71045000  0.84306000  0.75179000  1.0 0.1020998417
H  H6  1  0.78955000  0.34306000  0.24821000  1.0 0.1020998417
H  H7  1  0.28955000  0.15694000  0.24821000  1.0 0.1020998417
H  H8  1  0.21045000  0.65694000  0.75179000  1.0 0.1020998417
H  H9  1  0.74295000  0.82095000  0.84210000  1.0 0.1109034467
H  H10  1  0.75705000  0.32095000  0.15790000  1.0 0.1109034467
H  H11  1  0.25705000  0.17905000  0.15790000  1.0 0.1109034467
H  H12  1  0.24295000  0.67905000  0.84210000  1.0 0.1109034467
H  H13  1  0.85676000  0.82503000  0.75318000  1.0 0.1109034467
H  H14  1  0.64324000  0.32503000  0.24682000  1.0 0.1020998417
H  H15  1  0.14324000  0.17497000  0.24682000  1.0 0.1020998417
H  H16  1  0.35676000  0.67497000  0.75318000  1.0 0.1109034467
H  H17  1  0.90407000  0.82890000  0.62108000  1.0 0.0806433444
H  H18  1  0.59593000  0.32890000  0.37892000  1.0 0.0806433444
H  H19  1  0.09593000  0.17110000  0.37892000  1.0 0.0806433444
H  H20  1  0.40407000  0.67110000  0.62108000  1.0 0.0806433444
H  H21  1  0.82083000  0.80895000  0.64680000  1.0 0.047255732
H  H22  1  0.67917000  0.30895000  0.35320000  1.0 0.047255732
H  H23  1  0.17917000  0.19105000  0.35320000  1.0 0.047255732
H  H24  1  0.32083000  0.69105000  0.64680000  1.0 0.047255732
H  H25  1  0.87027000  0.77979000  0.59089000  1.0 0.1020998417
H  H26  1  0.62973000  0.27979000  0.40911000  1.0 0.1109034467
H  H27  1  0.12973000  0.22021000  0.40911000  1.0 0.1020998417
H  H28  1  0.37027000  0.72021000  0.59089000  1.0 0.1109034467
H  H29  1  0.60850000  0.63960000  0.61761000  1.0 0.1109034467
H  H30  1  0.89150000  0.13960000  0.38239000  1.0 0.1109034467
H  H31  1  0.39150000  0.36040000  0.38239000  1.0 0.1109034467
H  H32  1  0.10850000  0.86040000  0.61761000  1.0 0.1109034467
H  H33  1  0.54425000  0.64069000  0.03418000  1.0 0.1379772576
H  H34  1  0.95575000  0.14069000  0.96582000  1.0 0.1379772576
H  H35  1  0.45575000  0.35931000  0.96582000  1.0 0.1379772576
H  H36  1  0.04425000  0.85931000  0.03418000  1.0 0.1379772576
H  H37  1  0.39151000  0.53463000  0.15196000  1.0 0.1183179643
H  H38  1  0.10849000  0.03463000  0.84804000  1.0 0.1183179643
H  H39  1  0.60849000  0.46537000  0.84804000  1.0 0.1183179643
H  H40  1  0.89151000  0.96537000  0.15196000  1.0 0.1183179643
H  H41  1  0.34391000  0.46189000  0.13743000  1.0 0.1183179643
H  H42  1  0.15609000  0.96189000  0.86257000  1.0 0.1183179643
H  H43  1  0.65609000  0.53811000  0.86257000  1.0 0.1183179643
H  H44  1  0.84391000  0.03811000  0.13743000  1.0 0.1183179643
H  H45  1  0.09974000  0.57893000  0.10454000  1.0 0.1109034467
H  H46  1  0.40026000  0.07893000  0.89546000  1.0 0.1109034467
H  H47  1  0.90026000  0.42107000  0.89546000  1.0 0.1109034467
H  H48  1  0.59974000  0.92107000  0.10454000  1.0 0.1109034467
H  H49  1  0.05830000  0.66098000  0.87575000  1.0 0.1285645387
H  H50  1  0.44170000  0.16098000  0.12425000  1.0 0.1285645387
H  H51  1  0.94170000  0.33902000  0.12425000  1.0 0.1285645387
H  H52  1  0.55830000  0.83902000  0.87575000  1.0 0.1285645387
H  H53  1  0.58564000  0.56705000  0.37258000  1.0 0.1109034467
H  H54  1  0.91436000  0.06705000  0.62742000  1.0 0.1109034467
H  H55  1  0.41436000  0.43295000  0.62742000  1.0 0.1109034467
H  H56  1  0.08564000  0.93295000  0.37258000  1.0 0.1109034467
H  H57  1  0.58719000  0.69143000  0.28055000  1.0 0.1183179643
H  H58  1  0.91281000  0.19143000  0.71945000  1.0 0.1183179643
H  H59  1  0.41281000  0.30857000  0.71945000  1.0 0.1183179643
H  H60  1  0.08719000  0.80857000  0.28055000  1.0 0.1183179643
H  H61  1  0.78519000  0.71063000  0.53336000  1.0 0.1285645387
H  H62  1  0.71481000  0.21063000  0.46664000  1.0 0.1285645387
H  H63  1  0.21481000  0.28937000  0.46664000  1.0 0.1285645387
H  H64  1  0.28519000  0.78937000  0.53336000  1.0 0.1285645387
H  H65  1  0.04790000  0.61983000  0.99239000  1.0 0.1183179643
H  H66  1  0.45210000  0.11983000  0.00761000  1.0 0.1183179643
H  H67  1  0.95210000  0.38017000  0.00761000  1.0 0.1183179643
H  H68  1  0.54790000  0.88017000  0.99239000  1.0 0.1183179643
H  H69  1  0.15430000  0.72230000  0.14074000  1.0 0.1109034467
H  H70  1  0.34570000  0.22230000  0.85926000  1.0 0.1109034467
H  H71  1  0.84570000  0.27770000  0.85926000  1.0 0.1109034467
H  H72  1  0.65430000  0.77770000  0.14074000  1.0 0.1109034467
H  H73  1  0.17997000  0.51680000  0.15501000  1.0 0.1109034467
H  H74  1  0.32003000  0.01680000  0.84499000  1.0 0.1109034467
H  H75  1  0.82003000  0.48320000  0.84499000  1.0 0.1109034467
H  H76  1  0.67997000  0.98320000  0.15501000  1.0 0.1109034467
H  H77  1  0.19781000  0.43902000  0.15501000  1.0 0.1183179643
H  H78  1  0.30219000  0.93902000  0.84499000  1.0 0.1183179643
H  H79  1  0.80219000  0.56098000  0.84499000  1.0 0.1183179643
H  H80  1  0.69781000  0.06098000  0.15501000  1.0 0.1183179643
H  H81  1  0.16161000  0.76385000  0.02200000  1.0 0.1183179643
H  H82  1  0.33839000  0.26385000  0.97800000  1.0 0.1183179643
H  H83  1  0.83839000  0.23615000  0.97800000  1.0 0.1183179643
H  H84  1  0.66161000  0.73615000  0.02200000  1.0 0.1183179643
H  H85  1  0.72644000  0.68611000  0.39572000  1.0 0.1183179643
H  H86  1  0.77356000  0.18611000  0.60428000  1.0 0.1183179643
H  H87  1  0.27356000  0.31389000  0.60428000  1.0 0.1183179643
H  H88  1  0.22644000  0.81389000  0.39572000  1.0 0.1183179643
H  H89  1  0.98782000  0.50318000  0.27202000  1.0 0.1109034467
H  H90  1  0.51218000  0.00318000  0.72798000  1.0 0.1109034467
H  H91  1  0.01218000  0.49682000  0.72798000  1.0 0.1109034467
H  H92  1  0.48782000  0.99682000  0.27202000  1.0 0.1109034467
H  H93  1  0.60452000  0.49479000  0.31905000  1.0 0.1183179643
H  H94  1  0.89548000  0.99479000  0.68095000  1.0 0.1183179643
H  H95  1  0.39548000  0.50521000  0.68095000  1.0 0.1183179643
H  H96  1  0.10452000  0.00521000  0.31905000  1.0 0.1183179643
H  H97  1  0.55461000  0.42149000  0.30373000  1.0 0.1379772576
H  H98  1  0.94539000  0.92149000  0.69627000  1.0 0.1379772576
H  H99  1  0.44539000  0.57851000  0.69627000  1.0 0.1379772576
H  H100  1  0.05461000  0.07851000  0.30373000  1.0 0.1379772576
H  H101  1  0.48762000  0.58883000  0.12700000  1.0 0.1183179643
H  H102  1  0.01238000  0.08883000  0.87300000  1.0 0.1183179643
H  H103  1  0.51238000  0.41117000  0.87300000  1.0 0.1183179643
H  H104  1  0.98762000  0.91117000  0.12700000  1.0 0.1183179643
H  H105  1  0.00271000  0.42593000  0.27203000  1.0 0.1285645387
H  H106  1  0.49729000  0.92593000  0.72797000  1.0 0.1285645387
H  H107  1  0.99729000  0.57407000  0.72797000  1.0 0.1285645387
H  H108  1  0.50271000  0.07407000  0.27203000  1.0 0.1285645387
H  H109  1  0.06338000  0.69298000  0.22262000  1.0 0.1109034467
H  H110  1  0.43662000  0.19298000  0.77738000  1.0 0.1109034467
H  H111  1  0.93662000  0.30702000  0.77738000  1.0 0.1109034467
H  H112  1  0.56338000  0.80702000  0.22262000  1.0 0.1109034467
H  H113  1  0.93754000  0.64894000  0.51527000  1.0 0.1285645387
H  H114  1  0.56246000  0.14894000  0.48473000  1.0 0.1285645387
H  H115  1  0.06246000  0.35106000  0.48473000  1.0 0.1285645387
H  H116  1  0.43754000  0.85106000  0.51527000  1.0 0.1285645387
H  H117  1  0.04754000  0.57328000  0.33170000  1.0 0.1109034467
H  H118  1  0.45246000  0.07328000  0.66830000  1.0 0.1109034467
H  H119  1  0.95246000  0.42672000  0.66830000  1.0 0.1109034467
H  H120  1  0.54754000  0.92672000  0.33170000  1.0 0.1109034467
H  H121  1  0.55167000  0.61257000  0.48234000  1.0 0.1183179643
H  H122  1  0.94833000  0.11257000  0.51766000  1.0 0.1183179643
H  H123  1  0.44833000  0.38743000  0.51766000  1.0 0.1183179643
H  H124  1  0.05167000  0.88743000  0.48234000  1.0 0.1183179643
H  H125  1  0.95177000  0.61555000  0.39224000  1.0 0.1183179643
H  H126  1  0.54823000  0.11555000  0.60776000  1.0 0.1183179643
H  H127  1  0.04823000  0.38445000  0.60776000  1.0 0.1183179643
H  H128  1  0.45177000  0.88445000  0.39224000  1.0 0.1183179643
H  H129  1  0.10421000  0.74630000  0.48585000  1.0 0.1183179643
H  H130  1  0.39579000  0.24630000  0.51415000  1.0 0.1183179643
H  H131  1  0.89579000  0.25370000  0.51415000  1.0 0.1183179643
H  H132  1  0.60421000  0.75370000  0.48585000  1.0 0.1183179643
H  H133  1  0.37542000  0.76226000  0.06852000  1.0 0.1183179643
H  H134  1  0.12458000  0.26226000  0.93148000  1.0 0.1183179643
H  H135  1  0.62458000  0.23774000  0.93148000  1.0 0.1183179643
H  H136  1  0.87542000  0.73774000  0.06852000  1.0 0.1183179643
H  H137  1  0.44698000  0.72097000  0.18444000  1.0 0.1109034467
H  H138  1  0.05302000  0.22097000  0.81556000  1.0 0.1109034467
H  H139  1  0.55302000  0.27903000  0.81556000  1.0 0.1109034467
H  H140  1  0.94698000  0.77903000  0.18444000  1.0 0.1109034467
H  H141  1  0.11304000  0.71412000  0.35939000  1.0 0.1109034467
H  H142  1  0.38696000  0.21412000  0.64061000  1.0 0.1109034467
H  H143  1  0.88696000  0.28588000  0.64061000  1.0 0.1109034467
H  H144  1  0.61304000  0.78588000  0.35939000  1.0 0.1109034467
H  H145  1  0.87451000  0.81715000  0.77980000  1.0 0.1492599158
H  H146  1  0.62549000  0.31715000  0.22020000  1.0 0.1492599158
H  H147  1  0.12549000  0.18285000  0.22020000  1.0 0.1492599158
H  H148  1  0.37451000  0.68285000  0.77980000  1.0 0.1492599158
H  H149  1  0.81166000  0.79894000  0.69629000  1.0 0.0712402314
H  H150  1  0.68834000  0.29894000  0.30371000  1.0 0.0712402314
H  H151  1  0.18834000  0.20106000  0.30371000  1.0 0.0712402314
H  H152  1  0.31166000  0.70106000  0.69629000  1.0 0.0712402314
H  H153  1  0.87437000  0.84028000  0.69206000  1.0 0.047255732
H  H154  1  0.62563000  0.34028000  0.30794000  1.0 0.047255732
H  H155  1  0.12563000  0.15972000  0.30794000  1.0 0.047255732
H  H156  1  0.37437000  0.65972000  0.69206000  1.0 0.047255732
C  C1  1  0.75250000  0.82260000  0.78550000  1.0 -0.2765542844
C  C2  1  0.74750000  0.32260000  0.21450000  1.0 -0.2765542844
C  C3  1  0.24750000  0.17740000  0.21450000  1.0 -0.2765542844
C  C4  1  0.25250000  0.67740000  0.78550000  1.0 -0.2765542844
C  C5  1  0.87730000  0.80160000  0.63650000  1.0 -0.1581974679
C  C6  1  0.62270000  0.30160000  0.36350000  1.0 -0.1581974679
C  C7  1  0.12270000  0.19840000  0.36350000  1.0 -0.1581974679
C  C8  1  0.37730000  0.69840000  0.63650000  1.0 -0.1581974679
C  C9  1  0.63190000  0.64934000  0.57260000  1.0 -0.141386748
C  C10  1  0.86810000  0.14934000  0.42740000  1.0 -0.141386748
C  C11  1  0.36810000  0.35066000  0.42740000  1.0 -0.141386748
C  C12  1  0.13190000  0.85066000  0.57260000  1.0 -0.141386748
C  C13  1  0.51170000  0.66646000  0.04130000  1.0 -0.1796325722
C  C14  1  0.98830000  0.16646000  0.95870000  1.0 -0.1796325722
C  C15  1  0.48830000  0.33354000  0.95870000  1.0 -0.1796325722
C  C16  1  0.01170000  0.83354000  0.04130000  1.0 -0.1796325722
C  C17  1  0.11020000  0.37400000  0.20510000  1.0 0.5795604012
C  C18  1  0.38980000  0.87400000  0.79490000  1.0 0.5795604012
C  C19  1  0.88980000  0.62600000  0.79490000  1.0 0.5795604012
C  C20  1  0.61020000  0.12600000  0.20510000  1.0 0.5795604012
C  C21  1  0.44650000  0.43416000  0.22060000  1.0 -0.0101807667
C  C22  1  0.05350000  0.93416000  0.77940000  1.0 -0.0101807667
C  C23  1  0.55350000  0.56584000  0.77940000  1.0 -0.0101807667
C  C24  1  0.94650000  0.06584000  0.22060000  1.0 -0.0101807667
C  C25  1  0.73530000  0.69705000  0.67200000  1.0 0.3182180173
C  C26  1  0.76470000  0.19705000  0.32800000  1.0 0.3182180173
C  C27  1  0.26470000  0.30295000  0.32800000  1.0 0.3182180173
C  C28  1  0.23530000  0.80295000  0.67200000  1.0 0.3182180173
C  C29  1  0.63180000  0.64796000  0.42500000  1.0 0.0806433444
C  C30  1  0.86820000  0.14796000  0.57500000  1.0 0.0806433444
C  C31  1  0.36820000  0.35204000  0.57500000  1.0 0.0806433444
C  C32  1  0.13180000  0.85204000  0.42500000  1.0 0.0806433444
C  C33  1  0.42560000  0.51165000  0.18320000  1.0 -0.151346863
C  C34  1  0.07440000  0.01165000  0.81680000  1.0 -0.151346863
C  C35  1  0.57440000  0.48835000  0.81680000  1.0 -0.151346863
C  C36  1  0.92560000  0.98835000  0.18320000  1.0 -0.151346863
C  C37  1  0.09710000  0.66675000  0.07910000  1.0 0.0712402314
C  C38  1  0.40290000  0.16675000  0.92090000  1.0 0.0712402314
C  C39  1  0.90290000  0.33325000  0.92090000  1.0 0.0712402314
C  C40  1  0.59710000  0.83325000  0.07910000  1.0 0.0712402314
C  C41  1  0.39720000  0.46870000  0.17460000  1.0 -0.1092638302
C  C42  1  0.10280000  0.96870000  0.82540000  1.0 -0.1092638302
C  C43  1  0.60280000  0.53130000  0.82540000  1.0 -0.1092638302
C  C44  1  0.89720000  0.03130000  0.17460000  1.0 -0.1092638302
C  C45  1  0.08900000  0.59383000  0.15210000  1.0 -0.1999704742
C  C46  1  0.41100000  0.09383000  0.84790000  1.0 -0.1999704742
C  C47  1  0.91100000  0.40617000  0.84790000  1.0 -0.1999704742
C  C48  1  0.58900000  0.90617000  0.15210000  1.0 -0.1999704742
C  C49  1  0.59290000  0.63121000  0.33820000  1.0 0.0806433444
C  C50  1  0.90710000  0.13121000  0.66180000  1.0 0.0806433444
C  C51  1  0.40710000  0.36879000  0.66180000  1.0 0.0806433444
C  C52  1  0.09290000  0.86879000  0.33820000  1.0 0.0806433444
C  C53  1  0.08510000  0.64119000  0.15180000  1.0 0.0870306935
C  C54  1  0.41490000  0.14119000  0.84820000  1.0 0.0870306935
C  C55  1  0.91490000  0.35881000  0.84820000  1.0 0.0870306935
C  C56  1  0.58510000  0.85881000  0.15180000  1.0 0.0870306935
C  C57  1  0.42300000  0.72803000  0.98260000  1.0 -0.0484158553
C  C58  1  0.07700000  0.22803000  0.01740000  1.0 -0.0484158553
C  C59  1  0.57700000  0.27197000  0.01740000  1.0 -0.0484158553
C  C60  1  0.92300000  0.77197000  0.98260000  1.0 -0.0484158553
C  C61  1  0.07670000  0.67390000  0.92960000  1.0 -0.0985442379
C  C62  1  0.42330000  0.17390000  0.07040000  1.0 -0.0985442379
C  C63  1  0.92330000  0.32610000  0.07040000  1.0 -0.0985442379
C  C64  1  0.57670000  0.82610000  0.92960000  1.0 -0.0985442379
C  C65  1  0.10870000  0.71648000  0.93750000  1.0 0.0038516055
C  C66  1  0.39130000  0.21648000  0.06250000  1.0 0.0038516055
C  C67  1  0.89130000  0.28352000  0.06250000  1.0 0.0038516055
C  C68  1  0.60870000  0.78352000  0.93750000  1.0 0.0038516055
C  C69  1  0.09910000  0.42433000  0.20890000  1.0 -0.0221534457
C  C70  1  0.40090000  0.92433000  0.79110000  1.0 -0.0221534457
C  C71  1  0.90090000  0.57567000  0.79110000  1.0 -0.0221534457
C  C72  1  0.59910000  0.07567000  0.20890000  1.0 -0.0221534457
C  C73  1  0.57180000  0.58705000  0.32650000  1.0 -0.1999704742
C  C74  1  0.92820000  0.08705000  0.67350000  1.0 -0.1999704742
C  C75  1  0.42820000  0.41295000  0.67350000  1.0 -0.1999704742
C  C76  1  0.07180000  0.91295000  0.32650000  1.0 -0.1999704742
C  C77  1  0.50330000  0.52284000  0.23640000  1.0 0.0712402314
C  C78  1  0.99670000  0.02284000  0.76360000  1.0 0.0712402314
C  C79  1  0.49670000  0.47716000  0.76360000  1.0 0.0712402314
C  C80  1  0.00330000  0.97716000  0.23640000  1.0 0.0712402314
C  C81  1  0.57310000  0.66057000  0.27210000  1.0 -0.2144458571
C  C82  1  0.92690000  0.16057000  0.72790000  1.0 -0.2144458571
C  C83  1  0.42690000  0.33943000  0.72790000  1.0 -0.2144458571
C  C84  1  0.07310000  0.83943000  0.27210000  1.0 -0.2151354232
C  C85  1  0.73610000  0.69165000  0.52210000  1.0 -0.0985442379
C  C86  1  0.76390000  0.19165000  0.47790000  1.0 -0.0985442379
C  C87  1  0.26390000  0.30835000  0.47790000  1.0 -0.0985442379
C  C88  1  0.23610000  0.80835000  0.52210000  1.0 -0.0985442379
C  C89  1  0.07070000  0.64936000  0.99940000  1.0 -0.141386748
C  C90  1  0.42930000  0.14936000  0.00060000  1.0 -0.141386748
C  C91  1  0.92930000  0.35064000  0.00060000  1.0 -0.141386748
C  C92  1  0.57070000  0.85064000  0.99940000  1.0 -0.141386748
C  C93  1  0.38100000  0.75514000  0.90780000  1.0 0.5885451457
C  C94  1  0.11900000  0.25514000  0.09220000  1.0 0.5885451457
C  C95  1  0.61900000  0.24486000  0.09220000  1.0 0.5885451457
C  C96  1  0.88100000  0.74486000  0.90780000  1.0 0.5885451457
C  C97  1  0.69850000  0.67878000  0.58650000  1.0 -0.0101807667
C  C98  1  0.80150000  0.17878000  0.41350000  1.0 -0.0101807667
C  C99  1  0.30150000  0.32122000  0.41350000  1.0 -0.0101807667
C  C100  1  0.19850000  0.82122000  0.58650000  1.0 -0.0101807667
C  C101  1  0.47810000  0.69276000  0.97400000  1.0 -0.0287408784
C  C102  1  0.02190000  0.19276000  0.02600000  1.0 -0.0287408784
C  C103  1  0.52190000  0.30724000  0.02600000  1.0 -0.0287408784
C  C104  1  0.97810000  0.80724000  0.97400000  1.0 -0.0287408784
C  C105  1  0.41220000  0.38713000  0.21270000  1.0 0.5675626567
C  C106  1  0.08780000  0.88713000  0.78730000  1.0 0.5675626567
C  C107  1  0.58780000  0.61287000  0.78730000  1.0 0.5675626567
C  C108  1  0.91220000  0.11287000  0.21270000  1.0 0.5675626567
C  C109  1  0.53210000  0.64508000  0.19180000  1.0 0.0870306935
C  C110  1  0.96790000  0.14508000  0.80820000  1.0 0.0870306935
C  C111  1  0.46790000  0.35492000  0.80820000  1.0 0.0870306935
C  C112  1  0.03210000  0.85492000  0.19180000  1.0 0.0870306935
C  C113  1  0.08540000  0.51825000  0.21710000  1.0 0.0712402314
C  C114  1  0.41460000  0.01825000  0.78290000  1.0 0.0806433444
C  C115  1  0.91460000  0.48175000  0.78290000  1.0 0.0806433444
C  C116  1  0.58540000  0.98175000  0.21710000  1.0 0.0712402314
C  C117  1  0.13310000  0.70980000  0.08690000  1.0 -0.151346863
C  C118  1  0.36690000  0.20980000  0.91310000  1.0 -0.151346863
C  C119  1  0.86690000  0.29020000  0.91310000  1.0 -0.151346863
C  C120  1  0.63310000  0.79020000  0.08690000  1.0 -0.151346863
C  C121  1  0.14440000  0.49839000  0.18000000  1.0 -0.1581974679
C  C122  1  0.35560000  0.99839000  0.82000000  1.0 -0.1581974679
C  C123  1  0.85560000  0.50161000  0.82000000  1.0 -0.1581974679
C  C124  1  0.64440000  0.00161000  0.18000000  1.0 -0.1581974679
C  C125  1  0.49940000  0.67652000  0.12020000  1.0 0.0806433444
C  C126  1  0.00060000  0.17652000  0.87980000  1.0 0.0806433444
C  C127  1  0.50060000  0.32348000  0.87980000  1.0 0.0806433444
C  C128  1  0.99940000  0.82348000  0.12020000  1.0 0.0806433444
C  C129  1  0.15380000  0.45174000  0.17790000  1.0 -0.1092638302
C  C130  1  0.34620000  0.95174000  0.82210000  1.0 -0.1092638302
C  C131  1  0.84620000  0.54826000  0.82210000  1.0 -0.1092638302
C  C132  1  0.65380000  0.04826000  0.17790000  1.0 -0.1092638302
C  C133  1  0.52980000  0.57028000  0.24700000  1.0 0.0806433444
C  C134  1  0.97020000  0.07028000  0.75300000  1.0 0.0806433444
C  C135  1  0.47020000  0.42972000  0.75300000  1.0 0.0806433444
C  C136  1  0.02980000  0.92972000  0.24700000  1.0 0.0806433444
C  C137  1  0.13800000  0.73449000  0.01600000  1.0 -0.1092638302
C  C138  1  0.36200000  0.23449000  0.98400000  1.0 -0.1092638302
C  C139  1  0.86200000  0.26551000  0.98400000  1.0 -0.1092638302
C  C140  1  0.63800000  0.76551000  0.01600000  1.0 -0.1092638302
C  C141  1  0.70180000  0.67664000  0.44020000  1.0 -0.1682154273
C  C142  1  0.79820000  0.17664000  0.55980000  1.0 -0.1682154273
C  C143  1  0.29820000  0.32336000  0.55980000  1.0 -0.1682154273
C  C144  1  0.20180000  0.82336000  0.44020000  1.0 -0.1682154273
C  C145  1  0.02040000  0.70060000  0.51410000  1.0 -0.0287408784
C  C146  1  0.47960000  0.20060000  0.48590000  1.0 -0.0287408784
C  C147  1  0.97960000  0.29940000  0.48590000  1.0 -0.0287408784
C  C148  1  0.52040000  0.79940000  0.51410000  1.0 -0.0287408784
C  C149  1  0.03130000  0.49025000  0.24860000  1.0 -0.151346863
C  C150  1  0.46870000  0.99025000  0.75140000  1.0 -0.151346863
C  C151  1  0.96870000  0.50975000  0.75140000  1.0 -0.151346863
C  C152  1  0.53130000  0.00975000  0.24860000  1.0 -0.151346863
C  C153  1  0.55120000  0.48835000  0.28170000  1.0 -0.141386748
C  C154  1  0.94880000  0.98835000  0.71830000  1.0 -0.141386748
C  C155  1  0.44880000  0.51165000  0.71830000  1.0 -0.141386748
C  C156  1  0.05120000  0.01165000  0.28170000  1.0 -0.141386748
C  C157  1  0.52110000  0.44464000  0.27240000  1.0 -0.1092638302
C  C158  1  0.97890000  0.94464000  0.72760000  1.0 -0.1092638302
C  C159  1  0.47890000  0.55536000  0.72760000  1.0 -0.1092638302
C  C160  1  0.02110000  0.05536000  0.27240000  1.0 -0.1092638302
C  C161  1  0.05540000  0.63698000  0.28930000  1.0 0.0806433444
C  C162  1  0.44460000  0.13698000  0.71070000  1.0 0.0806433444
C  C163  1  0.94460000  0.36302000  0.71070000  1.0 0.0806433444
C  C164  1  0.55540000  0.86302000  0.28930000  1.0 0.0806433444
C  C165  1  0.51300000  0.59976000  0.18120000  1.0 -0.1896244229
C  C166  1  0.98700000  0.09976000  0.81880000  1.0 -0.1896244229
C  C167  1  0.48700000  0.40024000  0.81880000  1.0 -0.1896244229
C  C168  1  0.01300000  0.90024000  0.18120000  1.0 -0.1896244229
C  C169  1  0.03870000  0.44418000  0.24710000  1.0 -0.1092638302
C  C170  1  0.46130000  0.94418000  0.75290000  1.0 -0.1092638302
C  C171  1  0.96130000  0.55582000  0.75290000  1.0 -0.1092638302
C  C172  1  0.53870000  0.05582000  0.24710000  1.0 -0.1092638302
C  C173  1  0.06740000  0.66123000  0.22130000  1.0 -0.1999704742
C  C174  1  0.43260000  0.16123000  0.77870000  1.0 -0.1999704742
C  C175  1  0.93260000  0.33877000  0.77870000  1.0 -0.1999704742
C  C176  1  0.56740000  0.83877000  0.22130000  1.0 -0.1999704742
C  C177  1  0.97510000  0.66180000  0.48460000  1.0 -0.0985442379
C  C178  1  0.52490000  0.16180000  0.51540000  1.0 -0.0985442379
C  C179  1  0.02490000  0.33820000  0.51540000  1.0 -0.0985442379
C  C180  1  0.47510000  0.83820000  0.48460000  1.0 -0.0985442379
C  C181  1  0.01280000  0.72127000  0.59400000  1.0 0.5565900377
C  C182  1  0.48720000  0.22127000  0.40600000  1.0 0.5565900377
C  C183  1  0.98720000  0.27873000  0.40600000  1.0 0.5565900377
C  C184  1  0.51280000  0.77873000  0.59400000  1.0 0.5565900377
C  C185  1  0.09950000  0.74450000  0.85930000  1.0 0.5238743893
C  C186  1  0.40050000  0.24450000  0.14070000  1.0 0.5238743893
C  C187  1  0.90050000  0.25550000  0.14070000  1.0 0.5238743893
C  C188  1  0.59950000  0.75550000  0.85930000  1.0 0.5238743893
C  C189  1  0.04010000  0.65992000  0.36570000  1.0 0.0806433444
C  C190  1  0.45990000  0.15992000  0.63430000  1.0 0.0806433444
C  C191  1  0.95990000  0.34008000  0.63430000  1.0 0.0806433444
C  C192  1  0.54010000  0.84008000  0.36570000  1.0 0.0806433444
C  C193  1  0.07770000  0.56840000  0.21870000  1.0 0.0806433444
C  C194  1  0.42230000  0.06840000  0.78130000  1.0 0.0806433444
C  C195  1  0.92230000  0.43160000  0.78130000  1.0 0.0806433444
C  C196  1  0.57770000  0.93160000  0.21870000  1.0 0.0806433444
C  C197  1  0.05860000  0.59031000  0.28650000  1.0 -0.1999704742
C  C198  1  0.44140000  0.09031000  0.71350000  1.0 -0.1999704742
C  C199  1  0.94140000  0.40969000  0.71350000  1.0 -0.1999704742
C  C200  1  0.55860000  0.90969000  0.28650000  1.0 -0.1999704742
C  C201  1  0.59790000  0.63337000  0.49190000  1.0 -0.141386748
C  C202  1  0.90210000  0.13337000  0.50810000  1.0 -0.141386748
C  C203  1  0.40210000  0.36663000  0.50810000  1.0 -0.141386748
C  C204  1  0.09790000  0.86663000  0.49190000  1.0 -0.141386748
C  C205  1  0.98390000  0.64180000  0.41170000  1.0 -0.1682154273
C  C206  1  0.51610000  0.14180000  0.58830000  1.0 -0.1682154273
C  C207  1  0.01610000  0.35820000  0.58830000  1.0 -0.1682154273
C  C208  1  0.48390000  0.85820000  0.41170000  1.0 -0.1682154273
C  C209  1  0.07300000  0.71970000  0.46720000  1.0 -0.1092638302
C  C210  1  0.42700000  0.21970000  0.53280000  1.0 -0.1092638302
C  C211  1  0.92700000  0.28030000  0.53280000  1.0 -0.1092638302
C  C212  1  0.57300000  0.78030000  0.46720000  1.0 -0.1092638302
C  C213  1  0.41150000  0.73800000  0.06130000  1.0 -0.0985442379
C  C214  1  0.08850000  0.23800000  0.93870000  1.0 -0.0985442379
C  C215  1  0.58850000  0.26200000  0.93870000  1.0 -0.0985442379
C  C216  1  0.91150000  0.76200000  0.06130000  1.0 -0.0985442379
C  C217  1  0.45240000  0.71266000  0.13020000  1.0 -0.1581974679
C  C218  1  0.04760000  0.21266000  0.86980000  1.0 -0.1581974679
C  C219  1  0.54760000  0.28734000  0.86980000  1.0 -0.1581974679
C  C220  1  0.95240000  0.78734000  0.13020000  1.0 -0.1581974679
C  C221  1  0.07980000  0.69970000  0.39270000  1.0 -0.1581974679
C  C222  1  0.42020000  0.19970000  0.60730000  1.0 -0.1581974679
C  C223  1  0.92020000  0.30030000  0.60730000  1.0 -0.1581974679
C  C224  1  0.57980000  0.80030000  0.39270000  1.0 -0.1581974679
C  C225  1  0.86800000  0.81180000  0.72000000  1.0 -0.0484158553
C  C226  1  0.63200000  0.31180000  0.28000000  1.0 -0.0484158553
C  C227  1  0.13200000  0.18820000  0.28000000  1.0 -0.0484158553
C  C228  1  0.36800000  0.68820000  0.72000000  1.0 -0.0484158553
O  O1  1  0.83600000  0.83850000  0.78880000  1.0 -0.151346863
O  O2  1  0.66400000  0.33850000  0.21120000  1.0 -0.151346863
O  O3  1  0.16400000  0.16150000  0.21120000  1.0 -0.151346863
O  O4  1  0.33600000  0.66150000  0.78880000  1.0 -0.151346863
O  O5  1  0.69230000  0.69290000  0.72990000  1.0 -0.3468750495
O  O6  1  0.80770000  0.19290000  0.27010000  1.0 -0.3468750495
O  O7  1  0.30770000  0.30710000  0.27010000  1.0 -0.3449275174
O  O8  1  0.19230000  0.80710000  0.72990000  1.0 -0.3468750495
O  O9  1  0.92950000  0.78328000  0.70880000  1.0 -0.2994372823
O  O10  1  0.57050000  0.28328000  0.29120000  1.0 -0.2994372823
O  O11  1  0.07050000  0.21672000  0.29120000  1.0 -0.2994372823
O  O12  1  0.42950000  0.71672000  0.70880000  1.0 -0.2994372823
O  O13  1  0.34240000  0.37956000  0.16340000  1.0 -0.5412296631
O  O14  1  0.15760000  0.87956000  0.83660000  1.0 -0.5412296631
O  O15  1  0.65760000  0.62044000  0.83660000  1.0 -0.5412296631
O  O16  1  0.84240000  0.12044000  0.16340000  1.0 -0.5412296631
O  O17  1  0.41970000  0.76012000  0.85220000  1.0 -0.5303254404
O  O18  1  0.08030000  0.26012000  0.14780000  1.0 -0.5303254404
O  O19  1  0.58030000  0.23988000  0.14780000  1.0 -0.5303254404
O  O20  1  0.91970000  0.73988000  0.85220000  1.0 -0.5303254404
O  O21  1  0.16050000  0.35991000  0.16640000  1.0 -0.5303254404
O  O22  1  0.33950000  0.85991000  0.83360000  1.0 -0.5303254404
O  O23  1  0.83950000  0.64009000  0.83360000  1.0 -0.5303254404
O  O24  1  0.66050000  0.14009000  0.16640000  1.0 -0.5303254404
O  O25  1  0.06460000  0.35014000  0.24060000  1.0 -0.5520720311
O  O26  1  0.43540000  0.85014000  0.75940000  1.0 -0.5520720311
O  O27  1  0.93540000  0.64986000  0.75940000  1.0 -0.5520720311
O  O28  1  0.56460000  0.14986000  0.24060000  1.0 -0.5520720311
O  O29  1  0.80740000  0.71559000  0.68530000  1.0 -0.4919911043
O  O30  1  0.69260000  0.21559000  0.31470000  1.0 -0.4919911043
O  O31  1  0.19260000  0.28441000  0.31470000  1.0 -0.4919911043
O  O32  1  0.30740000  0.78441000  0.68530000  1.0 -0.4919911043
O  O33  1  0.05470000  0.75690000  0.61640000  1.0 -0.464157013
O  O34  1  0.44530000  0.25690000  0.38360000  1.0 -0.464157013
O  O35  1  0.94530000  0.24310000  0.38360000  1.0 -0.464157013
O  O36  1  0.55470000  0.74310000  0.61640000  1.0 -0.464157013
O  O37  1  0.96340000  0.70232000  0.63280000  1.0 -0.509461222
O  O38  1  0.53660000  0.20232000  0.36720000  1.0 -0.509461222
O  O39  1  0.03660000  0.29768000  0.36720000  1.0 -0.509461222
O  O40  1  0.46340000  0.79768000  0.63280000  1.0 -0.509461222
O  O41  1  0.45910000  0.35829000  0.25890000  1.0 -0.4919911043
O  O42  1  0.04090000  0.85829000  0.74110000  1.0 -0.4919911043
O  O43  1  0.54090000  0.64171000  0.74110000  1.0 -0.4919911043
O  O44  1  0.95910000  0.14171000  0.25890000  1.0 -0.4919911043
O  O45  1  0.30680000  0.77101000  0.90640000  1.0 -0.5644753554
O  O46  1  0.19320000  0.27101000  0.09360000  1.0 -0.5664558389
O  O47  1  0.69320000  0.22899000  0.09360000  1.0 -0.5664558389
O  O48  1  0.80680000  0.72899000  0.90640000  1.0 -0.5664558389
O  O49  1  0.12040000  0.78365000  0.86350000  1.0 -0.432663826
O  O50  1  0.37960000  0.28365000  0.13650000  1.0 -0.432663826
O  O51  1  0.87960000  0.21635000  0.13650000  1.0 -0.432663826
O  O52  1  0.62040000  0.71635000  0.86350000  1.0 -0.432663826
O  O53  1  0.06390000  0.72736000  0.78930000  1.0 -0.4992318356
O  O54  1  0.43610000  0.22736000  0.21070000  1.0 -0.4992318356
O  O55  1  0.93610000  0.27264000  0.21070000  1.0 -0.4992318356
O  O56  1  0.56390000  0.77264000  0.78930000  1.0 -0.4992318356
