# DDEC6 charges by PACMAN v1.1 (https://github.com/mtap-research/PACMAN-charge/)
data_KICCOS_FSR_pacman
_symmetry_space_group_name_H-M   'P 1'
_cell_length_a   16.11150000
_cell_length_b   29.90360000
_cell_length_c   16.30610000
_cell_angle_alpha   90.00000000
_cell_angle_beta   102.17300000
_cell_angle_gamma   90.00000000
_symmetry_Int_Tables_number   1
_chemical_formula_structural   Fe3H43(C31O7)2
_chemical_formula_sum   'Fe12 H172 C248 O56'
_cell_volume   7679.50357138
_cell_formula_units_Z   4
loop_
 _symmetry_equiv_pos_site_id
 _symmetry_equiv_pos_as_xyz
  1  'x, y, z'
loop_
 _atom_site_type_symbol
 _atom_site_label
 _atom_site_symmetry_multiplicity
 _atom_site_fract_x
 _atom_site_fract_y
 _atom_site_fract_z
 _atom_site_occupancy
 _atom_site_charge
Fe  Fe1  1  0.45786000  0.29215000  0.28507000  1.0 0.976161399
Fe  Fe2  1  0.04214000  0.79215000  0.71493000  1.0 0.976161399
Fe  Fe3  1  0.54214000  0.70785000  0.71493000  1.0 0.976161399
Fe  Fe4  1  0.95786000  0.20785000  0.28507000  1.0 0.976161399
Fe  Fe5  1  0.90719000  0.71942000  0.73061000  1.0 1.2245322253
Fe  Fe6  1  0.59281000  0.21942000  0.26939000  1.0 1.2245322253
Fe  Fe7  1  0.09281000  0.28058000  0.26939000  1.0 1.2245322253
Fe  Fe8  1  0.40719000  0.78058000  0.73061000  1.0 1.2245322253
Fe  Fe9  1  0.21555000  0.81890000  0.85680000  1.0 1.0739941384
Fe  Fe10  1  0.28445000  0.31890000  0.14320000  1.0 1.0739941384
Fe  Fe11  1  0.78445000  0.18110000  0.14320000  1.0 1.0756850029
Fe  Fe12  1  0.71555000  0.68110000  0.85680000  1.0 1.0756850029
H  H1  1  0.39328000  0.91232000  0.21185000  1.0 0.1115075451
H  H2  1  0.10672000  0.41232000  0.78815000  1.0 0.1115075451
H  H3  1  0.60672000  0.08768000  0.78815000  1.0 0.1115075451
H  H4  1  0.89328000  0.58768000  0.21185000  1.0 0.1115075451
H  H5  1  0.31288000  0.94505000  0.19639000  1.0 0.1193642527
H  H6  1  0.18712000  0.44505000  0.80361000  1.0 0.1193642527
H  H7  1  0.68712000  0.05495000  0.80361000  1.0 0.1193642527
H  H8  1  0.81288000  0.55495000  0.19639000  1.0 0.1193642527
H  H9  1  0.31857000  0.89116000  0.97257000  1.0 0.158762389
H  H10  1  0.18143000  0.39116000  0.02743000  1.0 0.158762389
H  H11  1  0.68143000  0.10884000  0.02743000  1.0 0.158762389
H  H12  1  0.81857000  0.60884000  0.97257000  1.0 0.158762389
H  H13  1  0.19489000  0.83753000  0.13918000  1.0 0.1193642527
H  H14  1  0.30511000  0.33753000  0.86082000  1.0 0.1193642527
H  H15  1  0.80511000  0.16247000  0.86082000  1.0 0.1193642527
H  H16  1  0.69489000  0.66247000  0.13918000  1.0 0.1193642527
H  H17  1  0.28938000  0.81799000  0.15610000  1.0 0.1287119757
H  H18  1  0.21062000  0.31799000  0.84390000  1.0 0.1287119757
H  H19  1  0.71062000  0.18201000  0.84390000  1.0 0.1287119757
H  H20  1  0.78938000  0.68201000  0.15610000  1.0 0.1287119757
H  H21  1  0.31212000  0.86688000  0.24479000  1.0 0.0893828921
H  H22  1  0.18788000  0.36688000  0.75521000  1.0 0.0893828921
H  H23  1  0.68788000  0.13312000  0.75521000  1.0 0.0893828921
H  H24  1  0.81212000  0.63312000  0.24479000  1.0 0.0893828921
H  H25  1  0.23068000  0.89470000  0.20292000  1.0 0.0893828921
H  H26  1  0.26932000  0.39470000  0.79708000  1.0 0.0893828921
H  H27  1  0.76932000  0.10530000  0.79708000  1.0 0.0893828921
H  H28  1  0.73068000  0.60530000  0.20292000  1.0 0.0893828921
H  H29  1  0.41253000  0.97885000  0.12069000  1.0 0.1395543209
H  H30  1  0.08747000  0.47885000  0.87931000  1.0 0.1395543209
H  H31  1  0.58747000  0.02115000  0.87931000  1.0 0.1395543209
H  H32  1  0.91253000  0.52115000  0.12069000  1.0 0.1395543209
H  H33  1  0.33026000  0.98884000  0.04893000  1.0 0.1507704343
H  H34  1  0.16974000  0.48884000  0.95107000  1.0 0.1507704343
H  H35  1  0.66974000  0.01116000  0.95107000  1.0 0.1507704343
H  H36  1  0.83026000  0.51116000  0.04893000  1.0 0.1507704343
H  H37  1  0.41135000  0.96522000  0.02555000  1.0 0.1395543209
H  H38  1  0.08865000  0.46522000  0.97445000  1.0 0.1395543209
H  H39  1  0.58865000  0.03478000  0.97445000  1.0 0.1395543209
H  H40  1  0.91135000  0.53478000  0.02555000  1.0 0.1395543209
H  H41  1  0.54120000  0.64535000  0.02652000  1.0 0.1193642527
H  H42  1  0.95880000  0.14535000  0.97348000  1.0 0.1193642527
H  H43  1  0.45880000  0.35465000  0.97348000  1.0 0.1193642527
H  H44  1  0.04120000  0.85465000  0.02652000  1.0 0.1193642527
H  H45  1  0.70834000  0.68942000  0.38602000  1.0 0.1193642527
H  H46  1  0.79166000  0.18942000  0.61398000  1.0 0.1193642527
H  H47  1  0.29166000  0.31058000  0.61398000  1.0 0.1193642527
H  H48  1  0.20834000  0.81058000  0.38602000  1.0 0.1193642527
H  H49  1  0.13875000  0.75810000  0.00767000  1.0 0.1193642527
H  H50  1  0.36125000  0.25810000  0.99233000  1.0 0.1193642527
H  H51  1  0.86125000  0.24190000  0.99233000  1.0 0.1193642527
H  H52  1  0.63875000  0.74190000  0.00767000  1.0 0.1193642527
H  H53  1  0.47636000  0.68925000  0.91212000  1.0 0.1287119757
H  H54  1  0.02364000  0.18925000  0.08788000  1.0 0.1287119757
H  H55  1  0.52364000  0.31075000  0.08788000  1.0 0.1287119757
H  H56  1  0.97636000  0.81075000  0.91212000  1.0 0.1287119757
H  H57  1  0.56684000  0.69257000  0.27076000  1.0 0.1193642527
H  H58  1  0.93316000  0.19257000  0.72924000  1.0 0.1193642527
H  H59  1  0.43316000  0.30743000  0.72924000  1.0 0.1193642527
H  H60  1  0.06684000  0.80743000  0.27076000  1.0 0.1193642527
H  H61  1  0.48012000  0.58849000  0.11937000  1.0 0.1193642527
H  H62  1  0.01988000  0.08849000  0.88063000  1.0 0.1193642527
H  H63  1  0.51988000  0.41151000  0.88063000  1.0 0.1193642527
H  H64  1  0.98012000  0.91151000  0.11937000  1.0 0.1193642527
H  H65  1  0.76651000  0.71341000  0.52227000  1.0 0.1287119757
H  H66  1  0.73349000  0.21341000  0.47773000  1.0 0.1287119757
H  H67  1  0.23349000  0.28659000  0.47773000  1.0 0.1287119757
H  H68  1  0.26651000  0.78659000  0.52227000  1.0 0.1287119757
H  H69  1  0.03695000  0.65308000  0.86519000  1.0 0.1193642527
H  H70  1  0.46305000  0.15308000  0.13481000  1.0 0.1193642527
H  H71  1  0.96305000  0.34692000  0.13481000  1.0 0.1193642527
H  H72  1  0.53695000  0.84692000  0.86519000  1.0 0.1193642527
H  H73  1  0.57808000  0.56717000  0.36569000  1.0 0.1193642527
H  H74  1  0.92192000  0.06717000  0.63431000  1.0 0.1193642527
H  H75  1  0.42192000  0.43283000  0.63431000  1.0 0.1193642527
H  H76  1  0.07808000  0.93283000  0.36569000  1.0 0.1193642527
H  H77  1  0.59278000  0.64100000  0.61039000  1.0 0.1287119757
H  H78  1  0.90722000  0.14100000  0.38961000  1.0 0.1287119757
H  H79  1  0.40722000  0.35900000  0.38961000  1.0 0.1287119757
H  H80  1  0.09278000  0.85900000  0.61039000  1.0 0.1287119757
H  H81  1  0.21414000  0.43778000  0.14993000  1.0 0.1193642527
H  H82  1  0.28586000  0.93778000  0.85007000  1.0 0.1193642527
H  H83  1  0.78586000  0.56222000  0.85007000  1.0 0.1193642527
H  H84  1  0.71414000  0.06222000  0.14993000  1.0 0.1193642527
H  H85  1  0.34576000  0.75524000  0.05943000  1.0 0.1193642527
H  H86  1  0.15424000  0.25524000  0.94057000  1.0 0.1193642527
H  H87  1  0.65424000  0.24476000  0.94057000  1.0 0.1193642527
H  H88  1  0.84576000  0.74476000  0.05943000  1.0 0.1193642527
H  H89  1  0.13663000  0.71792000  0.12737000  1.0 0.1115075451
H  H90  1  0.36337000  0.21792000  0.87263000  1.0 0.1115075451
H  H91  1  0.86337000  0.28208000  0.87263000  1.0 0.1115075451
H  H92  1  0.63663000  0.78208000  0.12737000  1.0 0.1115075451
H  H93  1  0.03287000  0.61253000  0.98541000  1.0 0.1193642527
H  H94  1  0.46713000  0.11253000  0.01459000  1.0 0.1193642527
H  H95  1  0.96713000  0.38747000  0.01459000  1.0 0.1193642527
H  H96  1  0.53287000  0.88747000  0.98541000  1.0 0.1193642527
H  H97  1  0.19772000  0.51477000  0.15709000  1.0 0.1193642527
H  H98  1  0.30228000  0.01477000  0.84291000  1.0 0.1193642527
H  H99  1  0.80228000  0.48523000  0.84291000  1.0 0.1193642527
H  H100  1  0.69772000  0.98523000  0.15709000  1.0 0.1193642527
H  H101  1  0.02871000  0.41943000  0.27870000  1.0 0.1287119757
H  H102  1  0.47129000  0.91943000  0.72130000  1.0 0.1287119757
H  H103  1  0.97129000  0.58057000  0.72130000  1.0 0.1287119757
H  H104  1  0.52871000  0.08057000  0.27870000  1.0 0.1287119757
H  H105  1  0.35702000  0.45499000  0.12911000  1.0 0.1193642527
H  H106  1  0.14298000  0.95499000  0.87089000  1.0 0.1193642527
H  H107  1  0.64298000  0.54501000  0.87089000  1.0 0.1193642527
H  H108  1  0.85702000  0.04501000  0.12911000  1.0 0.1193642527
H  H109  1  0.06266000  0.56763000  0.33720000  1.0 0.1193642527
H  H110  1  0.43734000  0.06763000  0.66280000  1.0 0.1193642527
H  H111  1  0.93734000  0.43237000  0.66280000  1.0 0.1193642527
H  H112  1  0.56266000  0.93237000  0.33720000  1.0 0.1193642527
H  H113  1  0.41816000  0.71555000  0.17524000  1.0 0.1193642527
H  H114  1  0.08184000  0.21555000  0.82476000  1.0 0.1193642527
H  H115  1  0.58184000  0.28445000  0.82476000  1.0 0.1193642527
H  H116  1  0.91816000  0.78445000  0.17524000  1.0 0.1193642527
H  H117  1  0.11107000  0.70929000  0.35686000  1.0 0.1115075451
H  H118  1  0.38893000  0.20929000  0.64314000  1.0 0.1115075451
H  H119  1  0.88893000  0.29071000  0.64314000  1.0 0.1115075451
H  H120  1  0.61107000  0.79071000  0.35686000  1.0 0.1115075451
H  H121  1  0.39736000  0.53033000  0.14084000  1.0 0.1193642527
H  H122  1  0.10264000  0.03033000  0.85916000  1.0 0.1193642527
H  H123  1  0.60264000  0.46967000  0.85916000  1.0 0.1193642527
H  H124  1  0.89736000  0.96967000  0.14084000  1.0 0.1193642527
H  H125  1  0.00697000  0.49608000  0.28054000  1.0 0.1193642527
H  H126  1  0.49303000  0.99608000  0.71946000  1.0 0.1193642527
H  H127  1  0.99303000  0.50392000  0.71946000  1.0 0.1193642527
H  H128  1  0.50697000  0.00392000  0.28054000  1.0 0.1193642527
H  H129  1  0.56417000  0.42291000  0.30350000  1.0 0.1287119757
H  H130  1  0.93583000  0.92291000  0.69650000  1.0 0.1287119757
H  H131  1  0.43583000  0.57709000  0.69650000  1.0 0.1287119757
H  H132  1  0.06417000  0.07709000  0.30350000  1.0 0.1287119757
H  H133  1  0.08915000  0.74402000  0.47764000  1.0 0.1115075451
H  H134  1  0.41085000  0.24402000  0.52236000  1.0 0.1115075451
H  H135  1  0.91085000  0.25598000  0.52236000  1.0 0.1115075451
H  H136  1  0.58915000  0.75598000  0.47764000  1.0 0.1115075451
H  H137  1  0.05094000  0.68644000  0.21636000  1.0 0.1115075451
H  H138  1  0.44906000  0.18644000  0.78364000  1.0 0.1115075451
H  H139  1  0.94906000  0.31356000  0.78364000  1.0 0.1115075451
H  H140  1  0.55094000  0.81356000  0.21636000  1.0 0.1115075451
H  H141  1  0.54213000  0.61293000  0.47732000  1.0 0.1193642527
H  H142  1  0.95787000  0.11293000  0.52268000  1.0 0.1193642527
H  H143  1  0.45787000  0.38707000  0.52268000  1.0 0.1193642527
H  H144  1  0.04213000  0.88707000  0.47732000  1.0 0.1193642527
H  H145  1  0.10544000  0.57347000  0.10123000  1.0 0.1115075451
H  H146  1  0.39456000  0.07347000  0.89877000  1.0 0.1115075451
H  H147  1  0.89456000  0.42653000  0.89877000  1.0 0.1115075451
H  H148  1  0.60544000  0.92653000  0.10123000  1.0 0.1115075451
H  H149  1  0.96071000  0.60712000  0.39621000  1.0 0.1193642527
H  H150  1  0.53929000  0.10712000  0.60379000  1.0 0.1193642527
H  H151  1  0.03929000  0.39288000  0.60379000  1.0 0.1193642527
H  H152  1  0.46071000  0.89288000  0.39621000  1.0 0.1193642527
H  H153  1  0.93458000  0.64261000  0.51364000  1.0 0.1287119757
H  H154  1  0.56542000  0.14261000  0.48636000  1.0 0.1287119757
H  H155  1  0.06542000  0.35739000  0.48636000  1.0 0.1287119757
H  H156  1  0.43458000  0.85739000  0.51364000  1.0 0.1287119757
H  H157  1  0.60695000  0.49741000  0.31321000  1.0 0.1193642527
H  H158  1  0.89305000  0.99741000  0.68679000  1.0 0.1193642527
H  H159  1  0.39305000  0.50259000  0.68679000  1.0 0.1193642527
H  H160  1  0.10695000  0.00259000  0.31321000  1.0 0.1193642527
H  H161  1  0.87227000  0.83664000  0.63748000  1.0 0.1193642527
H  H162  1  0.62773000  0.33664000  0.36252000  1.0 0.1193642527
H  H163  1  0.12773000  0.16336000  0.36252000  1.0 0.1193642527
H  H164  1  0.37227000  0.66336000  0.63748000  1.0 0.1193642527
H  H165  1  0.80220000  0.79828000  0.63300000  1.0 0.1287119757
H  H166  1  0.69780000  0.29828000  0.36700000  1.0 0.1287119757
H  H167  1  0.19780000  0.20172000  0.36700000  1.0 0.1287119757
H  H168  1  0.30220000  0.70172000  0.63300000  1.0 0.1287119757
H  H169  1  0.87537000  0.79324000  0.58078000  1.0 0.1115075451
H  H170  1  0.62463000  0.29324000  0.41922000  1.0 0.1115075451
H  H171  1  0.12463000  0.20676000  0.41922000  1.0 0.1115075451
H  H172  1  0.37537000  0.70676000  0.58078000  1.0 0.1115075451
C  C1  1  0.25860000  0.85420000  0.04680000  1.0 0.4346280779
C  C2  1  0.24140000  0.35420000  0.95320000  1.0 0.4346280779
C  C3  1  0.74140000  0.14580000  0.95320000  1.0 0.4346280779
C  C4  1  0.75860000  0.64580000  0.04680000  1.0 0.4346280779
C  C5  1  0.33540000  0.91690000  0.17760000  1.0 -0.2536255632
C  C6  1  0.16460000  0.41690000  0.82240000  1.0 -0.2536255632
C  C7  1  0.66460000  0.08310000  0.82240000  1.0 -0.2536255632
C  C8  1  0.83540000  0.58310000  0.17760000  1.0 -0.2536255632
C  C9  1  0.34050000  0.92150000  0.08350000  1.0 0.2516957904
C  C10  1  0.15950000  0.42150000  0.91650000  1.0 0.2516957904
C  C11  1  0.65950000  0.07850000  0.91650000  1.0 0.2516957904
C  C12  1  0.84050000  0.57850000  0.08350000  1.0 0.2516957904
C  C13  1  0.30770000  0.88950000  0.02750000  1.0 -0.3858655234
C  C14  1  0.19230000  0.38950000  0.97250000  1.0 -0.3858655234
C  C15  1  0.69230000  0.11050000  0.97250000  1.0 -0.3858655234
C  C16  1  0.80770000  0.61050000  0.02750000  1.0 -0.3858655234
C  C17  1  0.25430000  0.84460000  0.13660000  1.0 -0.3024107133
C  C18  1  0.24570000  0.34460000  0.86340000  1.0 -0.3024107133
C  C19  1  0.74570000  0.15540000  0.86340000  1.0 -0.3024107133
C  C20  1  0.75430000  0.65540000  0.13660000  1.0 -0.3024107133
C  C21  1  0.28280000  0.88070000  0.19140000  1.0 -0.134466133
C  C22  1  0.21720000  0.38070000  0.80860000  1.0 -0.134466133
C  C23  1  0.71720000  0.11930000  0.80860000  1.0 -0.134466133
C  C24  1  0.78280000  0.61930000  0.19140000  1.0 -0.134466133
C  C25  1  0.37700000  0.96780000  0.06830000  1.0 -0.4783595715
C  C26  1  0.12300000  0.46780000  0.93170000  1.0 -0.4783595715
C  C27  1  0.62300000  0.03220000  0.93170000  1.0 -0.4783595715
C  C28  1  0.87700000  0.53220000  0.06830000  1.0 -0.4783595715
C  C29  1  0.71790000  0.69893000  0.66540000  1.0 0.6107886817
C  C30  1  0.78210000  0.19893000  0.33460000  1.0 0.6107886817
C  C31  1  0.28210000  0.30107000  0.33460000  1.0 0.6107886817
C  C32  1  0.21790000  0.80107000  0.66540000  1.0 0.6107886817
C  C33  1  0.36000000  0.75279000  0.89960000  1.0 0.6013883437
C  C34  1  0.14000000  0.25279000  0.10040000  1.0 0.6013883437
C  C35  1  0.64000000  0.24721000  0.10040000  1.0 0.6013883437
C  C36  1  0.86000000  0.74721000  0.89960000  1.0 0.6013883437
C  C37  1  0.08650000  0.71007000  0.92560000  1.0 -0.0212295455
C  C38  1  0.41350000  0.21007000  0.07440000  1.0 -0.0212295455
C  C39  1  0.91350000  0.28993000  0.07440000  1.0 -0.0212295455
C  C40  1  0.58650000  0.78993000  0.92560000  1.0 -0.0212295455
C  C41  1  0.68360000  0.68097000  0.57910000  1.0 -0.0310084617
C  C42  1  0.81640000  0.18097000  0.42090000  1.0 -0.0310084617
C  C43  1  0.31640000  0.31903000  0.42090000  1.0 -0.0310084617
C  C44  1  0.18360000  0.81903000  0.57910000  1.0 -0.0310084617
C  C45  1  0.40310000  0.72585000  0.97380000  1.0 -0.0310084617
C  C46  1  0.09690000  0.22585000  0.02620000  1.0 -0.0310084617
C  C47  1  0.59690000  0.27415000  0.02620000  1.0 -0.0310084617
C  C48  1  0.90310000  0.77415000  0.97380000  1.0 -0.0310084617
C  C49  1  0.42790000  0.38386000  0.21160000  1.0 0.5916557844
C  C50  1  0.07210000  0.88386000  0.78840000  1.0 0.5916557844
C  C51  1  0.57210000  0.61614000  0.78840000  1.0 0.5916557844
C  C52  1  0.92790000  0.11614000  0.21160000  1.0 0.5916557844
C  C53  1  0.51900000  0.64513000  0.18540000  1.0 0.0893828921
C  C54  1  0.98100000  0.14513000  0.81460000  1.0 0.0893828921
C  C55  1  0.48100000  0.35487000  0.81460000  1.0 0.0893828921
C  C56  1  0.01900000  0.85487000  0.18540000  1.0 0.0893828921
C  C57  1  0.07510000  0.73763000  0.84770000  1.0 0.6013883437
C  C58  1  0.42490000  0.23763000  0.15230000  1.0 0.6013883437
C  C59  1  0.92490000  0.26237000  0.15230000  1.0 0.6013883437
C  C60  1  0.57510000  0.76237000  0.84770000  1.0 0.6013883437
C  C61  1  0.12340000  0.42041000  0.21340000  1.0 -0.041320946
C  C62  1  0.37660000  0.92041000  0.78660000  1.0 -0.041320946
C  C63  1  0.87660000  0.57959000  0.78660000  1.0 -0.041320946
C  C64  1  0.62340000  0.07959000  0.21340000  1.0 -0.041320946
C  C65  1  0.50200000  0.66805000  0.03360000  1.0 -0.1411931281
C  C66  1  0.99800000  0.16805000  0.96640000  1.0 -0.1411931281
C  C67  1  0.49800000  0.33195000  0.96640000  1.0 -0.1411931281
C  C68  1  0.00200000  0.83195000  0.03360000  1.0 -0.1500166747
C  C69  1  0.68520000  0.67904000  0.43150000  1.0 -0.156979948
C  C70  1  0.81480000  0.17904000  0.56850000  1.0 -0.156979948
C  C71  1  0.31480000  0.32096000  0.56850000  1.0 -0.156979948
C  C72  1  0.18520000  0.82096000  0.43150000  1.0 -0.156979948
C  C73  1  0.11680000  0.72851000  0.00330000  1.0 -0.0918457013
C  C74  1  0.38320000  0.22851000  0.99670000  1.0 -0.0918457013
C  C75  1  0.88320000  0.27149000  0.99670000  1.0 -0.0918457013
C  C76  1  0.61680000  0.77149000  0.00330000  1.0 -0.0918457013
C  C77  1  0.46240000  0.69381000  0.96530000  1.0 -0.0918457013
C  C78  1  0.03760000  0.19381000  0.03470000  1.0 -0.0918457013
C  C79  1  0.53760000  0.30619000  0.03470000  1.0 -0.0918457013
C  C80  1  0.96240000  0.80619000  0.96530000  1.0 -0.0918457013
C  C81  1  0.13700000  0.37144000  0.20850000  1.0 0.5916557844
C  C82  1  0.36300000  0.87144000  0.79150000  1.0 0.5916557844
C  C83  1  0.86300000  0.62856000  0.79150000  1.0 0.5916557844
C  C84  1  0.63700000  0.12856000  0.20850000  1.0 0.5916557844
C  C85  1  0.55660000  0.66141000  0.26330000  1.0 -0.2082487707
C  C86  1  0.94340000  0.16141000  0.73670000  1.0 -0.2007965282
C  C87  1  0.44340000  0.33859000  0.73670000  1.0 -0.2082487707
C  C88  1  0.05660000  0.83859000  0.26330000  1.0 -0.2082487707
C  C89  1  0.45740000  0.43153000  0.21630000  1.0 -0.0310084617
C  C90  1  0.04260000  0.93153000  0.78370000  1.0 -0.0310084617
C  C91  1  0.54260000  0.56847000  0.78370000  1.0 -0.0310084617
C  C92  1  0.95740000  0.06847000  0.21630000  1.0 -0.0310084617
C  C93  1  0.57970000  0.63245000  0.33130000  1.0 0.0893828921
C  C94  1  0.92030000  0.13245000  0.66870000  1.0 0.0893828921
C  C95  1  0.42030000  0.36755000  0.66870000  1.0 0.0893828921
C  C96  1  0.07970000  0.86755000  0.33130000  1.0 0.0893828921
C  C97  1  0.61800000  0.64898000  0.41700000  1.0 0.069652726
C  C98  1  0.88200000  0.14898000  0.58300000  1.0 0.069652726
C  C99  1  0.38200000  0.35102000  0.58300000  1.0 0.069652726
C  C100  1  0.11800000  0.85102000  0.41700000  1.0 0.069652726
C  C101  1  0.50480000  0.59951000  0.17370000  1.0 -0.2007965282
C  C102  1  0.99520000  0.09951000  0.82630000  1.0 -0.2007965282
C  C103  1  0.49520000  0.40049000  0.82630000  1.0 -0.2007965282
C  C104  1  0.00480000  0.90049000  0.17370000  1.0 -0.2007965282
C  C105  1  0.71880000  0.69399000  0.51260000  1.0 -0.1003057096
C  C106  1  0.78120000  0.19399000  0.48740000  1.0 -0.1003057096
C  C107  1  0.28120000  0.30601000  0.48740000  1.0 -0.1003057096
C  C108  1  0.21880000  0.80601000  0.51260000  1.0 -0.1003057096
C  C109  1  0.48400000  0.67572000  0.11230000  1.0 0.069652726
C  C110  1  0.01600000  0.17572000  0.88770000  1.0 0.069652726
C  C111  1  0.51600000  0.32428000  0.88770000  1.0 0.069652726
C  C112  1  0.98400000  0.82428000  0.11230000  1.0 0.069652726
C  C113  1  0.09980000  0.51391000  0.21830000  1.0 0.069652726
C  C114  1  0.40020000  0.01391000  0.78170000  1.0 0.069652726
C  C115  1  0.90020000  0.48609000  0.78170000  1.0 0.069652726
C  C116  1  0.59980000  0.98609000  0.21830000  1.0 0.069652726
C  C117  1  0.05630000  0.66625000  0.91880000  1.0 -0.0918457013
C  C118  1  0.44370000  0.16625000  0.08120000  1.0 -0.0918457013
C  C119  1  0.94370000  0.33375000  0.08120000  1.0 -0.0918457013
C  C120  1  0.55630000  0.83375000  0.91880000  1.0 -0.0918457013
C  C121  1  0.00940000  0.69730000  0.50850000  1.0 -0.041320946
C  C122  1  0.49060000  0.19730000  0.49150000  1.0 -0.041320946
C  C123  1  0.99060000  0.30270000  0.49150000  1.0 -0.041320946
C  C124  1  0.50940000  0.80270000  0.50850000  1.0 -0.041320946
C  C125  1  0.99590000  0.71984000  0.58550000  1.0 0.5916557844
C  C126  1  0.50410000  0.21984000  0.41450000  1.0 0.5916557844
C  C127  1  0.00410000  0.28016000  0.41450000  1.0 0.5916557844
C  C128  1  0.49590000  0.78016000  0.58550000  1.0 0.5916557844
C  C129  1  0.52630000  0.56963000  0.24060000  1.0 0.0829731665
C  C130  1  0.97370000  0.06963000  0.75940000  1.0 0.0829731665
C  C131  1  0.47370000  0.43037000  0.75940000  1.0 0.0829731665
C  C132  1  0.02630000  0.93037000  0.24060000  1.0 0.0829731665
C  C133  1  0.56350000  0.58693000  0.31930000  1.0 -0.2007965282
C  C134  1  0.93650000  0.08693000  0.68070000  1.0 -0.2007965282
C  C135  1  0.43650000  0.41307000  0.68070000  1.0 -0.2007965282
C  C136  1  0.06350000  0.91307000  0.31930000  1.0 -0.2007965282
C  C137  1  0.50440000  0.52174000  0.23020000  1.0 0.069652726
C  C138  1  0.99560000  0.02174000  0.76980000  1.0 0.069652726
C  C139  1  0.49560000  0.47826000  0.76980000  1.0 0.069652726
C  C140  1  0.00440000  0.97826000  0.23020000  1.0 0.069652726
C  C141  1  0.61710000  0.65064000  0.56510000  1.0 -0.1064481464
C  C142  1  0.88290000  0.15064000  0.43490000  1.0 -0.1064481464
C  C143  1  0.38290000  0.34936000  0.43490000  1.0 -0.1064481464
C  C144  1  0.11710000  0.84936000  0.56510000  1.0 -0.1064481464
C  C145  1  0.17250000  0.44955000  0.17740000  1.0 -0.1003057096
C  C146  1  0.32750000  0.94955000  0.82260000  1.0 -0.1003057096
C  C147  1  0.82750000  0.55045000  0.82260000  1.0 -0.1003057096
C  C148  1  0.67250000  0.05045000  0.17740000  1.0 -0.1003057096
C  C149  1  0.08390000  0.66035000  0.07070000  1.0 0.069652726
C  C150  1  0.41610000  0.16035000  0.92930000  1.0 0.069652726
C  C151  1  0.91610000  0.33965000  0.92930000  1.0 0.069652726
C  C152  1  0.58390000  0.83965000  0.07070000  1.0 0.069652726
C  C153  1  0.38630000  0.73330000  0.05250000  1.0 -0.1003057096
C  C154  1  0.11370000  0.23330000  0.94750000  1.0 -0.1003057096
C  C155  1  0.61370000  0.26670000  0.94750000  1.0 -0.1003057096
C  C156  1  0.88630000  0.76670000  0.05250000  1.0 -0.1003057096
C  C157  1  0.11560000  0.70455000  0.07420000  1.0 -0.1500166747
C  C158  1  0.38440000  0.20455000  0.92580000  1.0 -0.1500166747
C  C159  1  0.88440000  0.29545000  0.92580000  1.0 -0.1500166747
C  C160  1  0.61560000  0.79545000  0.07420000  1.0 -0.1500166747
C  C161  1  0.05450000  0.64219000  0.99040000  1.0 -0.1500166747
C  C162  1  0.44550000  0.14219000  0.00960000  1.0 -0.1500166747
C  C163  1  0.94550000  0.35781000  0.00960000  1.0 -0.1500166747
C  C164  1  0.55450000  0.85781000  0.99040000  1.0 -0.1500166747
C  C165  1  0.16200000  0.49558000  0.18070000  1.0 -0.1500166747
C  C166  1  0.33800000  0.99558000  0.81930000  1.0 -0.1500166747
C  C167  1  0.83800000  0.50442000  0.81930000  1.0 -0.1500166747
C  C168  1  0.66200000  0.00442000  0.18070000  1.0 -0.1500166747
C  C169  1  0.06230000  0.43871000  0.25270000  1.0 -0.1003057096
C  C170  1  0.43770000  0.93871000  0.74730000  1.0 -0.1003057096
C  C171  1  0.93770000  0.56129000  0.74730000  1.0 -0.1003057096
C  C172  1  0.56230000  0.06129000  0.25270000  1.0 -0.1003057096
C  C173  1  0.07980000  0.63471000  0.14670000  1.0 0.0829731665
C  C174  1  0.42020000  0.13471000  0.85330000  1.0 0.0829731665
C  C175  1  0.92020000  0.36529000  0.85330000  1.0 0.0829731665
C  C176  1  0.57980000  0.86529000  0.14670000  1.0 0.0829731665
C  C177  1  0.40750000  0.46362000  0.16740000  1.0 -0.1003057096
C  C178  1  0.09250000  0.96362000  0.83260000  1.0 -0.1003057096
C  C179  1  0.59250000  0.53638000  0.83260000  1.0 -0.1003057096
C  C180  1  0.90750000  0.03638000  0.16740000  1.0 -0.1003057096
C  C181  1  0.06740000  0.58458000  0.28910000  1.0 -0.2082487707
C  C182  1  0.43260000  0.08458000  0.71090000  1.0 -0.2082487707
C  C183  1  0.93260000  0.41542000  0.71090000  1.0 -0.2082487707
C  C184  1  0.56740000  0.91542000  0.28910000  1.0 -0.2082487707
C  C185  1  0.42830000  0.70900000  0.12120000  1.0 -0.1500166747
C  C186  1  0.07170000  0.20900000  0.87880000  1.0 -0.1500166747
C  C187  1  0.57170000  0.29100000  0.87880000  1.0 -0.1500166747
C  C188  1  0.92830000  0.79100000  0.12120000  1.0 -0.1500166747
C  C189  1  0.07590000  0.69531000  0.38930000  1.0 -0.156979948
C  C190  1  0.42410000  0.19531000  0.61070000  1.0 -0.156979948
C  C191  1  0.92410000  0.30469000  0.61070000  1.0 -0.156979948
C  C192  1  0.57590000  0.80469000  0.38930000  1.0 -0.156979948
C  C193  1  0.43150000  0.50856000  0.17460000  1.0 -0.1500166747
C  C194  1  0.06850000  0.00856000  0.82540000  1.0 -0.1500166747
C  C195  1  0.56850000  0.49144000  0.82540000  1.0 -0.1500166747
C  C196  1  0.93150000  0.99144000  0.17460000  1.0 -0.1500166747
C  C197  1  0.04990000  0.48446000  0.25450000  1.0 -0.156979948
C  C198  1  0.45010000  0.98446000  0.74550000  1.0 -0.156979948
C  C199  1  0.95010000  0.51554000  0.74550000  1.0 -0.156979948
C  C200  1  0.54990000  0.01554000  0.25450000  1.0 -0.156979948
C  C201  1  0.03920000  0.65410000  0.36410000  1.0 0.069652726
C  C202  1  0.46080000  0.15410000  0.63590000  1.0 0.069652726
C  C203  1  0.96080000  0.34590000  0.63590000  1.0 0.069652726
C  C204  1  0.53920000  0.84590000  0.36410000  1.0 0.069652726
C  C205  1  0.52990000  0.44471000  0.26990000  1.0 -0.0918457013
C  C206  1  0.97010000  0.94471000  0.73010000  1.0 -0.0918457013
C  C207  1  0.47010000  0.55529000  0.73010000  1.0 -0.0918457013
C  C208  1  0.02990000  0.05529000  0.26990000  1.0 -0.0918457013
C  C209  1  0.05620000  0.63098000  0.28940000  1.0 0.0829731665
C  C210  1  0.44380000  0.13098000  0.71060000  1.0 0.0829731665
C  C211  1  0.94380000  0.36902000  0.71060000  1.0 0.0829731665
C  C212  1  0.55620000  0.86902000  0.28940000  1.0 0.0829731665
C  C213  1  0.06210000  0.71626000  0.46090000  1.0 -0.0918457013
C  C214  1  0.43790000  0.21626000  0.53910000  1.0 -0.0918457013
C  C215  1  0.93790000  0.28374000  0.53910000  1.0 -0.0918457013
C  C216  1  0.56210000  0.78374000  0.46090000  1.0 -0.0918457013
C  C217  1  0.06090000  0.65511000  0.21730000  1.0 -0.2007965282
C  C218  1  0.43910000  0.15511000  0.78270000  1.0 -0.2007965282
C  C219  1  0.93910000  0.34489000  0.78270000  1.0 -0.2007965282
C  C220  1  0.56090000  0.84489000  0.21730000  1.0 -0.2007965282
C  C221  1  0.58630000  0.63455000  0.48570000  1.0 -0.1411931281
C  C222  1  0.91370000  0.13455000  0.51430000  1.0 -0.1411931281
C  C223  1  0.41370000  0.36545000  0.51430000  1.0 -0.1411931281
C  C224  1  0.08630000  0.86545000  0.48570000  1.0 -0.1411931281
C  C225  1  0.09220000  0.58798000  0.14870000  1.0 -0.2007965282
C  C226  1  0.40780000  0.08798000  0.85130000  1.0 -0.2007965282
C  C227  1  0.90780000  0.41202000  0.85130000  1.0 -0.2007965282
C  C228  1  0.59220000  0.91202000  0.14870000  1.0 -0.2007965282
C  C229  1  0.08550000  0.56270000  0.21850000  1.0 0.0829731665
C  C230  1  0.41450000  0.06270000  0.78150000  1.0 0.0829731665
C  C231  1  0.91450000  0.43730000  0.78150000  1.0 0.0829731665
C  C232  1  0.58550000  0.93730000  0.21850000  1.0 0.0829731665
C  C233  1  0.98660000  0.63521000  0.41230000  1.0 -0.156979948
C  C234  1  0.51340000  0.13521000  0.58770000  1.0 -0.156979948
C  C235  1  0.01340000  0.36479000  0.58770000  1.0 -0.156979948
C  C236  1  0.48660000  0.86479000  0.41230000  1.0 -0.156979948
C  C237  1  0.97140000  0.65615000  0.48240000  1.0 -0.1003057096
C  C238  1  0.52860000  0.15615000  0.51760000  1.0 -0.1003057096
C  C239  1  0.02860000  0.34385000  0.51760000  1.0 -0.1003057096
C  C240  1  0.47140000  0.84385000  0.48240000  1.0 -0.1003057096
C  C241  1  0.55510000  0.48922000  0.27670000  1.0 -0.156979948
C  C242  1  0.94490000  0.98922000  0.72330000  1.0 -0.156979948
C  C243  1  0.44490000  0.51078000  0.72330000  1.0 -0.156979948
C  C244  1  0.05510000  0.01078000  0.27670000  1.0 -0.156979948
C  C245  1  0.86200000  0.80435000  0.63300000  1.0 -0.2203664769
C  C246  1  0.63800000  0.30435000  0.36700000  1.0 -0.2203664769
C  C247  1  0.13800000  0.19565000  0.36700000  1.0 -0.2203664769
C  C248  1  0.36200000  0.69565000  0.63300000  1.0 -0.2203664769
O  O1  1  0.67588000  0.69376000  0.72195000  1.0 -0.5903084491
O  O2  1  0.82412000  0.19376000  0.27805000  1.0 -0.5903084491
O  O3  1  0.32412000  0.30624000  0.27805000  1.0 -0.5903084491
O  O4  1  0.17588000  0.80624000  0.72195000  1.0 -0.5903084491
O  O5  1  0.91470000  0.78225000  0.70294000  1.0 -0.4982716356
O  O6  1  0.58530000  0.28225000  0.29706000  1.0 -0.4982716356
O  O7  1  0.08530000  0.21775000  0.29706000  1.0 -0.4982716356
O  O8  1  0.41470000  0.71775000  0.70294000  1.0 -0.4982716356
O  O9  1  0.40240000  0.76202000  0.84653000  1.0 -0.5371275459
O  O10  1  0.09760000  0.26202000  0.15347000  1.0 -0.5371275459
O  O11  1  0.59760000  0.23798000  0.15347000  1.0 -0.5371275459
O  O12  1  0.90240000  0.73798000  0.84653000  1.0 -0.5371275459
O  O13  1  0.09913000  0.77776000  0.84997000  1.0 -0.5682008182
O  O14  1  0.40087000  0.27776000  0.15003000  1.0 -0.5682008182
O  O15  1  0.90087000  0.22224000  0.15003000  1.0 -0.5682008182
O  O16  1  0.59913000  0.72224000  0.84997000  1.0 -0.5682008182
O  O17  1  0.36190000  0.37397000  0.15954000  1.0 -0.5511313369
O  O18  1  0.13810000  0.87397000  0.84046000  1.0 -0.5511313369
O  O19  1  0.63810000  0.62603000  0.84046000  1.0 -0.5511313369
O  O20  1  0.86190000  0.12603000  0.15954000  1.0 -0.5511313369
O  O21  1  0.94100000  0.70261000  0.62170000  1.0 -0.5371275459
O  O22  1  0.55900000  0.20261000  0.37830000  1.0 -0.5371275459
O  O23  1  0.05900000  0.29739000  0.37830000  1.0 -0.5371275459
O  O24  1  0.44100000  0.79739000  0.62170000  1.0 -0.5371275459
O  O25  1  0.47320000  0.35733000  0.26355000  1.0 -0.5511313369
O  O26  1  0.02680000  0.85733000  0.73645000  1.0 -0.5511313369
O  O27  1  0.52680000  0.64267000  0.73645000  1.0 -0.5511313369
O  O28  1  0.97320000  0.14267000  0.26355000  1.0 -0.5511313369
O  O29  1  0.03900000  0.75450000  0.61015000  1.0 -0.5511313369
O  O30  1  0.46100000  0.25450000  0.38985000  1.0 -0.5511313369
O  O31  1  0.96100000  0.24550000  0.38985000  1.0 -0.5511313369
O  O32  1  0.53900000  0.74550000  0.61015000  1.0 -0.5511313369
O  O33  1  0.28330000  0.76334000  0.89523000  1.0 -0.5567501624
O  O34  1  0.21670000  0.26334000  0.10477000  1.0 -0.5567501624
O  O35  1  0.71670000  0.23666000  0.10477000  1.0 -0.5567501624
O  O36  1  0.78330000  0.73666000  0.89523000  1.0 -0.5567501624
O  O37  1  0.03770000  0.72042000  0.77779000  1.0 -0.5567501624
O  O38  1  0.46230000  0.22042000  0.22221000  1.0 -0.5567501624
O  O39  1  0.96230000  0.27958000  0.22221000  1.0 -0.5567501624
O  O40  1  0.53770000  0.77958000  0.77779000  1.0 -0.5567501624
O  O41  1  0.18480000  0.35739000  0.16339000  1.0 -0.5682008182
O  O42  1  0.31520000  0.85739000  0.83661000  1.0 -0.5682008182
O  O43  1  0.81520000  0.64261000  0.83661000  1.0 -0.5682008182
O  O44  1  0.68480000  0.14261000  0.16339000  1.0 -0.5682008182
O  O45  1  0.78660000  0.72001000  0.67656000  1.0 -0.5261281942
O  O46  1  0.71340000  0.22001000  0.32344000  1.0 -0.5261281942
O  O47  1  0.21340000  0.27999000  0.32344000  1.0 -0.5261281942
O  O48  1  0.28660000  0.77999000  0.67656000  1.0 -0.5261281942
O  O49  1  0.09680000  0.34694000  0.25086000  1.0 -0.5511313369
O  O50  1  0.40320000  0.84694000  0.74914000  1.0 -0.5511313369
O  O51  1  0.90320000  0.65306000  0.74914000  1.0 -0.5511313369
O  O52  1  0.59680000  0.15306000  0.25086000  1.0 -0.5511313369
O  O53  1  0.22820000  0.83111000  0.99070000  1.0 -0.3623457764
O  O54  1  0.27180000  0.33111000  0.00930000  1.0 -0.3623457764
O  O55  1  0.77180000  0.16889000  0.00930000  1.0 -0.3623457764
O  O56  1  0.72820000  0.66889000  0.99070000  1.0 -0.3623457764
