# DDEC6 charges by PACMAN v1.1 (https://github.com/mtap-research/PACMAN-charge/)
data_KICCIM_FSR_pacman
_symmetry_space_group_name_H-M   'P 1'
_cell_length_a   15.83000000
_cell_length_b   29.91450000
_cell_length_c   16.41670000
_cell_angle_alpha   90.00000000
_cell_angle_beta   103.02100000
_cell_angle_gamma   90.00000000
_symmetry_Int_Tables_number   1
_chemical_formula_structural   Fe3H40C57O14
_chemical_formula_sum   'Fe12 H160 C228 O56'
_cell_volume   7574.18098261
_cell_formula_units_Z   4
loop_
 _symmetry_equiv_pos_site_id
 _symmetry_equiv_pos_as_xyz
  1  'x, y, z'
loop_
 _atom_site_type_symbol
 _atom_site_label
 _atom_site_symmetry_multiplicity
 _atom_site_fract_x
 _atom_site_fract_y
 _atom_site_fract_z
 _atom_site_occupancy
 _atom_site_charge
Fe  Fe1  1  0.26237000  0.32516000  0.13668000  1.0 1.0491734697
Fe  Fe2  1  0.23763000  0.82516000  0.86332000  1.0 1.0491734697
Fe  Fe3  1  0.73763000  0.67484000  0.86332000  1.0 1.0491734697
Fe  Fe4  1  0.76237000  0.17484000  0.13668000  1.0 1.0491734697
Fe  Fe5  1  0.43915000  0.29355000  0.27679000  1.0 0.9370487883
Fe  Fe6  1  0.06085000  0.79355000  0.72321000  1.0 0.9370487883
Fe  Fe7  1  0.56085000  0.70645000  0.72321000  1.0 0.9370487883
Fe  Fe8  1  0.93915000  0.20645000  0.27679000  1.0 0.9370487883
Fe  Fe9  1  0.93140000  0.71752000  0.74322000  1.0 1.1062958195
Fe  Fe10  1  0.56860000  0.21752000  0.25678000  1.0 1.1035683904
Fe  Fe11  1  0.06860000  0.28248000  0.25678000  1.0 1.1035683904
Fe  Fe12  1  0.43140000  0.78248000  0.74322000  1.0 1.1035683904
H  H1  1  0.86876000  0.81699000  0.76999000  1.0 0.1273789323
H  H2  1  0.63124000  0.31699000  0.23001000  1.0 0.1273789323
H  H3  1  0.13124000  0.18301000  0.23001000  1.0 0.1273789323
H  H4  1  0.36876000  0.68301000  0.76999000  1.0 0.1273789323
H  H5  1  0.81267000  0.79501000  0.68624000  1.0 0.0984052001
H  H6  1  0.68733000  0.29501000  0.31376000  1.0 0.0984052001
H  H7  1  0.18733000  0.20499000  0.31376000  1.0 0.0984052001
H  H8  1  0.31267000  0.70499000  0.68624000  1.0 0.0984052001
H  H9  1  0.87552000  0.83626000  0.68074000  1.0 0.0698023922
H  H10  1  0.62448000  0.33626000  0.31926000  1.0 0.0698023922
H  H11  1  0.12448000  0.16374000  0.31926000  1.0 0.0698023922
H  H12  1  0.37552000  0.66374000  0.68074000  1.0 0.0698023922
H  H13  1  0.26873000  0.36933000  0.99400000  1.0 0.3501318647
H  H14  1  0.23127000  0.86933000  0.00600000  1.0 0.3501318647
H  H15  1  0.73127000  0.63067000  0.00600000  1.0 0.3501318647
H  H16  1  0.76873000  0.13067000  0.99400000  1.0 0.3501318647
H  H17  1  0.49267000  0.68800000  0.92372000  1.0 0.1273789323
H  H18  1  0.00733000  0.18800000  0.07628000  1.0 0.1273789323
H  H19  1  0.50733000  0.31200000  0.07628000  1.0 0.1273789323
H  H20  1  0.99267000  0.81200000  0.92372000  1.0 0.1273789323
H  H21  1  0.34276000  0.46103000  0.13697000  1.0 0.1186666848
H  H22  1  0.15724000  0.96103000  0.86303000  1.0 0.1186666848
H  H23  1  0.65724000  0.53897000  0.86303000  1.0 0.1186666848
H  H24  1  0.84276000  0.03897000  0.13697000  1.0 0.1186666848
H  H25  1  0.78791000  0.70788000  0.53427000  1.0 0.1273789323
H  H26  1  0.71209000  0.20788000  0.46573000  1.0 0.1273789323
H  H27  1  0.21209000  0.29212000  0.46573000  1.0 0.1273789323
H  H28  1  0.28791000  0.79212000  0.53427000  1.0 0.1273789323
H  H29  1  0.39026000  0.53444000  0.15128000  1.0 0.1125511606
H  H30  1  0.10974000  0.03444000  0.84872000  1.0 0.1125511606
H  H31  1  0.60974000  0.46556000  0.84872000  1.0 0.1186666848
H  H32  1  0.89026000  0.96556000  0.15128000  1.0 0.1125511606
H  H33  1  0.15487000  0.72133000  0.14089000  1.0 0.1186666848
H  H34  1  0.34513000  0.22133000  0.85911000  1.0 0.1125511606
H  H35  1  0.84513000  0.27867000  0.85911000  1.0 0.1186666848
H  H36  1  0.65487000  0.77867000  0.14089000  1.0 0.1125511606
H  H37  1  0.05219000  0.61773000  0.99248000  1.0 0.1186666848
H  H38  1  0.44781000  0.11773000  0.00752000  1.0 0.1186666848
H  H39  1  0.94781000  0.38227000  0.00752000  1.0 0.1186666848
H  H40  1  0.55219000  0.88227000  0.99248000  1.0 0.1186666848
H  H41  1  0.72759000  0.68424000  0.39832000  1.0 0.1186666848
H  H42  1  0.77241000  0.18424000  0.60168000  1.0 0.1186666848
H  H43  1  0.27241000  0.31576000  0.60168000  1.0 0.1186666848
H  H44  1  0.22759000  0.81576000  0.39832000  1.0 0.1186666848
H  H45  1  0.05015000  0.57153000  0.33462000  1.0 0.1125511606
H  H46  1  0.44985000  0.07153000  0.66538000  1.0 0.1125511606
H  H47  1  0.94985000  0.42847000  0.66538000  1.0 0.1125511606
H  H48  1  0.55015000  0.92847000  0.33462000  1.0 0.1125511606
H  H49  1  0.98973000  0.50201000  0.27657000  1.0 0.1125511606
H  H50  1  0.51027000  0.00201000  0.72343000  1.0 0.1125511606
H  H51  1  0.01027000  0.49799000  0.72343000  1.0 0.1125511606
H  H52  1  0.48973000  0.99799000  0.27657000  1.0 0.1125511606
H  H53  1  0.10316000  0.57748000  0.10529000  1.0 0.1125511606
H  H54  1  0.39684000  0.07748000  0.89471000  1.0 0.1125511606
H  H55  1  0.89684000  0.42252000  0.89471000  1.0 0.1125511606
H  H56  1  0.60316000  0.92252000  0.10529000  1.0 0.1125511606
H  H57  1  0.06560000  0.65859000  0.87802000  1.0 0.1186666848
H  H58  1  0.43440000  0.15859000  0.12198000  1.0 0.1186666848
H  H59  1  0.93440000  0.34141000  0.12198000  1.0 0.1186666848
H  H60  1  0.56560000  0.84141000  0.87802000  1.0 0.1186666848
H  H61  1  0.58623000  0.56609000  0.37457000  1.0 0.1125511606
H  H62  1  0.91377000  0.06609000  0.62543000  1.0 0.1125511606
H  H63  1  0.41377000  0.43391000  0.62543000  1.0 0.1125511606
H  H64  1  0.08623000  0.93391000  0.37457000  1.0 0.1125511606
H  H65  1  0.00018000  0.42430000  0.26898000  1.0 0.1273789323
H  H66  1  0.49982000  0.92430000  0.73102000  1.0 0.1273789323
H  H67  1  0.99982000  0.57570000  0.73102000  1.0 0.1273789323
H  H68  1  0.50018000  0.07570000  0.26898000  1.0 0.1273789323
H  H69  1  0.54824000  0.64152000  0.03627000  1.0 0.1186666848
H  H70  1  0.95176000  0.14152000  0.96373000  1.0 0.1186666848
H  H71  1  0.45176000  0.35848000  0.96373000  1.0 0.1186666848
H  H72  1  0.04824000  0.85848000  0.03627000  1.0 0.1186666848
H  H73  1  0.18357000  0.51599000  0.15594000  1.0 0.1125511606
H  H74  1  0.31643000  0.01599000  0.84406000  1.0 0.1125511606
H  H75  1  0.81643000  0.48401000  0.84406000  1.0 0.1125511606
H  H76  1  0.68357000  0.98401000  0.15594000  1.0 0.1125511606
H  H77  1  0.16399000  0.76183000  0.02552000  1.0 0.1186666848
H  H78  1  0.33601000  0.26183000  0.97448000  1.0 0.1186666848
H  H79  1  0.83601000  0.23817000  0.97448000  1.0 0.1186666848
H  H80  1  0.66399000  0.73817000  0.02552000  1.0 0.1186666848
H  H81  1  0.19547000  0.43803000  0.14891000  1.0 0.1186666848
H  H82  1  0.30453000  0.93803000  0.85109000  1.0 0.1186666848
H  H83  1  0.80453000  0.56197000  0.85109000  1.0 0.1186666848
H  H84  1  0.69547000  0.06197000  0.14891000  1.0 0.1186666848
H  H85  1  0.06454000  0.69131000  0.22370000  1.0 0.1125511606
H  H86  1  0.43546000  0.19131000  0.77630000  1.0 0.1125511606
H  H87  1  0.93546000  0.30869000  0.77630000  1.0 0.1125511606
H  H88  1  0.56454000  0.80869000  0.22370000  1.0 0.1125511606
H  H89  1  0.58594000  0.69074000  0.28120000  1.0 0.1186666848
H  H90  1  0.91406000  0.19074000  0.71880000  1.0 0.1186666848
H  H91  1  0.41406000  0.30926000  0.71880000  1.0 0.1186666848
H  H92  1  0.08594000  0.80926000  0.28120000  1.0 0.1186666848
H  H93  1  0.48577000  0.58853000  0.12859000  1.0 0.1186666848
H  H94  1  0.01423000  0.08853000  0.87141000  1.0 0.1186666848
H  H95  1  0.51423000  0.41147000  0.87141000  1.0 0.1186666848
H  H96  1  0.98577000  0.91147000  0.12859000  1.0 0.1186666848
H  H97  1  0.55100000  0.61187000  0.48469000  1.0 0.1186666848
H  H98  1  0.94900000  0.11187000  0.51531000  1.0 0.1186666848
H  H99  1  0.44900000  0.38813000  0.51531000  1.0 0.1186666848
H  H100  1  0.05100000  0.88813000  0.48469000  1.0 0.1186666848
H  H101  1  0.60764000  0.64020000  0.61936000  1.0 0.1186666848
H  H102  1  0.89236000  0.14020000  0.38064000  1.0 0.1186666848
H  H103  1  0.39236000  0.35980000  0.38064000  1.0 0.1186666848
H  H104  1  0.10764000  0.85980000  0.61936000  1.0 0.1186666848
H  H105  1  0.94216000  0.64744000  0.51930000  1.0 0.1273789323
H  H106  1  0.55784000  0.14744000  0.48070000  1.0 0.1273789323
H  H107  1  0.05784000  0.35256000  0.48070000  1.0 0.1273789323
H  H108  1  0.44216000  0.85256000  0.51930000  1.0 0.1273789323
H  H109  1  0.12098000  0.71136000  0.36250000  1.0 0.1125511606
H  H110  1  0.37902000  0.21136000  0.63750000  1.0 0.1125511606
H  H111  1  0.87902000  0.28864000  0.63750000  1.0 0.1125511606
H  H112  1  0.62098000  0.78864000  0.36250000  1.0 0.1125511606
H  H113  1  0.37262000  0.76162000  0.07021000  1.0 0.1186666848
H  H114  1  0.12738000  0.26162000  0.92979000  1.0 0.1186666848
H  H115  1  0.62738000  0.23838000  0.92979000  1.0 0.1186666848
H  H116  1  0.87262000  0.73838000  0.07021000  1.0 0.1186666848
H  H117  1  0.60458000  0.49584000  0.32022000  1.0 0.1186666848
H  H118  1  0.89542000  0.99584000  0.67978000  1.0 0.1186666848
H  H119  1  0.39542000  0.50416000  0.67978000  1.0 0.1186666848
H  H120  1  0.10458000  0.00416000  0.32022000  1.0 0.1186666848
H  H121  1  0.10975000  0.74446000  0.48749000  1.0 0.1186666848
H  H122  1  0.39025000  0.24446000  0.51251000  1.0 0.1186666848
H  H123  1  0.89025000  0.25554000  0.51251000  1.0 0.1186666848
H  H124  1  0.60975000  0.75554000  0.48749000  1.0 0.1186666848
H  H125  1  0.55709000  0.42146000  0.30613000  1.0 0.1273789323
H  H126  1  0.94291000  0.92146000  0.69387000  1.0 0.1273789323
H  H127  1  0.44291000  0.57854000  0.69387000  1.0 0.1273789323
H  H128  1  0.05709000  0.07854000  0.30613000  1.0 0.1273789323
H  H129  1  0.95877000  0.61327000  0.39957000  1.0 0.1186666848
H  H130  1  0.54123000  0.11327000  0.60043000  1.0 0.1186666848
H  H131  1  0.04123000  0.38673000  0.60043000  1.0 0.1186666848
H  H132  1  0.45877000  0.88673000  0.39957000  1.0 0.1186666848
H  H133  1  0.44170000  0.71983000  0.18581000  1.0 0.1186666848
H  H134  1  0.05830000  0.21983000  0.81419000  1.0 0.1186666848
H  H135  1  0.55830000  0.28017000  0.81419000  1.0 0.1186666848
H  H136  1  0.94170000  0.78017000  0.18581000  1.0 0.1186666848
H  H137  1  0.14190000  0.36561000  0.90753000  1.0 0.1186666848
H  H138  1  0.35810000  0.86561000  0.09247000  1.0 0.1186666848
H  H139  1  0.85810000  0.63439000  0.09247000  1.0 0.1186666848
H  H140  1  0.64190000  0.13439000  0.90753000  1.0 0.1186666848
H  H141  1  0.12823000  0.38913000  0.99116000  1.0 0.1186666848
H  H142  1  0.37177000  0.88913000  0.00884000  1.0 0.1186666848
H  H143  1  0.87177000  0.61087000  0.00884000  1.0 0.1186666848
H  H144  1  0.62823000  0.11087000  0.99116000  1.0 0.1186666848
H  H145  1  0.10785000  0.33701000  0.97604000  1.0 0.1186666848
H  H146  1  0.39215000  0.83701000  0.02396000  1.0 0.1186666848
H  H147  1  0.89215000  0.66299000  0.02396000  1.0 0.1186666848
H  H148  1  0.60785000  0.16299000  0.97604000  1.0 0.1186666848
H  H149  1  0.89975000  0.82968000  0.61967000  1.0 0.080504722
H  H150  1  0.60025000  0.32968000  0.38033000  1.0 0.080504722
H  H151  1  0.10025000  0.17032000  0.38033000  1.0 0.080504722
H  H152  1  0.39975000  0.67032000  0.61967000  1.0 0.080504722
H  H153  1  0.81793000  0.80057000  0.62984000  1.0 0.080504722
H  H154  1  0.68207000  0.30057000  0.37016000  1.0 0.080504722
H  H155  1  0.18207000  0.19943000  0.37016000  1.0 0.080504722
H  H156  1  0.31793000  0.69943000  0.62984000  1.0 0.080504722
H  H157  1  0.88744000  0.77992000  0.58311000  1.0 0.1186666848
H  H158  1  0.61256000  0.27992000  0.41689000  1.0 0.1186666848
H  H159  1  0.11256000  0.22008000  0.41689000  1.0 0.1186666848
H  H160  1  0.38744000  0.72008000  0.58311000  1.0 0.1186666848
C  C1  1  0.86810000  0.80910000  0.71190000  1.0 -0.0737300095
C  C2  1  0.63190000  0.30910000  0.28810000  1.0 -0.0737300095
C  C3  1  0.13190000  0.19090000  0.28810000  1.0 -0.0737300095
C  C4  1  0.36810000  0.69090000  0.71190000  1.0 -0.0737300095
C  C5  1  0.44550000  0.43392000  0.21920000  1.0 -0.0385616182
C  C6  1  0.05450000  0.93392000  0.78080000  1.0 -0.0385616182
C  C7  1  0.55450000  0.56608000  0.78080000  1.0 -0.0385616182
C  C8  1  0.94550000  0.06608000  0.21920000  1.0 -0.0385616182
C  C9  1  0.08550000  0.51718000  0.21750000  1.0 0.0698023922
C  C10  1  0.41450000  0.01718000  0.78250000  1.0 0.0698023922
C  C11  1  0.91450000  0.48282000  0.78250000  1.0 0.0698023922
C  C12  1  0.58550000  0.98282000  0.21750000  1.0 0.0698023922
C  C13  1  0.73710000  0.69560000  0.67500000  1.0 0.6084526284
C  C14  1  0.76290000  0.19560000  0.32500000  1.0 0.6084526284
C  C15  1  0.26290000  0.30440000  0.32500000  1.0 0.6084526284
C  C16  1  0.23710000  0.80440000  0.67500000  1.0 0.6084526284
C  C17  1  0.10830000  0.37370000  0.20130000  1.0 0.5875405027
C  C18  1  0.39170000  0.87370000  0.79870000  1.0 0.5875405027
C  C19  1  0.89170000  0.62630000  0.79870000  1.0 0.5875405027
C  C20  1  0.60830000  0.12630000  0.20130000  1.0 0.5875405027
C  C21  1  0.63160000  0.64681000  0.42710000  1.0 0.080504722
C  C22  1  0.86840000  0.14681000  0.57290000  1.0 0.0698023922
C  C23  1  0.36840000  0.35319000  0.57290000  1.0 0.0698023922
C  C24  1  0.13160000  0.85319000  0.42710000  1.0 0.080504722
C  C25  1  0.08800000  0.63907000  0.15340000  1.0 0.080504722
C  C26  1  0.41200000  0.13907000  0.84660000  1.0 0.080504722
C  C27  1  0.91200000  0.36093000  0.84660000  1.0 0.080504722
C  C28  1  0.58800000  0.86093000  0.15340000  1.0 0.080504722
C  C29  1  0.42290000  0.72779000  0.98440000  1.0 -0.0385616182
C  C30  1  0.07710000  0.22779000  0.01560000  1.0 -0.0385616182
C  C31  1  0.57710000  0.27221000  0.01560000  1.0 -0.0385616182
C  C32  1  0.92290000  0.77221000  0.98440000  1.0 -0.0385616182
C  C33  1  0.09900000  0.42362000  0.20790000  1.0 -0.0299686984
C  C34  1  0.40100000  0.92362000  0.79210000  1.0 -0.0299686984
C  C35  1  0.90100000  0.57638000  0.79210000  1.0 -0.0299686984
C  C36  1  0.59900000  0.07638000  0.20790000  1.0 -0.0299686984
C  C37  1  0.47860000  0.69330000  0.97620000  1.0 -0.1020380963
C  C38  1  0.02140000  0.19330000  0.02380000  1.0 -0.1020380963
C  C39  1  0.52140000  0.30670000  0.02380000  1.0 -0.1020380963
C  C40  1  0.97860000  0.80670000  0.97620000  1.0 -0.1020380963
C  C41  1  0.39630000  0.46797000  0.17420000  1.0 -0.1020380963
C  C42  1  0.10370000  0.96797000  0.82580000  1.0 -0.1020380963
C  C43  1  0.60370000  0.53203000  0.82580000  1.0 -0.1020380963
C  C44  1  0.89630000  0.03203000  0.17420000  1.0 -0.1020380963
C  C45  1  0.70090000  0.67776000  0.58810000  1.0 -0.0208907751
C  C46  1  0.79910000  0.17776000  0.41190000  1.0 -0.0208907751
C  C47  1  0.29910000  0.32224000  0.41190000  1.0 -0.0208907751
C  C48  1  0.20090000  0.82224000  0.58810000  1.0 -0.0208907751
C  C49  1  0.73770000  0.68950000  0.52370000  1.0 -0.1106975025
C  C50  1  0.76230000  0.18950000  0.47630000  1.0 -0.1106975025
C  C51  1  0.26230000  0.31050000  0.47630000  1.0 -0.1106975025
C  C52  1  0.23770000  0.81050000  0.52370000  1.0 -0.1106975025
C  C53  1  0.11080000  0.71560000  0.93920000  1.0 -0.0208907751
C  C54  1  0.38920000  0.21560000  0.06080000  1.0 -0.0208907751
C  C55  1  0.88920000  0.28440000  0.06080000  1.0 -0.0208907751
C  C56  1  0.61080000  0.78440000  0.93920000  1.0 -0.0208907751
C  C57  1  0.42420000  0.51153000  0.18290000  1.0 -0.1581667287
C  C58  1  0.07580000  0.01153000  0.81710000  1.0 -0.1498787792
C  C59  1  0.57580000  0.48847000  0.81710000  1.0 -0.1581667287
C  C60  1  0.92420000  0.98847000  0.18290000  1.0 -0.1581667287
C  C61  1  0.13450000  0.70867000  0.08700000  1.0 -0.1498787792
C  C62  1  0.36550000  0.20867000  0.91300000  1.0 -0.1498787792
C  C63  1  0.86550000  0.29133000  0.91300000  1.0 -0.1498787792
C  C64  1  0.63450000  0.79133000  0.08700000  1.0 -0.1498787792
C  C65  1  0.41320000  0.38676000  0.21000000  1.0 0.5875405027
C  C66  1  0.08680000  0.88676000  0.79000000  1.0 0.5875405027
C  C67  1  0.58680000  0.61324000  0.79000000  1.0 0.5875405027
C  C68  1  0.91320000  0.11324000  0.21000000  1.0 0.5875405027
C  C69  1  0.09920000  0.66518000  0.07980000  1.0 0.0698023922
C  C70  1  0.40080000  0.16518000  0.92020000  1.0 0.0698023922
C  C71  1  0.90080000  0.33482000  0.92020000  1.0 0.0698023922
C  C72  1  0.59920000  0.83482000  0.07980000  1.0 0.0698023922
C  C73  1  0.07430000  0.64734000  0.99980000  1.0 -0.1430906401
C  C74  1  0.42570000  0.14734000  0.00020000  1.0 -0.1430906401
C  C75  1  0.92570000  0.35266000  0.00020000  1.0 -0.1430906401
C  C76  1  0.57430000  0.85266000  0.99980000  1.0 -0.1430906401
C  C77  1  0.70260000  0.67487000  0.44290000  1.0 -0.1498787792
C  C78  1  0.79740000  0.17487000  0.55710000  1.0 -0.1498787792
C  C79  1  0.29740000  0.32513000  0.55710000  1.0 -0.1498787792
C  C80  1  0.20260000  0.82513000  0.44290000  1.0 -0.1498787792
C  C81  1  0.05970000  0.58849000  0.28860000  1.0 -0.2005747454
C  C82  1  0.44030000  0.08849000  0.71140000  1.0 -0.2005747454
C  C83  1  0.94030000  0.41151000  0.71140000  1.0 -0.2005747454
C  C84  1  0.55970000  0.91151000  0.28860000  1.0 -0.2005747454
C  C85  1  0.02530000  0.69942000  0.51740000  1.0 -0.0385616182
C  C86  1  0.47470000  0.19942000  0.48260000  1.0 -0.0385616182
C  C87  1  0.97470000  0.30058000  0.48260000  1.0 -0.0385616182
C  C88  1  0.52530000  0.80058000  0.51740000  1.0 -0.0385616182
C  C89  1  0.38080000  0.75530000  0.91110000  1.0 0.5875405027
C  C90  1  0.11920000  0.25530000  0.08890000  1.0 0.5875405027
C  C91  1  0.61920000  0.24470000  0.08890000  1.0 0.5875405027
C  C92  1  0.88080000  0.74470000  0.91110000  1.0 0.5875405027
C  C93  1  0.05670000  0.63505000  0.29140000  1.0 0.0861184936
C  C94  1  0.44330000  0.13505000  0.70860000  1.0 0.0861184936
C  C95  1  0.94330000  0.36495000  0.70860000  1.0 0.0861184936
C  C96  1  0.55670000  0.86495000  0.29140000  1.0 0.0861184936
C  C97  1  0.03170000  0.48922000  0.25040000  1.0 -0.1498787792
C  C98  1  0.46830000  0.98922000  0.74960000  1.0 -0.1498787792
C  C99  1  0.96830000  0.51078000  0.74960000  1.0 -0.1498787792
C  C100  1  0.53170000  0.01078000  0.25040000  1.0 -0.1498787792
C  C101  1  0.09090000  0.59210000  0.15270000  1.0 -0.2081068378
C  C102  1  0.40910000  0.09210000  0.84730000  1.0 -0.2081068378
C  C103  1  0.90910000  0.40790000  0.84730000  1.0 -0.2081068378
C  C104  1  0.59090000  0.90790000  0.15270000  1.0 -0.2081068378
C  C105  1  0.01650000  0.72037000  0.59640000  1.0 0.5800427749
C  C106  1  0.48350000  0.22037000  0.40360000  1.0 0.5800427749
C  C107  1  0.98350000  0.27963000  0.40360000  1.0 0.5800427749
C  C108  1  0.51650000  0.77963000  0.59640000  1.0 0.5800427749
C  C109  1  0.08130000  0.67182000  0.93190000  1.0 -0.0898388148
C  C110  1  0.41870000  0.17182000  0.06810000  1.0 -0.0898388148
C  C111  1  0.91870000  0.32818000  0.06810000  1.0 -0.0898388148
C  C112  1  0.58130000  0.82818000  0.93190000  1.0 -0.0898388148
C  C113  1  0.07670000  0.56633000  0.21830000  1.0 0.080504722
C  C114  1  0.42330000  0.06633000  0.78170000  1.0 0.080504722
C  C115  1  0.92330000  0.43367000  0.78170000  1.0 0.080504722
C  C116  1  0.57670000  0.93367000  0.21830000  1.0 0.080504722
C  C117  1  0.57160000  0.58619000  0.32870000  1.0 -0.2005747454
C  C118  1  0.92840000  0.08619000  0.67130000  1.0 -0.2005747454
C  C119  1  0.42840000  0.41381000  0.67130000  1.0 -0.2005747454
C  C120  1  0.07160000  0.91381000  0.32870000  1.0 -0.2005747454
C  C121  1  0.59250000  0.63078000  0.34110000  1.0 0.080504722
C  C122  1  0.90750000  0.13078000  0.65890000  1.0 0.080504722
C  C123  1  0.40750000  0.36922000  0.65890000  1.0 0.080504722
C  C124  1  0.09250000  0.86922000  0.34110000  1.0 0.080504722
C  C125  1  0.03780000  0.44276000  0.24600000  1.0 -0.1106975025
C  C126  1  0.46220000  0.94276000  0.75400000  1.0 -0.1106975025
C  C127  1  0.96220000  0.55724000  0.75400000  1.0 -0.1106975025
C  C128  1  0.53780000  0.05724000  0.24600000  1.0 -0.1106975025
C  C129  1  0.10080000  0.74342000  0.86240000  1.0 0.5875405027
C  C130  1  0.39920000  0.24342000  0.13760000  1.0 0.5875405027
C  C131  1  0.89920000  0.25658000  0.13760000  1.0 0.5875405027
C  C132  1  0.60080000  0.75658000  0.86240000  1.0 0.5875405027
C  C133  1  0.51390000  0.66658000  0.04370000  1.0 -0.1498787792
C  C134  1  0.98610000  0.16658000  0.95630000  1.0 -0.1498787792
C  C135  1  0.48610000  0.33342000  0.95630000  1.0 -0.1498787792
C  C136  1  0.01390000  0.83342000  0.04370000  1.0 -0.1498787792
C  C137  1  0.14630000  0.49754000  0.17930000  1.0 -0.1498787792
C  C138  1  0.35370000  0.99754000  0.82070000  1.0 -0.1498787792
C  C139  1  0.85370000  0.50246000  0.82070000  1.0 -0.1498787792
C  C140  1  0.64630000  0.00246000  0.17930000  1.0 -0.1498787792
C  C141  1  0.13980000  0.73264000  0.01870000  1.0 -0.0898388148
C  C142  1  0.36020000  0.23264000  0.98130000  1.0 -0.0898388148
C  C143  1  0.86020000  0.26736000  0.98130000  1.0 -0.0898388148
C  C144  1  0.63980000  0.76736000  0.01870000  1.0 -0.0898388148
C  C145  1  0.04460000  0.65834000  0.36870000  1.0 0.080504722
C  C146  1  0.45540000  0.15834000  0.63130000  1.0 0.080504722
C  C147  1  0.95540000  0.34166000  0.63130000  1.0 0.080504722
C  C148  1  0.54460000  0.84166000  0.36870000  1.0 0.080504722
C  C149  1  0.15330000  0.45090000  0.17480000  1.0 -0.1106975025
C  C150  1  0.34670000  0.95090000  0.82520000  1.0 -0.1106975025
C  C151  1  0.84670000  0.54910000  0.82520000  1.0 -0.1106975025
C  C152  1  0.65330000  0.04910000  0.17480000  1.0 -0.1106975025
C  C153  1  0.52960000  0.56990000  0.25050000  1.0 0.080504722
C  C154  1  0.97040000  0.06990000  0.74950000  1.0 0.0861184936
C  C155  1  0.47040000  0.43010000  0.74950000  1.0 0.0861184936
C  C156  1  0.02960000  0.93010000  0.25050000  1.0 0.080504722
C  C157  1  0.06910000  0.65965000  0.22280000  1.0 -0.2081068378
C  C158  1  0.43090000  0.15965000  0.77720000  1.0 -0.2081068378
C  C159  1  0.93090000  0.34035000  0.77720000  1.0 -0.2081068378
C  C160  1  0.56910000  0.84035000  0.22280000  1.0 -0.2081068378
C  C161  1  0.49950000  0.67605000  0.12390000  1.0 0.0698023922
C  C162  1  0.00050000  0.17605000  0.87610000  1.0 0.0698023922
C  C163  1  0.50050000  0.32395000  0.87610000  1.0 0.0698023922
C  C164  1  0.99950000  0.82395000  0.12390000  1.0 0.0698023922
C  C165  1  0.57170000  0.65996000  0.27320000  1.0 -0.2081068378
C  C166  1  0.92830000  0.15996000  0.72680000  1.0 -0.2081068378
C  C167  1  0.42830000  0.34004000  0.72680000  1.0 -0.2081068378
C  C168  1  0.07170000  0.84004000  0.27320000  1.0 -0.2081068378
C  C169  1  0.50240000  0.52227000  0.23830000  1.0 0.080504722
C  C170  1  0.99760000  0.02227000  0.76170000  1.0 0.080504722
C  C171  1  0.49760000  0.47773000  0.76170000  1.0 0.080504722
C  C172  1  0.00240000  0.97773000  0.23830000  1.0 0.080504722
C  C173  1  0.53110000  0.64508000  0.19480000  1.0 0.080504722
C  C174  1  0.96890000  0.14508000  0.80520000  1.0 0.080504722
C  C175  1  0.46890000  0.35492000  0.80520000  1.0 0.080504722
C  C176  1  0.03110000  0.85492000  0.19480000  1.0 0.080504722
C  C177  1  0.51150000  0.59939000  0.18290000  1.0 -0.2005747454
C  C178  1  0.98850000  0.09939000  0.81710000  1.0 -0.2005747454
C  C179  1  0.48850000  0.40061000  0.81710000  1.0 -0.2005747454
C  C180  1  0.01150000  0.90061000  0.18290000  1.0 -0.2005747454
C  C181  1  0.59760000  0.63264000  0.49370000  1.0 -0.1498787792
C  C182  1  0.90240000  0.13264000  0.50630000  1.0 -0.1498787792
C  C183  1  0.40240000  0.36736000  0.50630000  1.0 -0.1498787792
C  C184  1  0.09760000  0.86736000  0.49370000  1.0 -0.1498787792
C  C185  1  0.63220000  0.64908000  0.57420000  1.0 -0.1106975025
C  C186  1  0.86780000  0.14908000  0.42580000  1.0 -0.1106975025
C  C187  1  0.36780000  0.35092000  0.42580000  1.0 -0.1106975025
C  C188  1  0.13220000  0.85092000  0.57420000  1.0 -0.1106975025
C  C189  1  0.98010000  0.66018000  0.48840000  1.0 -0.0898388148
C  C190  1  0.51990000  0.16018000  0.51160000  1.0 -0.0898388148
C  C191  1  0.01990000  0.33982000  0.51160000  1.0 -0.0898388148
C  C192  1  0.48010000  0.83982000  0.48840000  1.0 -0.0898388148
C  C193  1  0.08610000  0.69761000  0.39550000  1.0 -0.1581667287
C  C194  1  0.41390000  0.19761000  0.60450000  1.0 -0.1581667287
C  C195  1  0.91390000  0.30239000  0.60450000  1.0 -0.1581667287
C  C196  1  0.58610000  0.80239000  0.39550000  1.0 -0.1581667287
C  C197  1  0.40940000  0.73749000  0.06320000  1.0 -0.1106975025
C  C198  1  0.09060000  0.23749000  0.93680000  1.0 -0.1106975025
C  C199  1  0.59060000  0.26251000  0.93680000  1.0 -0.1106975025
C  C200  1  0.90940000  0.76251000  0.06320000  1.0 -0.1106975025
C  C201  1  0.55110000  0.48875000  0.28300000  1.0 -0.1498787792
C  C202  1  0.94890000  0.98875000  0.71700000  1.0 -0.1498787792
C  C203  1  0.44890000  0.51125000  0.71700000  1.0 -0.1498787792
C  C204  1  0.05110000  0.01125000  0.28300000  1.0 -0.1498787792
C  C205  1  0.07840000  0.71782000  0.46940000  1.0 -0.1020380963
C  C206  1  0.42160000  0.21782000  0.53060000  1.0 -0.1020380963
C  C207  1  0.92160000  0.28218000  0.53060000  1.0 -0.1020380963
C  C208  1  0.57840000  0.78218000  0.46940000  1.0 -0.1020380963
C  C209  1  0.52320000  0.44435000  0.27440000  1.0 -0.1106975025
C  C210  1  0.97680000  0.94435000  0.72560000  1.0 -0.1106975025
C  C211  1  0.47680000  0.55565000  0.72560000  1.0 -0.1106975025
C  C212  1  0.02320000  0.05565000  0.27440000  1.0 -0.1106975025
C  C213  1  0.98960000  0.64010000  0.41730000  1.0 -0.1581667287
C  C214  1  0.51040000  0.14010000  0.58270000  1.0 -0.1581667287
C  C215  1  0.01040000  0.35990000  0.58270000  1.0 -0.1581667287
C  C216  1  0.48960000  0.85990000  0.41730000  1.0 -0.1581667287
C  C217  1  0.44950000  0.71195000  0.13190000  1.0 -0.1498787792
C  C218  1  0.05050000  0.21195000  0.86810000  1.0 -0.1498787792
C  C219  1  0.55050000  0.28805000  0.86810000  1.0 -0.1498787792
C  C220  1  0.94950000  0.78805000  0.13190000  1.0 -0.1498787792
C  C221  1  0.14600000  0.36150000  0.96750000  1.0 -0.2204572008
C  C222  1  0.35400000  0.86150000  0.03250000  1.0 -0.2204572008
C  C223  1  0.85400000  0.63850000  0.03250000  1.0 -0.2204572008
C  C224  1  0.64600000  0.13850000  0.96750000  1.0 -0.2204572008
C  C225  1  0.87950000  0.79950000  0.62870000  1.0 -0.1743717985
C  C226  1  0.62050000  0.29950000  0.37130000  1.0 -0.1743717985
C  C227  1  0.12050000  0.20050000  0.37130000  1.0 -0.1743717985
C  C228  1  0.37950000  0.70050000  0.62870000  1.0 -0.1743717985
O  O1  1  0.93060000  0.78169000  0.71020000  1.0 -0.3131941677
O  O2  1  0.56940000  0.28169000  0.28980000  1.0 -0.3131941677
O  O3  1  0.06940000  0.21831000  0.28980000  1.0 -0.3131941677
O  O4  1  0.43060000  0.71831000  0.71020000  1.0 -0.3131941677
O  O5  1  0.69400000  0.69140000  0.73193000  1.0 -0.5993513511
O  O6  1  0.80600000  0.19140000  0.26807000  1.0 -0.5993513511
O  O7  1  0.30600000  0.30860000  0.26807000  1.0 -0.5993513511
O  O8  1  0.19400000  0.80860000  0.73193000  1.0 -0.5993513511
O  O9  1  0.96660000  0.70126000  0.63530000  1.0 -0.5478967325
O  O10  1  0.53340000  0.20126000  0.36470000  1.0 -0.5478967325
O  O11  1  0.03340000  0.29874000  0.36470000  1.0 -0.5478967325
O  O12  1  0.46660000  0.79874000  0.63530000  1.0 -0.5478967325
O  O13  1  0.45930000  0.35806000  0.25740000  1.0 -0.5678616808
O  O14  1  0.04070000  0.85806000  0.74260000  1.0 -0.5678616808
O  O15  1  0.54070000  0.64194000  0.74260000  1.0 -0.5678616808
O  O16  1  0.95930000  0.14194000  0.25740000  1.0 -0.5678616808
O  O17  1  0.06300000  0.34926000  0.23800000  1.0 -0.5478967325
O  O18  1  0.43700000  0.84926000  0.76200000  1.0 -0.5478967325
O  O19  1  0.93700000  0.65074000  0.76200000  1.0 -0.5478967325
O  O20  1  0.56300000  0.15074000  0.23800000  1.0 -0.5478967325
O  O21  1  0.15830000  0.35947000  0.15930000  1.0 -0.5587246017
O  O22  1  0.34170000  0.85947000  0.84070000  1.0 -0.5587246017
O  O23  1  0.84170000  0.64053000  0.84070000  1.0 -0.5587246017
O  O24  1  0.65830000  0.14053000  0.15930000  1.0 -0.5587246017
O  O25  1  0.34320000  0.37932000  0.15930000  1.0 -0.5587246017
O  O26  1  0.15680000  0.87932000  0.84070000  1.0 -0.5587246017
O  O27  1  0.65680000  0.62068000  0.84070000  1.0 -0.5587246017
O  O28  1  0.84320000  0.12068000  0.15930000  1.0 -0.5587246017
O  O29  1  0.05880000  0.75619000  0.62010000  1.0 -0.5678616808
O  O30  1  0.44120000  0.25619000  0.37990000  1.0 -0.5678616808
O  O31  1  0.94120000  0.24381000  0.37990000  1.0 -0.5678616808
O  O32  1  0.55880000  0.74381000  0.62010000  1.0 -0.5678616808
O  O33  1  0.80910000  0.71440000  0.68700000  1.0 -0.5478967325
O  O34  1  0.69090000  0.21440000  0.31300000  1.0 -0.5478967325
O  O35  1  0.19090000  0.28560000  0.31300000  1.0 -0.5478967325
O  O36  1  0.30910000  0.78560000  0.68700000  1.0 -0.5478967325
O  O37  1  0.42190000  0.76152000  0.85530000  1.0 -0.5678616808
O  O38  1  0.07810000  0.26152000  0.14470000  1.0 -0.5678616808
O  O39  1  0.57810000  0.23848000  0.14470000  1.0 -0.5678616808
O  O40  1  0.92190000  0.73848000  0.85530000  1.0 -0.5678616808
O  O41  1  0.12190000  0.78339000  0.86630000  1.0 -0.5587246017
O  O42  1  0.37810000  0.28339000  0.13370000  1.0 -0.5587246017
O  O43  1  0.87810000  0.21661000  0.13370000  1.0 -0.5587246017
O  O44  1  0.62190000  0.71661000  0.86630000  1.0 -0.5587246017
O  O45  1  0.06550000  0.72605000  0.79070000  1.0 -0.5807636873
O  O46  1  0.43450000  0.22605000  0.20930000  1.0 -0.5807636873
O  O47  1  0.93450000  0.27395000  0.20930000  1.0 -0.5807636873
O  O48  1  0.56550000  0.77395000  0.79070000  1.0 -0.5807636873
O  O49  1  0.30680000  0.77048000  0.90960000  1.0 -0.5478967325
O  O50  1  0.19320000  0.27048000  0.09040000  1.0 -0.5478967325
O  O51  1  0.69320000  0.22952000  0.09040000  1.0 -0.5478967325
O  O52  1  0.80680000  0.72952000  0.90960000  1.0 -0.5478967325
O  O53  1  0.23500000  0.35092000  0.00890000  1.0 -0.3995937006
O  O54  1  0.26500000  0.85092000  0.99110000  1.0 -0.3995937006
O  O55  1  0.76500000  0.64908000  0.99110000  1.0 -0.3995937006
O  O56  1  0.73500000  0.14908000  0.00890000  1.0 -0.3995937006
