# DDEC6 charges by PACMAN v1.1 (https://github.com/mtap-research/PACMAN-charge/)
data_KICCUY_FSR_pacman
_symmetry_space_group_name_H-M   'P 1'
_cell_length_a   15.69680000
_cell_length_b   30.08380000
_cell_length_c   16.38400000
_cell_angle_alpha   90.00000000
_cell_angle_beta   103.69000000
_cell_angle_gamma   90.00000000
_symmetry_Int_Tables_number   1
_chemical_formula_structural   Fe3H44C58O15
_chemical_formula_sum   'Fe12 H176 C232 O60'
_cell_volume   7517.04223394
_cell_formula_units_Z   4
loop_
 _symmetry_equiv_pos_site_id
 _symmetry_equiv_pos_as_xyz
  1  'x, y, z'
loop_
 _atom_site_type_symbol
 _atom_site_label
 _atom_site_symmetry_multiplicity
 _atom_site_fract_x
 _atom_site_fract_y
 _atom_site_fract_z
 _atom_site_occupancy
 _atom_site_charge
Fe  Fe1  1  0.76227000  0.82533000  0.13121000  1.0 1.0329134362
Fe  Fe2  1  0.73773000  0.32533000  0.86879000  1.0 1.0329134362
Fe  Fe3  1  0.23773000  0.17467000  0.86879000  1.0 1.0329134362
Fe  Fe4  1  0.26227000  0.67467000  0.13121000  1.0 1.0329134362
Fe  Fe5  1  0.93424000  0.28420000  0.74913000  1.0 1.077901383
Fe  Fe6  1  0.56576000  0.78420000  0.25087000  1.0 1.077901383
Fe  Fe7  1  0.06576000  0.71580000  0.25087000  1.0 1.077901383
Fe  Fe8  1  0.43424000  0.21580000  0.74913000  1.0 1.077901383
Fe  Fe9  1  0.44078000  0.70745000  0.27041000  1.0 0.9202460246
Fe  Fe10  1  0.05922000  0.20745000  0.72959000  1.0 0.9202460246
Fe  Fe11  1  0.55922000  0.29255000  0.72959000  1.0 0.9202460246
Fe  Fe12  1  0.94078000  0.79255000  0.27041000  1.0 0.9202460246
H  H1  1  0.83465000  0.13330000  0.78620000  1.0 0.2563041794
H  H2  1  0.66535000  0.63330000  0.21380000  1.0 0.2563041794
H  H3  1  0.16535000  0.86670000  0.21380000  1.0 0.2563041794
H  H4  1  0.33465000  0.36670000  0.78620000  1.0 0.2563041794
H  H5  1  0.74406000  0.18692000  0.83753000  1.0 0.1193602913
H  H6  1  0.75594000  0.68692000  0.16247000  1.0 0.1193602913
H  H7  1  0.25594000  0.81308000  0.16247000  1.0 0.1193602913
H  H8  1  0.24406000  0.31308000  0.83753000  1.0 0.1193602913
H  H9  1  0.70861000  0.15301000  0.76186000  1.0 0.1133145495
H  H10  1  0.79139000  0.65301000  0.23814000  1.0 0.1133145495
H  H11  1  0.29139000  0.84699000  0.23814000  1.0 0.1133145495
H  H12  1  0.20861000  0.34699000  0.76186000  1.0 0.1133145495
H  H13  1  0.73960000  0.20182000  0.74284000  1.0 0.1267777719
H  H14  1  0.76040000  0.70182000  0.25716000  1.0 0.1267777719
H  H15  1  0.26040000  0.79818000  0.25716000  1.0 0.1267777719
H  H16  1  0.23960000  0.29818000  0.74284000  1.0 0.1267777719
H  H17  1  0.75873000  0.87438000  0.99856000  1.0 0.3498489159
H  H18  1  0.74127000  0.37438000  0.00144000  1.0 0.3498489159
H  H19  1  0.24127000  0.12562000  0.00144000  1.0 0.3498489159
H  H20  1  0.25873000  0.62562000  0.99856000  1.0 0.3498489159
H  H21  1  0.41888000  0.68927000  0.71296000  1.0 0.1193602913
H  H22  1  0.08112000  0.18927000  0.28704000  1.0 0.1193602913
H  H23  1  0.58112000  0.31073000  0.28704000  1.0 0.1193602913
H  H24  1  0.91888000  0.81073000  0.71296000  1.0 0.1193602913
H  H25  1  0.21182000  0.70578000  0.45932000  1.0 0.1193602913
H  H26  1  0.28818000  0.20578000  0.54068000  1.0 0.1193602913
H  H27  1  0.78818000  0.29422000  0.54068000  1.0 0.1193602913
H  H28  1  0.71182000  0.79422000  0.45932000  1.0 0.1193602913
H  H29  1  0.83469000  0.72131000  0.85023000  1.0 0.1133145495
H  H30  1  0.66531000  0.22131000  0.14977000  1.0 0.1133145495
H  H31  1  0.16531000  0.27869000  0.14977000  1.0 0.1133145495
H  H32  1  0.33469000  0.77869000  0.85023000  1.0 0.1133145495
H  H33  1  0.83244000  0.76288000  0.96987000  1.0 0.1193602913
H  H34  1  0.66756000  0.26288000  0.03013000  1.0 0.1193602913
H  H35  1  0.16756000  0.23712000  0.03013000  1.0 0.1193602913
H  H36  1  0.33244000  0.73712000  0.96987000  1.0 0.1193602913
H  H37  1  0.41936000  0.56434000  0.62195000  1.0 0.1193602913
H  H38  1  0.08064000  0.06434000  0.37805000  1.0 0.1193602913
H  H39  1  0.58064000  0.43566000  0.37805000  1.0 0.1193602913
H  H40  1  0.91936000  0.93566000  0.62195000  1.0 0.1193602913
H  H41  1  0.44526000  0.64293000  0.95882000  1.0 0.1193602913
H  H42  1  0.05474000  0.14293000  0.04118000  1.0 0.1193602913
H  H43  1  0.55474000  0.35707000  0.04118000  1.0 0.1193602913
H  H44  1  0.94526000  0.85707000  0.95882000  1.0 0.1193602913
H  H45  1  0.64709000  0.45880000  0.87689000  1.0 0.1193602913
H  H46  1  0.85291000  0.95880000  0.12311000  1.0 0.1193602913
H  H47  1  0.35291000  0.54120000  0.12311000  1.0 0.1193602913
H  H48  1  0.14709000  0.04120000  0.87689000  1.0 0.1193602913
H  H49  1  0.27372000  0.68124000  0.59717000  1.0 0.1193602913
H  H50  1  0.22628000  0.18124000  0.40283000  1.0 0.1193602913
H  H51  1  0.72628000  0.31876000  0.40283000  1.0 0.1193602913
H  H52  1  0.77372000  0.81876000  0.59717000  1.0 0.1193602913
H  H53  1  0.05032000  0.64572000  0.47385000  1.0 0.1267777719
H  H54  1  0.44968000  0.14572000  0.52615000  1.0 0.1267777719
H  H55  1  0.94968000  0.35428000  0.52615000  1.0 0.1267777719
H  H56  1  0.55032000  0.85428000  0.47385000  1.0 0.1267777719
H  H57  1  0.91590000  0.69040000  0.76281000  1.0 0.1133145495
H  H58  1  0.58410000  0.19040000  0.23719000  1.0 0.1133145495
H  H59  1  0.08410000  0.30960000  0.23719000  1.0 0.1133145495
H  H60  1  0.41590000  0.80960000  0.76281000  1.0 0.1133145495
H  H61  1  0.79372000  0.43807000  0.84504000  1.0 0.1133145495
H  H62  1  0.70628000  0.93807000  0.15496000  1.0 0.1133145495
H  H63  1  0.20628000  0.56193000  0.15496000  1.0 0.1133145495
H  H64  1  0.29372000  0.06193000  0.84504000  1.0 0.1133145495
H  H65  1  0.50937000  0.58769000  0.87133000  1.0 0.1193602913
H  H66  1  0.99063000  0.08769000  0.12867000  1.0 0.1193602913
H  H67  1  0.49063000  0.41231000  0.12867000  1.0 0.1193602913
H  H68  1  0.00937000  0.91231000  0.87133000  1.0 0.1193602913
H  H69  1  0.60056000  0.53169000  0.85655000  1.0 0.1193602913
H  H70  1  0.89944000  0.03169000  0.14345000  1.0 0.1193602913
H  H71  1  0.39944000  0.46831000  0.14345000  1.0 0.1193602913
H  H72  1  0.10056000  0.96831000  0.85655000  1.0 0.1193602913
H  H73  1  0.93032000  0.57116000  0.65366000  1.0 0.1133145495
H  H74  1  0.56968000  0.07116000  0.34634000  1.0 0.1133145495
H  H75  1  0.06968000  0.42884000  0.34634000  1.0 0.1133145495
H  H76  1  0.43032000  0.92884000  0.65366000  1.0 0.1133145495
H  H77  1  0.50412000  0.68953000  0.07296000  1.0 0.1193602913
H  H78  1  0.99588000  0.18953000  0.92704000  1.0 0.1193602913
H  H79  1  0.49588000  0.31047000  0.92704000  1.0 0.1193602913
H  H80  1  0.00412000  0.81047000  0.07296000  1.0 0.1193602913
H  H81  1  0.92725000  0.65677000  0.11502000  1.0 0.1193602913
H  H82  1  0.57275000  0.15677000  0.88498000  1.0 0.1193602913
H  H83  1  0.07275000  0.34323000  0.88498000  1.0 0.1193602913
H  H84  1  0.42725000  0.84323000  0.11502000  1.0 0.1193602913
H  H85  1  0.87824000  0.57733000  0.88382000  1.0 0.1133145495
H  H86  1  0.62176000  0.07733000  0.11618000  1.0 0.1133145495
H  H87  1  0.12176000  0.42267000  0.11618000  1.0 0.1133145495
H  H88  1  0.37824000  0.92267000  0.88382000  1.0 0.1133145495
H  H89  1  0.40066000  0.63961000  0.37744000  1.0 0.1193602913
H  H90  1  0.09934000  0.13961000  0.62256000  1.0 0.1193602913
H  H91  1  0.59934000  0.36039000  0.62256000  1.0 0.1193602913
H  H92  1  0.90066000  0.86039000  0.37744000  1.0 0.1193602913
H  H93  1  0.79625000  0.51463000  0.82867000  1.0 0.1133145495
H  H94  1  0.70375000  0.01463000  0.17133000  1.0 0.1133145495
H  H95  1  0.20375000  0.48537000  0.17133000  1.0 0.1133145495
H  H96  1  0.29625000  0.98537000  0.82867000  1.0 0.1133145495
H  H97  1  0.44030000  0.42068000  0.69171000  1.0 0.1193602913
H  H98  1  0.05970000  0.92068000  0.30829000  1.0 0.1193602913
H  H99  1  0.55970000  0.57932000  0.30829000  1.0 0.1193602913
H  H100  1  0.94030000  0.07932000  0.69171000  1.0 0.1193602913
H  H101  1  0.99816000  0.42587000  0.73503000  1.0 0.1267777719
H  H102  1  0.50184000  0.92587000  0.26497000  1.0 0.1267777719
H  H103  1  0.00184000  0.57413000  0.26497000  1.0 0.1267777719
H  H104  1  0.49816000  0.07413000  0.73503000  1.0 0.1267777719
H  H105  1  0.00261000  0.50250000  0.72198000  1.0 0.1133145495
H  H106  1  0.49739000  0.00250000  0.27802000  1.0 0.1133145495
H  H107  1  0.99739000  0.49750000  0.27802000  1.0 0.1133145495
H  H108  1  0.50261000  0.99750000  0.72198000  1.0 0.1133145495
H  H109  1  0.93224000  0.61614000  0.99736000  1.0 0.1133145495
H  H110  1  0.56776000  0.11614000  0.00264000  1.0 0.1133145495
H  H111  1  0.06776000  0.38386000  0.00264000  1.0 0.1133145495
H  H112  1  0.43224000  0.88386000  0.99736000  1.0 0.1133145495
H  H113  1  0.45862000  0.61292000  0.51317000  1.0 0.1133145495
H  H114  1  0.04138000  0.11292000  0.48683000  1.0 0.1133145495
H  H115  1  0.54138000  0.38708000  0.48683000  1.0 0.1133145495
H  H116  1  0.95862000  0.88708000  0.51317000  1.0 0.1133145495
H  H117  1  0.39312000  0.49401000  0.67404000  1.0 0.1193602913
H  H118  1  0.10688000  0.99401000  0.32596000  1.0 0.1193602913
H  H119  1  0.60688000  0.50599000  0.32596000  1.0 0.1193602913
H  H120  1  0.89312000  0.00599000  0.67404000  1.0 0.1193602913
H  H121  1  0.56629000  0.71543000  0.81174000  1.0 0.1193602913
H  H122  1  0.93371000  0.21543000  0.18826000  1.0 0.1193602913
H  H123  1  0.43371000  0.28457000  0.18826000  1.0 0.1193602913
H  H124  1  0.06629000  0.78457000  0.81174000  1.0 0.1193602913
H  H125  1  0.63156000  0.75832000  0.92660000  1.0 0.1193602913
H  H126  1  0.86844000  0.25832000  0.07340000  1.0 0.1193602913
H  H127  1  0.36844000  0.24168000  0.07340000  1.0 0.1193602913
H  H128  1  0.13156000  0.74168000  0.92660000  1.0 0.1193602913
H  H129  1  0.88173000  0.74319000  0.50029000  1.0 0.1133145495
H  H130  1  0.61827000  0.24319000  0.49971000  1.0 0.1133145495
H  H131  1  0.11827000  0.25681000  0.49971000  1.0 0.1133145495
H  H132  1  0.38173000  0.75681000  0.50029000  1.0 0.1133145495
H  H133  1  0.02977000  0.61176000  0.59658000  1.0 0.1193602913
H  H134  1  0.47023000  0.11176000  0.40342000  1.0 0.1193602913
H  H135  1  0.97023000  0.38824000  0.40342000  1.0 0.1193602913
H  H136  1  0.52977000  0.88824000  0.59658000  1.0 0.1193602913
H  H137  1  0.85756000  0.70796000  0.62043000  1.0 0.1133145495
H  H138  1  0.64244000  0.20796000  0.37957000  1.0 0.1133145495
H  H139  1  0.14244000  0.29204000  0.37957000  1.0 0.1133145495
H  H140  1  0.35756000  0.79204000  0.62043000  1.0 0.1133145495
H  H141  1  0.59958000  0.83908000  0.98165000  1.0 0.1267777719
H  H142  1  0.90042000  0.33908000  0.01835000  1.0 0.1267777719
H  H143  1  0.40042000  0.16092000  0.01835000  1.0 0.1267777719
H  H144  1  0.09958000  0.66092000  0.98165000  1.0 0.1267777719
H  H145  1  0.62900000  0.85809000  0.90130000  1.0 0.1193602913
H  H146  1  0.87100000  0.35809000  0.09870000  1.0 0.1193602913
H  H147  1  0.37100000  0.14191000  0.09870000  1.0 0.1193602913
H  H148  1  0.12900000  0.64191000  0.90130000  1.0 0.1193602913
H  H149  1  0.62147000  0.89080000  0.97629000  1.0 0.1193602913
H  H150  1  0.87853000  0.39080000  0.02371000  1.0 0.1193602913
H  H151  1  0.37853000  0.10920000  0.02371000  1.0 0.1193602913
H  H152  1  0.12147000  0.60920000  0.97629000  1.0 0.1193602913
H  H153  1  0.89884000  0.21812000  0.58820000  1.0 0.1133145495
H  H154  1  0.60116000  0.71812000  0.41180000  1.0 0.1133145495
H  H155  1  0.10116000  0.78188000  0.41180000  1.0 0.1133145495
H  H156  1  0.39884000  0.28188000  0.58820000  1.0 0.1133145495
H  H157  1  0.81523000  0.21209000  0.62722000  1.0 0.0796065038
H  H158  1  0.68477000  0.71209000  0.37278000  1.0 0.0796065038
H  H159  1  0.18477000  0.78791000  0.37278000  1.0 0.0796065038
H  H160  1  0.31523000  0.28791000  0.62722000  1.0 0.0796065038
H  H161  1  0.88346000  0.17212000  0.63166000  1.0 0.0715908004
H  H162  1  0.61654000  0.67212000  0.36834000  1.0 0.0715908004
H  H163  1  0.11654000  0.82788000  0.36834000  1.0 0.0715908004
H  H164  1  0.38346000  0.32788000  0.63166000  1.0 0.0715908004
H  H165  1  0.86745000  0.16481000  0.70318000  1.0 0.0947611826
H  H166  1  0.63255000  0.66481000  0.29682000  1.0 0.0947611826
H  H167  1  0.13255000  0.83519000  0.29682000  1.0 0.0947611826
H  H168  1  0.36745000  0.33519000  0.70318000  1.0 0.0947611826
H  H169  1  0.80483000  0.20731000  0.69622000  1.0 0.0611351477
H  H170  1  0.69517000  0.70731000  0.30378000  1.0 0.0611351477
H  H171  1  0.19517000  0.79269000  0.30378000  1.0 0.0611351477
H  H172  1  0.30483000  0.29269000  0.69622000  1.0 0.0611351477
H  H173  1  0.86090000  0.19135000  0.78612000  1.0 0.2056240449
H  H174  1  0.63910000  0.69135000  0.21388000  1.0 0.2056240449
H  H175  1  0.13910000  0.80865000  0.21388000  1.0 0.2056240449
H  H176  1  0.36090000  0.30865000  0.78612000  1.0 0.2056240449
C  C1  1  0.75070000  0.17690000  0.78200000  1.0 -0.3136190726
C  C2  1  0.74930000  0.67690000  0.21800000  1.0 -0.3136190726
C  C3  1  0.24930000  0.82310000  0.21800000  1.0 -0.3136190726
C  C4  1  0.25070000  0.32310000  0.78200000  1.0 -0.3136190726
C  C5  1  0.30190000  0.67623000  0.40570000  1.0 -0.0376959727
C  C6  1  0.19810000  0.17623000  0.59430000  1.0 -0.0376959727
C  C7  1  0.69810000  0.32377000  0.59430000  1.0 -0.0376959727
C  C8  1  0.80190000  0.82377000  0.40570000  1.0 -0.0376959727
C  C9  1  0.61840000  0.75674000  0.08400000  1.0 0.5805762904
C  C10  1  0.88160000  0.25674000  0.91600000  1.0 0.5805762904
C  C11  1  0.38160000  0.24326000  0.91600000  1.0 0.5805762904
C  C12  1  0.11840000  0.74326000  0.08400000  1.0 0.5805762904
C  C13  1  0.54860000  0.43226000  0.78570000  1.0 -0.0376959727
C  C14  1  0.95140000  0.93226000  0.21430000  1.0 -0.0376959727
C  C15  1  0.45140000  0.56774000  0.21430000  1.0 -0.0376959727
C  C16  1  0.04860000  0.06774000  0.78570000  1.0 -0.0376959727
C  C17  1  0.41100000  0.62946000  0.65500000  1.0 0.0796065038
C  C18  1  0.08900000  0.12946000  0.34500000  1.0 0.0796065038
C  C19  1  0.58900000  0.37054000  0.34500000  1.0 0.0796065038
C  C20  1  0.91100000  0.87054000  0.65500000  1.0 0.0796065038
C  C21  1  0.26340000  0.69361000  0.31980000  1.0 0.5953991609
C  C22  1  0.23660000  0.19361000  0.68020000  1.0 0.5953991609
C  C23  1  0.73660000  0.30639000  0.68020000  1.0 0.5953991609
C  C24  1  0.76340000  0.80639000  0.31980000  1.0 0.5953991609
C  C25  1  0.46930000  0.64331000  0.80250000  1.0 0.0796065038
C  C26  1  0.03070000  0.14331000  0.19750000  1.0 0.0796065038
C  C27  1  0.53070000  0.35669000  0.19750000  1.0 0.0796065038
C  C28  1  0.96930000  0.85669000  0.80250000  1.0 0.0796065038
C  C29  1  0.43120000  0.65850000  0.72200000  1.0 -0.2018719958
C  C30  1  0.06880000  0.15850000  0.27800000  1.0 -0.2018719958
C  C31  1  0.56880000  0.34150000  0.27800000  1.0 -0.2018719958
C  C32  1  0.93120000  0.84150000  0.72200000  1.0 -0.2018719958
C  C33  1  0.58130000  0.38548000  0.79610000  1.0 0.5805762904
C  C34  1  0.91870000  0.88548000  0.20390000  1.0 0.5805762904
C  C35  1  0.41870000  0.61452000  0.20390000  1.0 0.5805762904
C  C36  1  0.08130000  0.11452000  0.79610000  1.0 0.5805762904
C  C37  1  0.26300000  0.68777000  0.47040000  1.0 -0.1054444148
C  C38  1  0.23700000  0.18777000  0.52960000  1.0 -0.1054444148
C  C39  1  0.73700000  0.31223000  0.52960000  1.0 -0.1054444148
C  C40  1  0.76300000  0.81223000  0.47040000  1.0 -0.1054444148
C  C41  1  0.37290000  0.64548000  0.56880000  1.0 0.0796065038
C  C42  1  0.12710000  0.14548000  0.43120000  1.0 0.0796065038
C  C43  1  0.62710000  0.35452000  0.43120000  1.0 0.0796065038
C  C44  1  0.87290000  0.85452000  0.56880000  1.0 0.0796065038
C  C45  1  0.85520000  0.70834000  0.90420000  1.0 -0.1588189909
C  C46  1  0.64480000  0.20834000  0.09580000  1.0 -0.1588189909
C  C47  1  0.14480000  0.29166000  0.09580000  1.0 -0.1588189909
C  C48  1  0.35520000  0.79166000  0.90420000  1.0 -0.1588189909
C  C49  1  0.85330000  0.73313000  0.97550000  1.0 -0.0905060283
C  C50  1  0.64670000  0.23313000  0.02450000  1.0 -0.0905060283
C  C51  1  0.14670000  0.26687000  0.02450000  1.0 -0.0905060283
C  C52  1  0.35330000  0.76687000  0.97550000  1.0 -0.0905060283
C  C53  1  0.88190000  0.71448000  0.05460000  1.0 -0.0331251444
C  C54  1  0.61810000  0.21448000  0.94540000  1.0 -0.0331251444
C  C55  1  0.11810000  0.28552000  0.94540000  1.0 -0.0331251444
C  C56  1  0.38190000  0.78552000  0.05460000  1.0 -0.0331251444
C  C57  1  0.89080000  0.37487000  0.80250000  1.0 0.5880299407
C  C58  1  0.60920000  0.87487000  0.19750000  1.0 0.5880299407
C  C59  1  0.10920000  0.62513000  0.19750000  1.0 0.5880299407
C  C60  1  0.39080000  0.12513000  0.80250000  1.0 0.5880299407
C  C61  1  0.43100000  0.58422000  0.66830000  1.0 -0.2018719958
C  C62  1  0.06900000  0.08422000  0.33170000  1.0 -0.2018719958
C  C63  1  0.56900000  0.41578000  0.33170000  1.0 -0.2018719958
C  C64  1  0.93100000  0.91578000  0.66830000  1.0 -0.2018719958
C  C65  1  0.48260000  0.66684000  0.95220000  1.0 -0.1521334871
C  C66  1  0.01740000  0.16684000  0.04780000  1.0 -0.1521334871
C  C67  1  0.51740000  0.33316000  0.04780000  1.0 -0.1521334871
C  C68  1  0.98260000  0.83316000  0.95220000  1.0 -0.1521334871
C  C69  1  0.59580000  0.46578000  0.83490000  1.0 -0.1027420976
C  C70  1  0.90420000  0.96578000  0.16510000  1.0 -0.1054444148
C  C71  1  0.40420000  0.53422000  0.16510000  1.0 -0.1054444148
C  C72  1  0.09580000  0.03422000  0.83490000  1.0 -0.1054444148
C  C73  1  0.89620000  0.42407000  0.79160000  1.0 -0.0331251444
C  C74  1  0.60380000  0.92407000  0.20840000  1.0 -0.0331251444
C  C75  1  0.10380000  0.57593000  0.20840000  1.0 -0.0331251444
C  C76  1  0.39620000  0.07593000  0.79160000  1.0 -0.0331251444
C  C77  1  0.50070000  0.67450000  0.87430000  1.0 0.0715908004
C  C78  1  0.99930000  0.17450000  0.12570000  1.0 0.0715908004
C  C79  1  0.49930000  0.32550000  0.12570000  1.0 0.0715908004
C  C80  1  0.00070000  0.82550000  0.87430000  1.0 0.0715908004
C  C81  1  0.29950000  0.67272000  0.55260000  1.0 -0.1588189909
C  C82  1  0.20050000  0.17272000  0.44740000  1.0 -0.1588189909
C  C83  1  0.70050000  0.32728000  0.44740000  1.0 -0.1588189909
C  C84  1  0.79950000  0.82728000  0.55260000  1.0 -0.1588189909
C  C85  1  0.57650000  0.72762000  0.01140000  1.0 -0.0376959727
C  C86  1  0.92350000  0.22762000  0.98860000  1.0 -0.0376959727
C  C87  1  0.42350000  0.27238000  0.98860000  1.0 -0.0376959727
C  C88  1  0.07650000  0.77238000  0.01140000  1.0 -0.0376959727
C  C89  1  0.97920000  0.71904000  0.39630000  1.0 0.5735763359
C  C90  1  0.52080000  0.21904000  0.60370000  1.0 0.5735763359
C  C91  1  0.02080000  0.28096000  0.60370000  1.0 0.5735763359
C  C92  1  0.47920000  0.78096000  0.39630000  1.0 0.5735763359
C  C93  1  0.88680000  0.66460000  0.91050000  1.0 0.0715908004
C  C94  1  0.61320000  0.16460000  0.08950000  1.0 0.0715908004
C  C95  1  0.11320000  0.33540000  0.08950000  1.0 0.0715908004
C  C96  1  0.38680000  0.83540000  0.91050000  1.0 0.0715908004
C  C97  1  0.01120000  0.65852000  0.50350000  1.0 -0.1027420976
C  C98  1  0.48880000  0.15852000  0.49650000  1.0 -0.1027420976
C  C99  1  0.98880000  0.34148000  0.49650000  1.0 -0.1027420976
C  C100  1  0.51120000  0.84148000  0.50350000  1.0 -0.1027420976
C  C101  1  0.91310000  0.65889000  0.76510000  1.0 -0.2118845293
C  C102  1  0.58690000  0.15889000  0.23490000  1.0 -0.2118845293
C  C103  1  0.08690000  0.34111000  0.23490000  1.0 -0.2118845293
C  C104  1  0.41310000  0.84111000  0.76510000  1.0 -0.2118845293
C  C105  1  0.49470000  0.52071000  0.76310000  1.0 0.0796065038
C  C106  1  0.00530000  0.02071000  0.23690000  1.0 0.0796065038
C  C107  1  0.50530000  0.47929000  0.23690000  1.0 0.0796065038
C  C108  1  0.99470000  0.97929000  0.76310000  1.0 0.0796065038
C  C109  1  0.83610000  0.45117000  0.81960000  1.0 -0.1186197949
C  C110  1  0.66390000  0.95117000  0.18040000  1.0 -0.1186197949
C  C111  1  0.16390000  0.54883000  0.18040000  1.0 -0.1186197949
C  C112  1  0.33610000  0.04883000  0.81960000  1.0 -0.1186197949
C  C113  1  0.89530000  0.74177000  0.13240000  1.0 0.5735763359
C  C114  1  0.60470000  0.24177000  0.86760000  1.0 0.5735763359
C  C115  1  0.10470000  0.25823000  0.86760000  1.0 0.5735763359
C  C116  1  0.39530000  0.75823000  0.13240000  1.0 0.5735763359
C  C117  1  0.46770000  0.56807000  0.74850000  1.0 0.0796065038
C  C118  1  0.03230000  0.06807000  0.25150000  1.0 0.0796065038
C  C119  1  0.53230000  0.43193000  0.25150000  1.0 0.0796065038
C  C120  1  0.96770000  0.93193000  0.74850000  1.0 0.0796065038
C  C121  1  0.48570000  0.59826000  0.81600000  1.0 -0.2018719958
C  C122  1  0.01430000  0.09826000  0.18400000  1.0 -0.2018719958
C  C123  1  0.51430000  0.40174000  0.18400000  1.0 -0.2018719958
C  C124  1  0.98570000  0.90174000  0.81600000  1.0 -0.2018719958
C  C125  1  0.56780000  0.50907000  0.82250000  1.0 -0.1521334871
C  C126  1  0.93220000  0.00907000  0.17750000  1.0 -0.1521334871
C  C127  1  0.43220000  0.49093000  0.17750000  1.0 -0.1521334871
C  C128  1  0.06780000  0.99093000  0.82250000  1.0 -0.1521334871
C  C129  1  0.92530000  0.63391000  0.69720000  1.0 0.0796065038
C  C130  1  0.57470000  0.13391000  0.30280000  1.0 0.0796065038
C  C131  1  0.07470000  0.36609000  0.30280000  1.0 0.0796065038
C  C132  1  0.42530000  0.86609000  0.69720000  1.0 0.0796065038
C  C133  1  0.96690000  0.69711000  0.47460000  1.0 -0.0376959727
C  C134  1  0.53310000  0.19711000  0.52540000  1.0 -0.0376959727
C  C135  1  0.03310000  0.30289000  0.52540000  1.0 -0.0376959727
C  C136  1  0.46690000  0.80289000  0.47460000  1.0 -0.0376959727
C  C137  1  0.92160000  0.58808000  0.70000000  1.0 -0.2018719958
C  C138  1  0.57840000  0.08808000  0.30000000  1.0 -0.2018719958
C  C139  1  0.07840000  0.41192000  0.30000000  1.0 -0.2018719958
C  C140  1  0.42160000  0.91192000  0.70000000  1.0 -0.2018719958
C  C141  1  0.51880000  0.69399000  0.02050000  1.0 -0.1054444148
C  C142  1  0.98120000  0.19399000  0.97950000  1.0 -0.1054444148
C  C143  1  0.48120000  0.30601000  0.97950000  1.0 -0.1054444148
C  C144  1  0.01880000  0.80601000  0.02050000  1.0 -0.1054444148
C  C145  1  0.90990000  0.67023000  0.06120000  1.0 -0.0905060283
C  C146  1  0.59010000  0.17023000  0.93880000  1.0 -0.0905060283
C  C147  1  0.09010000  0.32977000  0.93880000  1.0 -0.0905060283
C  C148  1  0.40990000  0.82977000  0.06120000  1.0 -0.0905060283
C  C149  1  0.89150000  0.59175000  0.83680000  1.0 -0.2118845293
C  C150  1  0.60850000  0.09175000  0.16320000  1.0 -0.2118845293
C  C151  1  0.10850000  0.40825000  0.16320000  1.0 -0.2118845293
C  C152  1  0.39150000  0.90825000  0.83680000  1.0 -0.2118845293
C  C153  1  0.90500000  0.56597000  0.77090000  1.0 0.0796065038
C  C154  1  0.59500000  0.06597000  0.22910000  1.0 0.0796065038
C  C155  1  0.09500000  0.43403000  0.22910000  1.0 0.0796065038
C  C156  1  0.40500000  0.93403000  0.77090000  1.0 0.0796065038
C  C157  1  0.89680000  0.63848000  0.83670000  1.0 0.0796065038
C  C158  1  0.60320000  0.13848000  0.16330000  1.0 0.0796065038
C  C159  1  0.10320000  0.36152000  0.16330000  1.0 0.0796065038
C  C160  1  0.39680000  0.86152000  0.83670000  1.0 0.0796065038
C  C161  1  0.89990000  0.51700000  0.77510000  1.0 0.0715908004
C  C162  1  0.60010000  0.01700000  0.22490000  1.0 0.0715908004
C  C163  1  0.10010000  0.48300000  0.22490000  1.0 0.0715908004
C  C164  1  0.39990000  0.98300000  0.77510000  1.0 0.0715908004
C  C165  1  0.37480000  0.64810000  0.42190000  1.0 -0.1054444148
C  C166  1  0.12520000  0.14810000  0.57810000  1.0 -0.1054444148
C  C167  1  0.62520000  0.35190000  0.57810000  1.0 -0.1054444148
C  C168  1  0.87480000  0.85190000  0.42190000  1.0 -0.1054444148
C  C169  1  0.83810000  0.49681000  0.81040000  1.0 -0.1521334871
C  C170  1  0.66190000  0.99681000  0.18960000  1.0 -0.1521334871
C  C171  1  0.16190000  0.50319000  0.18960000  1.0 -0.1521334871
C  C172  1  0.33810000  0.00319000  0.81040000  1.0 -0.1521334871
C  C173  1  0.94070000  0.65627000  0.62060000  1.0 0.0796065038
C  C174  1  0.55930000  0.15627000  0.37940000  1.0 0.0796065038
C  C175  1  0.05930000  0.34373000  0.37940000  1.0 0.0796065038
C  C176  1  0.44070000  0.84373000  0.62060000  1.0 0.0796065038
C  C177  1  0.47310000  0.44334000  0.72550000  1.0 -0.1186197949
C  C178  1  0.02690000  0.94334000  0.27450000  1.0 -0.1186197949
C  C179  1  0.52690000  0.55666000  0.27450000  1.0 -0.1186197949
C  C180  1  0.97310000  0.05666000  0.72550000  1.0 -0.1186197949
C  C181  1  0.95750000  0.44381000  0.75490000  1.0 -0.1027420976
C  C182  1  0.54250000  0.94381000  0.24510000  1.0 -0.1027420976
C  C183  1  0.04250000  0.55619000  0.24510000  1.0 -0.1054444148
C  C184  1  0.45750000  0.05619000  0.75490000  1.0 -0.1054444148
C  C185  1  0.95980000  0.48940000  0.74690000  1.0 -0.1521334871
C  C186  1  0.54020000  0.98940000  0.25310000  1.0 -0.1521334871
C  C187  1  0.04020000  0.51060000  0.25310000  1.0 -0.1521334871
C  C188  1  0.45980000  0.01060000  0.74690000  1.0 -0.1521334871
C  C189  1  0.91250000  0.64608000  0.99120000  1.0 -0.1521334871
C  C190  1  0.58750000  0.14608000  0.00880000  1.0 -0.1521334871
C  C191  1  0.08750000  0.35392000  0.00880000  1.0 -0.1521334871
C  C192  1  0.41250000  0.85392000  0.99120000  1.0 -0.1521334871
C  C193  1  0.40970000  0.63250000  0.50280000  1.0 -0.1521334871
C  C194  1  0.09030000  0.13250000  0.49720000  1.0 -0.1521334871
C  C195  1  0.59030000  0.36750000  0.49720000  1.0 -0.1521334871
C  C196  1  0.90970000  0.86750000  0.50280000  1.0 -0.1521334871
C  C197  1  0.44550000  0.48687000  0.71450000  1.0 -0.1521334871
C  C198  1  0.05450000  0.98687000  0.28550000  1.0 -0.1521334871
C  C199  1  0.55450000  0.51313000  0.28550000  1.0 -0.1521334871
C  C200  1  0.94550000  0.01313000  0.71450000  1.0 -0.1521334871
C  C201  1  0.55510000  0.70929000  0.86510000  1.0 -0.1521334871
C  C202  1  0.94490000  0.20929000  0.13490000  1.0 -0.1521334871
C  C203  1  0.44490000  0.29071000  0.13490000  1.0 -0.1521334871
C  C204  1  0.05510000  0.79071000  0.86510000  1.0 -0.1521334871
C  C205  1  0.59300000  0.73500000  0.93320000  1.0 -0.1027420976
C  C206  1  0.90700000  0.23500000  0.06680000  1.0 -0.1027420976
C  C207  1  0.40700000  0.26500000  0.06680000  1.0 -0.1027420976
C  C208  1  0.09300000  0.76500000  0.93320000  1.0 -0.1027420976
C  C209  1  0.91080000  0.71610000  0.51900000  1.0 -0.1027420976
C  C210  1  0.58920000  0.21610000  0.48100000  1.0 -0.1027420976
C  C211  1  0.08920000  0.28390000  0.48100000  1.0 -0.1027420976
C  C212  1  0.41080000  0.78390000  0.51900000  1.0 -0.1027420976
C  C213  1  0.99860000  0.63818000  0.57660000  1.0 -0.167142461
C  C214  1  0.50140000  0.13818000  0.42340000  1.0 -0.167142461
C  C215  1  0.00140000  0.36182000  0.42340000  1.0 -0.167142461
C  C216  1  0.49860000  0.86182000  0.57660000  1.0 -0.167142461
C  C217  1  0.89710000  0.69520000  0.59120000  1.0 -0.1588189909
C  C218  1  0.60290000  0.19520000  0.40880000  1.0 -0.1588189909
C  C219  1  0.10290000  0.30480000  0.40880000  1.0 -0.1588189909
C  C220  1  0.39710000  0.80480000  0.59120000  1.0 -0.1588189909
C  C221  1  0.63720000  0.86070000  0.96230000  1.0 -0.2187396446
C  C222  1  0.86280000  0.36070000  0.03770000  1.0 -0.2187396446
C  C223  1  0.36280000  0.13930000  0.03770000  1.0 -0.2187396446
C  C224  1  0.13720000  0.63930000  0.96230000  1.0 -0.2187396446
C  C225  1  0.87720000  0.20450000  0.63370000  1.0 -0.1588189909
C  C226  1  0.62280000  0.70450000  0.36630000  1.0 -0.1588189909
C  C227  1  0.12280000  0.79550000  0.36630000  1.0 -0.1588189909
C  C228  1  0.37720000  0.29550000  0.63370000  1.0 -0.1588189909
C  C229  1  0.86060000  0.19420000  0.72650000  1.0 -0.0130049781
C  C230  1  0.63940000  0.69420000  0.27350000  1.0 -0.0130049781
C  C231  1  0.13940000  0.80580000  0.27350000  1.0 -0.0130049781
C  C232  1  0.36060000  0.30580000  0.72650000  1.0 -0.0130049781
O  O1  1  0.83550000  0.16120000  0.78980000  1.0 -0.2187396446
O  O2  1  0.66450000  0.66120000  0.21020000  1.0 -0.2187396446
O  O3  1  0.16450000  0.83880000  0.21020000  1.0 -0.2187396446
O  O4  1  0.33550000  0.33880000  0.78980000  1.0 -0.2187396446
O  O5  1  0.30740000  0.69073000  0.26330000  1.0 -0.5939114941
O  O6  1  0.19260000  0.19073000  0.73670000  1.0 -0.5939114941
O  O7  1  0.69260000  0.30927000  0.73670000  1.0 -0.5939114941
O  O8  1  0.80740000  0.80927000  0.26330000  1.0 -0.5939114941
O  O9  1  0.65170000  0.37815000  0.84870000  1.0 -0.5699414415
O  O10  1  0.84830000  0.87815000  0.15130000  1.0 -0.5699414415
O  O11  1  0.34830000  0.62185000  0.15130000  1.0 -0.5699414415
O  O12  1  0.15170000  0.12185000  0.84870000  1.0 -0.5699414415
O  O13  1  0.93110000  0.72341000  0.20310000  1.0 -0.5616824878
O  O14  1  0.56890000  0.22341000  0.79690000  1.0 -0.5616824878
O  O15  1  0.06890000  0.27659000  0.79690000  1.0 -0.5616824878
O  O16  1  0.43110000  0.77659000  0.20310000  1.0 -0.5616824878
O  O17  1  0.69330000  0.77091000  0.08590000  1.0 -0.5402845544
O  O18  1  0.80670000  0.27091000  0.91410000  1.0 -0.5402845544
O  O19  1  0.30670000  0.22909000  0.91410000  1.0 -0.5402845544
O  O20  1  0.19330000  0.72909000  0.08590000  1.0 -0.5402845544
O  O21  1  0.02970000  0.69959000  0.35750000  1.0 -0.5475272191
O  O22  1  0.47030000  0.19959000  0.64250000  1.0 -0.5475272191
O  O23  1  0.97030000  0.30041000  0.64250000  1.0 -0.5475272191
O  O24  1  0.52970000  0.80041000  0.35750000  1.0 -0.5475272191
O  O25  1  0.53550000  0.35695000  0.74830000  1.0 -0.5699414415
O  O26  1  0.96450000  0.85695000  0.25170000  1.0 -0.5699414415
O  O27  1  0.46450000  0.64305000  0.25170000  1.0 -0.5699414415
O  O28  1  0.03550000  0.14305000  0.74830000  1.0 -0.5699414415
O  O29  1  0.94050000  0.35056000  0.76940000  1.0 -0.5616824878
O  O30  1  0.55950000  0.85056000  0.23060000  1.0 -0.5616824878
O  O31  1  0.05950000  0.64944000  0.23060000  1.0 -0.5616824878
O  O32  1  0.44050000  0.14944000  0.76940000  1.0 -0.5616824878
O  O33  1  0.84010000  0.36008000  0.84340000  1.0 -0.5699414415
O  O34  1  0.65990000  0.86008000  0.15660000  1.0 -0.5699414415
O  O35  1  0.15990000  0.63992000  0.15660000  1.0 -0.5699414415
O  O36  1  0.34010000  0.13992000  0.84340000  1.0 -0.5699414415
O  O37  1  0.87840000  0.78210000  0.13100000  1.0 -0.5475272191
O  O38  1  0.62160000  0.28210000  0.86900000  1.0 -0.5475272191
O  O39  1  0.12160000  0.21790000  0.86900000  1.0 -0.5475272191
O  O40  1  0.37840000  0.71790000  0.13100000  1.0 -0.5475272191
O  O41  1  0.57410000  0.76430000  0.13690000  1.0 -0.5616824878
O  O42  1  0.92590000  0.26430000  0.86310000  1.0 -0.5616824878
O  O43  1  0.42590000  0.23570000  0.86310000  1.0 -0.5616824878
O  O44  1  0.07410000  0.73570000  0.13690000  1.0 -0.5616824878
O  O45  1  0.93940000  0.75459000  0.37380000  1.0 -0.5475272191
O  O46  1  0.56060000  0.25459000  0.62620000  1.0 -0.5475272191
O  O47  1  0.06060000  0.24541000  0.62620000  1.0 -0.5475272191
O  O48  1  0.43940000  0.74541000  0.37380000  1.0 -0.5475272191
O  O49  1  0.72830000  0.85199000  0.00320000  1.0 -0.3925201697
O  O50  1  0.77170000  0.35199000  0.99680000  1.0 -0.3925201697
O  O51  1  0.27170000  0.14801000  0.99680000  1.0 -0.3925201697
O  O52  1  0.22830000  0.64801000  0.00320000  1.0 -0.3925201697
O  O53  1  0.18950000  0.71121000  0.30650000  1.0 -0.5475272191
O  O54  1  0.31050000  0.21121000  0.69350000  1.0 -0.5475272191
O  O55  1  0.81050000  0.28879000  0.69350000  1.0 -0.5475272191
O  O56  1  0.68950000  0.78879000  0.30650000  1.0 -0.5475272191
O  O57  1  0.93000000  0.22175000  0.71770000  1.0 -0.3450519247
O  O58  1  0.57000000  0.72175000  0.28230000  1.0 -0.3450519247
O  O59  1  0.07000000  0.77825000  0.28230000  1.0 -0.3450519247
O  O60  1  0.43000000  0.27825000  0.71770000  1.0 -0.3450519247
