# DDEC6 charges by PACMAN v1.1 (https://github.com/mtap-research/PACMAN-charge/)
data_KICDOT_ASR_pacman
_symmetry_space_group_name_H-M   'P 1'
_cell_length_a   16.03390000
_cell_length_b   30.09090000
_cell_length_c   16.33330000
_cell_angle_alpha   90.00000000
_cell_angle_beta   102.86200000
_cell_angle_gamma   90.00000000
_symmetry_Int_Tables_number   1
_chemical_formula_structural   Fe3H36C56O13
_chemical_formula_sum   'Fe12 H144 C224 O52'
_cell_volume   7682.67367487
_cell_formula_units_Z   4
loop_
 _symmetry_equiv_pos_site_id
 _symmetry_equiv_pos_as_xyz
  1  'x, y, z'
loop_
 _atom_site_type_symbol
 _atom_site_label
 _atom_site_symmetry_multiplicity
 _atom_site_fract_x
 _atom_site_fract_y
 _atom_site_fract_z
 _atom_site_occupancy
 _atom_site_charge
Fe  Fe1  1  0.57947000  0.21792000  0.26223000  1.0 1.1394645328
Fe  Fe2  1  0.92053000  0.71792000  0.73777000  1.0 1.1394645328
Fe  Fe3  1  0.42053000  0.78208000  0.73777000  1.0 1.1394645328
Fe  Fe4  1  0.07947000  0.28208000  0.26223000  1.0 1.1394645328
Fe  Fe5  1  0.77167000  0.17787000  0.13959000  1.0 1.0858931596
Fe  Fe6  1  0.72833000  0.67787000  0.86041000  1.0 1.0858931596
Fe  Fe7  1  0.22833000  0.82213000  0.86041000  1.0 1.0849367435
Fe  Fe8  1  0.27167000  0.32213000  0.13959000  1.0 1.0849367435
Fe  Fe9  1  0.44698000  0.29227000  0.28058000  1.0 0.9407750423
Fe  Fe10  1  0.05302000  0.79227000  0.71942000  1.0 0.9407750423
Fe  Fe11  1  0.55302000  0.70773000  0.71942000  1.0 0.9407750423
Fe  Fe12  1  0.94698000  0.20773000  0.28058000  1.0 0.9407750423
H  H1  1  0.89018000  0.97005000  0.14781000  1.0 0.1190250047
H  H2  1  0.60982000  0.47005000  0.85219000  1.0 0.1190250047
H  H3  1  0.10982000  0.02995000  0.85219000  1.0 0.1190250047
H  H4  1  0.39018000  0.52995000  0.14781000  1.0 0.1190250047
H  H5  1  0.84725000  0.04304000  0.13454000  1.0 0.1190250047
H  H6  1  0.65275000  0.54304000  0.86546000  1.0 0.1190250047
H  H7  1  0.15275000  0.95696000  0.86546000  1.0 0.1190250047
H  H8  1  0.34725000  0.45696000  0.13454000  1.0 0.1190250047
H  H9  1  0.65243000  0.73996000  0.02264000  1.0 0.1190250047
H  H10  1  0.84757000  0.23996000  0.97736000  1.0 0.1190250047
H  H11  1  0.34757000  0.26004000  0.97736000  1.0 0.1190250047
H  H12  1  0.15243000  0.76004000  0.02264000  1.0 0.1190250047
H  H13  1  0.54840000  0.88363000  0.99317000  1.0 0.1126744465
H  H14  1  0.95160000  0.38363000  0.00683000  1.0 0.1126744465
H  H15  1  0.45160000  0.11637000  0.00683000  1.0 0.1126744465
H  H16  1  0.04840000  0.61637000  0.99317000  1.0 0.1126744465
H  H17  1  0.06839000  0.81097000  0.27522000  1.0 0.1190250047
H  H18  1  0.43161000  0.31097000  0.72478000  1.0 0.1190250047
H  H19  1  0.93161000  0.18903000  0.72478000  1.0 0.1190250047
H  H20  1  0.56839000  0.68903000  0.27522000  1.0 0.1190250047
H  H21  1  0.56716000  0.81287000  0.22721000  1.0 0.1126744465
H  H22  1  0.93284000  0.31287000  0.77279000  1.0 0.1126744465
H  H23  1  0.43284000  0.18713000  0.77279000  1.0 0.1126744465
H  H24  1  0.06716000  0.68713000  0.22721000  1.0 0.1126744465
H  H25  1  0.09980000  0.85979000  0.61583000  1.0 0.1190250047
H  H26  1  0.40020000  0.35979000  0.38417000  1.0 0.1190250047
H  H27  1  0.90020000  0.14021000  0.38417000  1.0 0.1190250047
H  H28  1  0.59980000  0.64021000  0.61583000  1.0 0.1190250047
H  H29  1  0.27027000  0.78880000  0.52483000  1.0 0.1285593192
H  H30  1  0.22973000  0.28880000  0.47517000  1.0 0.1285593192
H  H31  1  0.72973000  0.21120000  0.47517000  1.0 0.1285593192
H  H32  1  0.77027000  0.71120000  0.52483000  1.0 0.1285593192
H  H33  1  0.98369000  0.81267000  0.91802000  1.0 0.1285593192
H  H34  1  0.51631000  0.31267000  0.08198000  1.0 0.1285593192
H  H35  1  0.01631000  0.18733000  0.08198000  1.0 0.1285593192
H  H36  1  0.48369000  0.68733000  0.91802000  1.0 0.1285593192
H  H37  1  0.70185000  0.06334000  0.14636000  1.0 0.1190250047
H  H38  1  0.79815000  0.56334000  0.85364000  1.0 0.1190250047
H  H39  1  0.29815000  0.93666000  0.85364000  1.0 0.1190250047
H  H40  1  0.20185000  0.43666000  0.14636000  1.0 0.1190250047
H  H41  1  0.60626000  0.92405000  0.10502000  1.0 0.1126744465
H  H42  1  0.89374000  0.42405000  0.89498000  1.0 0.1126744465
H  H43  1  0.39374000  0.07595000  0.89498000  1.0 0.1126744465
H  H44  1  0.10626000  0.57595000  0.10502000  1.0 0.1126744465
H  H45  1  0.20814000  0.81284000  0.39092000  1.0 0.1190250047
H  H46  1  0.29186000  0.31284000  0.60908000  1.0 0.1190250047
H  H47  1  0.79186000  0.18716000  0.60908000  1.0 0.1190250047
H  H48  1  0.70814000  0.68716000  0.39092000  1.0 0.1190250047
H  H49  1  0.07683000  0.93325000  0.37010000  1.0 0.1190250047
H  H50  1  0.42317000  0.43325000  0.62990000  1.0 0.1190250047
H  H51  1  0.92317000  0.06675000  0.62990000  1.0 0.1190250047
H  H52  1  0.57683000  0.56675000  0.37010000  1.0 0.1190250047
H  H53  1  0.55118000  0.84173000  0.87616000  1.0 0.1190250047
H  H54  1  0.94882000  0.34173000  0.12384000  1.0 0.1190250047
H  H55  1  0.44882000  0.15827000  0.12384000  1.0 0.1190250047
H  H56  1  0.05118000  0.65827000  0.87616000  1.0 0.1190250047
H  H57  1  0.03991000  0.85856000  0.03125000  1.0 0.1190250047
H  H58  1  0.46009000  0.35856000  0.96875000  1.0 0.1190250047
H  H59  1  0.96009000  0.14144000  0.96875000  1.0 0.1190250047
H  H60  1  0.53991000  0.64144000  0.03125000  1.0 0.1190250047
H  H61  1  0.46519000  0.88983000  0.39863000  1.0 0.1190250047
H  H62  1  0.03481000  0.38983000  0.60137000  1.0 0.1190250047
H  H63  1  0.53481000  0.11017000  0.60137000  1.0 0.1190250047
H  H64  1  0.96519000  0.61017000  0.39863000  1.0 0.1190250047
H  H65  1  0.51942000  0.07793000  0.27532000  1.0 0.1285593192
H  H66  1  0.98058000  0.57793000  0.72468000  1.0 0.1285593192
H  H67  1  0.48058000  0.92207000  0.72468000  1.0 0.1285593192
H  H68  1  0.01942000  0.42207000  0.27532000  1.0 0.1285593192
H  H69  1  0.04140000  0.88626000  0.48266000  1.0 0.1190250047
H  H70  1  0.45860000  0.38626000  0.51734000  1.0 0.1190250047
H  H71  1  0.95860000  0.11374000  0.51734000  1.0 0.1190250047
H  H72  1  0.54140000  0.61374000  0.48266000  1.0 0.1190250047
H  H73  1  0.85171000  0.74641000  0.06121000  1.0 0.1190250047
H  H74  1  0.64829000  0.24641000  0.93879000  1.0 0.1190250047
H  H75  1  0.14829000  0.25359000  0.93879000  1.0 0.1190250047
H  H76  1  0.35171000  0.75359000  0.06121000  1.0 0.1190250047
H  H77  1  0.05590000  0.07778000  0.30693000  1.0 0.1285593192
H  H78  1  0.44410000  0.57778000  0.69307000  1.0 0.1285593192
H  H79  1  0.94410000  0.92222000  0.69307000  1.0 0.1285593192
H  H80  1  0.55590000  0.42222000  0.30693000  1.0 0.1285593192
H  H81  1  0.64831000  0.78097000  0.13739000  1.0 0.1126744465
H  H82  1  0.85169000  0.28097000  0.86261000  1.0 0.1126744465
H  H83  1  0.35169000  0.21903000  0.86261000  1.0 0.1126744465
H  H84  1  0.14831000  0.71903000  0.13739000  1.0 0.1126744465
H  H85  1  0.56391000  0.93233000  0.33735000  1.0 0.1126744465
H  H86  1  0.93609000  0.43233000  0.66265000  1.0 0.1126744465
H  H87  1  0.43609000  0.06767000  0.66265000  1.0 0.1126744465
H  H88  1  0.06391000  0.56767000  0.33735000  1.0 0.1126744465
H  H89  1  0.97552000  0.91287000  0.12608000  1.0 0.1190250047
H  H90  1  0.52448000  0.41287000  0.87392000  1.0 0.1190250047
H  H91  1  0.02448000  0.08713000  0.87392000  1.0 0.1190250047
H  H92  1  0.47552000  0.58713000  0.12608000  1.0 0.1190250047
H  H93  1  0.68990000  0.98687000  0.15478000  1.0 0.1126744465
H  H94  1  0.81010000  0.48687000  0.84522000  1.0 0.1126744465
H  H95  1  0.31010000  0.01313000  0.84522000  1.0 0.1126744465
H  H96  1  0.18990000  0.51313000  0.15478000  1.0 0.1126744465
H  H97  1  0.61142000  0.76233000  0.49428000  1.0 0.1285593192
H  H98  1  0.88858000  0.26233000  0.50572000  1.0 0.1285593192
H  H99  1  0.38858000  0.23767000  0.50572000  1.0 0.1285593192
H  H100  1  0.11142000  0.73767000  0.49428000  1.0 0.1285593192
H  H101  1  0.50176000  0.00148000  0.27759000  1.0 0.1126744465
H  H102  1  0.99824000  0.50148000  0.72241000  1.0 0.1126744465
H  H103  1  0.49824000  0.99852000  0.72241000  1.0 0.1126744465
H  H104  1  0.00176000  0.49852000  0.27759000  1.0 0.1126744465
H  H105  1  0.44478000  0.85553000  0.51920000  1.0 0.1285593192
H  H106  1  0.05522000  0.35553000  0.48080000  1.0 0.1285593192
H  H107  1  0.55522000  0.14447000  0.48080000  1.0 0.1285593192
H  H108  1  0.94478000  0.64447000  0.51920000  1.0 0.1285593192
H  H109  1  0.09982000  0.00467000  0.31922000  1.0 0.1190250047
H  H110  1  0.40018000  0.50467000  0.68078000  1.0 0.1190250047
H  H111  1  0.90018000  0.99533000  0.68078000  1.0 0.1190250047
H  H112  1  0.59982000  0.49533000  0.31922000  1.0 0.1190250047
H  H113  1  0.92144000  0.78603000  0.17729000  1.0 0.1190250047
H  H114  1  0.57856000  0.28603000  0.82271000  1.0 0.1190250047
H  H115  1  0.07856000  0.21397000  0.82271000  1.0 0.1190250047
H  H116  1  0.42144000  0.71397000  0.17729000  1.0 0.1190250047
H  H117  1  0.63108000  0.79435000  0.37172000  1.0 0.1126744465
H  H118  1  0.86892000  0.29435000  0.62828000  1.0 0.1126744465
H  H119  1  0.36892000  0.20565000  0.62828000  1.0 0.1126744465
H  H120  1  0.13108000  0.70565000  0.37172000  1.0 0.1126744465
H  H121  1  0.63439000  0.33135000  0.36322000  1.0 0.0542724532
H  H122  1  0.86561000  0.83135000  0.63678000  1.0 0.0542724532
H  H123  1  0.36561000  0.66865000  0.63678000  1.0 0.0542724532
H  H124  1  0.13439000  0.16865000  0.36322000  1.0 0.0542724532
H  H125  1  0.68494000  0.28656000  0.38216000  1.0 0.0802909073
H  H126  1  0.81506000  0.78656000  0.61784000  1.0 0.0802909073
H  H127  1  0.31506000  0.71344000  0.61784000  1.0 0.0802909073
H  H128  1  0.18494000  0.21344000  0.38216000  1.0 0.0802909073
H  H129  1  0.60339000  0.29482000  0.41810000  1.0 0.1126744465
H  H130  1  0.89661000  0.79482000  0.58190000  1.0 0.1126744465
H  H131  1  0.39661000  0.70518000  0.58190000  1.0 0.1126744465
H  H132  1  0.10339000  0.20518000  0.41810000  1.0 0.1126744465
H  H133  1  0.63690000  0.31642000  0.22884000  1.0 0.1190250047
H  H134  1  0.86310000  0.81642000  0.77116000  1.0 0.1190250047
H  H135  1  0.36310000  0.68358000  0.77116000  1.0 0.1190250047
H  H136  1  0.13690000  0.18358000  0.22884000  1.0 0.1190250047
H  H137  1  0.69019000  0.30737000  0.32006000  1.0 0.071904725
H  H138  1  0.80981000  0.80737000  0.67994000  1.0 0.071904725
H  H139  1  0.30981000  0.69263000  0.67994000  1.0 0.071904725
H  H140  1  0.19019000  0.19263000  0.32006000  1.0 0.071904725
H  H141  1  0.61560000  0.34219000  0.30507000  1.0 0.0802909073
H  H142  1  0.88440000  0.84219000  0.69493000  1.0 0.0802909073
H  H143  1  0.38440000  0.65781000  0.69493000  1.0 0.0802909073
H  H144  1  0.11560000  0.15781000  0.30507000  1.0 0.0802909073
C  C1  1  0.56570000  0.86841000  0.29540000  1.0 0.0802909073
C  C2  1  0.93430000  0.36841000  0.70460000  1.0 0.0802909073
C  C3  1  0.43430000  0.13159000  0.70460000  1.0 0.0802909073
C  C4  1  0.06570000  0.63159000  0.29540000  1.0 0.0802909073
C  C5  1  0.92370000  0.99170000  0.18000000  1.0 -0.1558017719
C  C6  1  0.57630000  0.49170000  0.82000000  1.0 -0.1558017719
C  C7  1  0.07630000  0.00830000  0.82000000  1.0 -0.1490134492
C  C8  1  0.42370000  0.50830000  0.18000000  1.0 -0.1558017719
C  C9  1  0.89830000  0.03539000  0.17130000  1.0 -0.101715731
C  C10  1  0.60170000  0.53539000  0.82870000  1.0 -0.101715731
C  C11  1  0.10170000  0.96461000  0.82870000  1.0 -0.101715731
C  C12  1  0.39830000  0.46461000  0.17130000  1.0 -0.101715731
C  C13  1  0.55140000  0.84658000  0.37270000  1.0 0.071904725
C  C14  1  0.94860000  0.34658000  0.62730000  1.0 0.071904725
C  C15  1  0.44860000  0.15342000  0.62730000  1.0 0.071904725
C  C16  1  0.05140000  0.65342000  0.37270000  1.0 0.071904725
C  C17  1  0.58800000  0.86338000  0.15340000  1.0 0.0802909073
C  C18  1  0.91200000  0.36338000  0.84660000  1.0 0.0802909073
C  C19  1  0.41200000  0.13662000  0.84660000  1.0 0.0802909073
C  C20  1  0.08800000  0.63662000  0.15340000  1.0 0.0802909073
C  C21  1  0.59570000  0.98584000  0.21800000  1.0 0.071904725
C  C22  1  0.90430000  0.48584000  0.78200000  1.0 0.071904725
C  C23  1  0.40430000  0.01416000  0.78200000  1.0 0.071904725
C  C24  1  0.09570000  0.51416000  0.21800000  1.0 0.071904725
C  C25  1  0.63020000  0.76861000  0.01630000  1.0 -0.0915151249
C  C26  1  0.86980000  0.26861000  0.98370000  1.0 -0.0915151249
C  C27  1  0.36980000  0.23139000  0.98370000  1.0 -0.0915151249
C  C28  1  0.13020000  0.73139000  0.01630000  1.0 -0.0915151249
C  C29  1  0.59540000  0.83647000  0.07960000  1.0 0.071904725
C  C30  1  0.90460000  0.33647000  0.92040000  1.0 0.071904725
C  C31  1  0.40460000  0.16353000  0.92040000  1.0 0.071904725
C  C32  1  0.09540000  0.66353000  0.07960000  1.0 0.071904725
C  C33  1  0.90960000  0.77513000  0.97710000  1.0 -0.0306762337
C  C34  1  0.59040000  0.27513000  0.02290000  1.0 -0.0306762337
C  C35  1  0.09040000  0.22487000  0.02290000  1.0 -0.0306762337
C  C36  1  0.40960000  0.72487000  0.97710000  1.0 -0.0306762337
C  C37  1  0.18990000  0.82103000  0.58380000  1.0 -0.0306762337
C  C38  1  0.31010000  0.32103000  0.41620000  1.0 -0.0306762337
C  C39  1  0.81010000  0.17897000  0.41620000  1.0 -0.0306762337
C  C40  1  0.68990000  0.67897000  0.58380000  1.0 -0.0306762337
C  C41  1  0.01860000  0.85745000  0.18890000  1.0 0.0802909073
C  C42  1  0.48140000  0.35745000  0.81110000  1.0 0.0802909073
C  C43  1  0.98140000  0.14255000  0.81110000  1.0 0.0802909073
C  C44  1  0.51860000  0.64255000  0.18890000  1.0 0.0802909073
C  C45  1  0.56810000  0.85448000  0.99940000  1.0 -0.1418434569
C  C46  1  0.93190000  0.35448000  0.00060000  1.0 -0.1418434569
C  C47  1  0.43190000  0.14552000  0.00060000  1.0 -0.1418434569
C  C48  1  0.06810000  0.64552000  0.99940000  1.0 -0.1418434569
C  C49  1  0.60990000  0.07819000  0.20950000  1.0 -0.0306762337
C  C50  1  0.89010000  0.57819000  0.79050000  1.0 -0.0306762337
C  C51  1  0.39010000  0.92181000  0.79050000  1.0 -0.0306762337
C  C52  1  0.10990000  0.42181000  0.20950000  1.0 -0.0306762337
C  C53  1  0.05730000  0.84123000  0.26810000  1.0 -0.2006584724
C  C54  1  0.44270000  0.34123000  0.73190000  1.0 -0.2006584724
C  C55  1  0.94270000  0.15877000  0.73190000  1.0 -0.2006584724
C  C56  1  0.55730000  0.65877000  0.26810000  1.0 -0.2006584724
C  C57  1  0.62090000  0.12798000  0.20330000  1.0 0.5898048366
C  C58  1  0.87910000  0.62798000  0.79670000  1.0 0.5898048366
C  C59  1  0.37910000  0.87202000  0.79670000  1.0 0.5898048366
C  C60  1  0.12090000  0.37202000  0.20330000  1.0 0.5898048366
C  C61  1  0.57280000  0.84360000  0.22560000  1.0 -0.2006584724
C  C62  1  0.92720000  0.34360000  0.77440000  1.0 -0.2006584724
C  C63  1  0.42720000  0.15640000  0.77440000  1.0 -0.2006584724
C  C64  1  0.07280000  0.65640000  0.22560000  1.0 -0.2006584724
C  C65  1  0.11910000  0.85207000  0.42290000  1.0 0.071904725
C  C66  1  0.38090000  0.35207000  0.57710000  1.0 0.071904725
C  C67  1  0.88090000  0.14793000  0.57710000  1.0 0.071904725
C  C68  1  0.61910000  0.64793000  0.42290000  1.0 0.071904725
C  C69  1  0.12190000  0.85051000  0.57070000  1.0 -0.1080770352
C  C70  1  0.37810000  0.35051000  0.42930000  1.0 -0.1080770352
C  C71  1  0.87810000  0.14949000  0.42930000  1.0 -0.1080770352
C  C72  1  0.62190000  0.64949000  0.57070000  1.0 -0.1080770352
C  C73  1  0.22330000  0.80776000  0.51630000  1.0 -0.1080770352
C  C74  1  0.27670000  0.30776000  0.48370000  1.0 -0.1080770352
C  C75  1  0.77670000  0.19224000  0.48370000  1.0 -0.1080770352
C  C76  1  0.72330000  0.69224000  0.51630000  1.0 -0.1080770352
C  C77  1  0.96840000  0.80843000  0.96910000  1.0 -0.101715731
C  C78  1  0.53160000  0.30843000  0.03090000  1.0 -0.101715731
C  C79  1  0.03160000  0.19157000  0.03090000  1.0 -0.101715731
C  C80  1  0.46840000  0.69157000  0.96910000  1.0 -0.101715731
C  C81  1  0.94990000  0.06850000  0.21810000  1.0 -0.0356983935
C  C82  1  0.55010000  0.56850000  0.78190000  1.0 -0.0356983935
C  C83  1  0.05010000  0.93150000  0.78190000  1.0 -0.0356983935
C  C84  1  0.44990000  0.43150000  0.21810000  1.0 -0.0356983935
C  C85  1  0.66220000  0.05093000  0.17350000  1.0 -0.1080770352
C  C86  1  0.83780000  0.55093000  0.82650000  1.0 -0.1080770352
C  C87  1  0.33780000  0.94907000  0.82650000  1.0 -0.1080770352
C  C88  1  0.16220000  0.44907000  0.17350000  1.0 -0.1080770352
C  C89  1  0.51100000  0.78231000  0.59510000  1.0 0.5898048366
C  C90  1  0.98900000  0.28231000  0.40490000  1.0 0.5898048366
C  C91  1  0.48900000  0.21769000  0.40490000  1.0 0.5898048366
C  C92  1  0.01100000  0.71769000  0.59510000  1.0 0.5898048366
C  C93  1  0.59560000  0.91023000  0.15260000  1.0 -0.2006584724
C  C94  1  0.90440000  0.41023000  0.84740000  1.0 -0.2006584724
C  C95  1  0.40440000  0.08977000  0.84740000  1.0 -0.2006584724
C  C96  1  0.09560000  0.58977000  0.15260000  1.0 -0.2006584724
C  C97  1  0.18680000  0.82270000  0.43620000  1.0 -0.1490134492
C  C98  1  0.31320000  0.32270000  0.56380000  1.0 -0.1490134492
C  C99  1  0.81320000  0.17730000  0.56380000  1.0 -0.1490134492
C  C100  1  0.68680000  0.67730000  0.43620000  1.0 -0.1490134492
C  C101  1  0.06200000  0.91424000  0.32430000  1.0 -0.1870601719
C  C102  1  0.43800000  0.41424000  0.67570000  1.0 -0.1870601719
C  C103  1  0.93800000  0.08576000  0.67570000  1.0 -0.1870601719
C  C104  1  0.56200000  0.58576000  0.32430000  1.0 -0.1870601719
C  C105  1  0.07920000  0.86921000  0.33560000  1.0 0.0802909073
C  C106  1  0.42080000  0.36921000  0.66440000  1.0 0.0802909073
C  C107  1  0.92080000  0.13079000  0.66440000  1.0 0.0802909073
C  C108  1  0.57920000  0.63079000  0.33560000  1.0 0.0802909073
C  C109  1  0.86860000  0.74698000  0.90320000  1.0 0.5898048366
C  C110  1  0.63140000  0.24698000  0.09680000  1.0 0.5898048366
C  C111  1  0.13140000  0.25302000  0.09680000  1.0 0.5898048366
C  C112  1  0.36860000  0.75302000  0.90320000  1.0 0.5898048366
C  C113  1  0.99920000  0.97917000  0.23660000  1.0 0.071904725
C  C114  1  0.50080000  0.47917000  0.76340000  1.0 0.071904725
C  C115  1  0.00080000  0.02083000  0.76340000  1.0 0.071904725
C  C116  1  0.49920000  0.52083000  0.23660000  1.0 0.071904725
C  C117  1  0.57010000  0.82921000  0.92910000  1.0 -0.0915151249
C  C118  1  0.92990000  0.32921000  0.07090000  1.0 -0.0915151249
C  C119  1  0.42990000  0.17079000  0.07090000  1.0 -0.0915151249
C  C120  1  0.07010000  0.67079000  0.92910000  1.0 -0.0915151249
C  C121  1  0.91930000  0.11564000  0.20970000  1.0 0.5898048366
C  C122  1  0.58070000  0.61564000  0.79030000  1.0 0.5898048366
C  C123  1  0.08070000  0.88436000  0.79030000  1.0 0.5898048366
C  C124  1  0.41930000  0.38436000  0.20970000  1.0 0.5898048366
C  C125  1  0.00390000  0.83522000  0.03770000  1.0 -0.1490134492
C  C126  1  0.49610000  0.33522000  0.96230000  1.0 -0.1490134492
C  C127  1  0.99610000  0.16478000  0.96230000  1.0 -0.1490134492
C  C128  1  0.50390000  0.66478000  0.03770000  1.0 -0.1490134492
C  C129  1  0.49510000  0.86393000  0.41730000  1.0 -0.1490134492
C  C130  1  0.00490000  0.36393000  0.58270000  1.0 -0.1490134492
C  C131  1  0.50490000  0.13607000  0.58270000  1.0 -0.1490134492
C  C132  1  0.99510000  0.63607000  0.41730000  1.0 -0.1490134492
C  C133  1  0.55270000  0.05967000  0.24950000  1.0 -0.101715731
C  C134  1  0.94730000  0.55967000  0.75050000  1.0 -0.101715731
C  C135  1  0.44730000  0.94033000  0.75050000  1.0 -0.101715731
C  C136  1  0.05270000  0.44033000  0.24950000  1.0 -0.101715731
C  C137  1  0.08670000  0.86624000  0.49090000  1.0 -0.1418434569
C  C138  1  0.41330000  0.36624000  0.50910000  1.0 -0.1418434569
C  C139  1  0.91330000  0.13376000  0.50910000  1.0 -0.1418434569
C  C140  1  0.58670000  0.63376000  0.49090000  1.0 -0.1418434569
C  C141  1  0.89140000  0.76800000  0.05530000  1.0 -0.101715731
C  C142  1  0.60860000  0.26800000  0.94470000  1.0 -0.101715731
C  C143  1  0.10860000  0.23200000  0.94470000  1.0 -0.101715731
C  C144  1  0.39140000  0.73200000  0.05530000  1.0 -0.101715731
C  C145  1  0.22660000  0.80323000  0.66940000  1.0 0.6083957011
C  C146  1  0.27340000  0.30323000  0.33060000  1.0 0.6083957011
C  C147  1  0.77340000  0.19677000  0.33060000  1.0 0.6083957011
C  C148  1  0.72660000  0.69677000  0.66940000  1.0 0.6083957011
C  C149  1  0.02290000  0.05621000  0.27390000  1.0 -0.1080770352
C  C150  1  0.47710000  0.55621000  0.72610000  1.0 -0.1080770352
C  C151  1  0.97710000  0.94379000  0.72610000  1.0 -0.1080770352
C  C152  1  0.52290000  0.44379000  0.27390000  1.0 -0.1080770352
C  C153  1  0.62760000  0.79330000  0.08460000  1.0 -0.1490134492
C  C154  1  0.87240000  0.29330000  0.91540000  1.0 -0.1490134492
C  C155  1  0.37240000  0.20670000  0.91540000  1.0 -0.1490134492
C  C156  1  0.12760000  0.70670000  0.08460000  1.0 -0.1490134492
C  C157  1  0.02380000  0.93152000  0.24740000  1.0 0.071904725
C  C158  1  0.47620000  0.43152000  0.75260000  1.0 0.071904725
C  C159  1  0.97620000  0.06848000  0.75260000  1.0 0.071904725
C  C160  1  0.52380000  0.56848000  0.24740000  1.0 0.071904725
C  C161  1  0.57120000  0.91531000  0.29190000  1.0 -0.2006584724
C  C162  1  0.92880000  0.41531000  0.70810000  1.0 -0.2006584724
C  C163  1  0.42880000  0.08469000  0.70810000  1.0 -0.2006584724
C  C164  1  0.07120000  0.58469000  0.29190000  1.0 -0.2006584724
C  C165  1  0.98550000  0.82709000  0.11610000  1.0 0.071904725
C  C166  1  0.51450000  0.32709000  0.88390000  1.0 0.071904725
C  C167  1  0.01450000  0.17291000  0.88390000  1.0 0.071904725
C  C168  1  0.48550000  0.67291000  0.11610000  1.0 0.071904725
C  C169  1  0.00180000  0.90195000  0.17880000  1.0 -0.1870601719
C  C170  1  0.49820000  0.40195000  0.82120000  1.0 -0.1870601719
C  C171  1  0.99820000  0.09805000  0.82120000  1.0 -0.1870601719
C  C172  1  0.50180000  0.59805000  0.17880000  1.0 -0.1870601719
C  C173  1  0.65470000  0.00503000  0.17850000  1.0 -0.1490134492
C  C174  1  0.84530000  0.50503000  0.82150000  1.0 -0.1490134492
C  C175  1  0.34530000  0.99497000  0.82150000  1.0 -0.1490134492
C  C176  1  0.15470000  0.49497000  0.17850000  1.0 -0.1490134492
C  C177  1  0.58750000  0.93615000  0.22070000  1.0 0.0802909073
C  C178  1  0.91250000  0.43615000  0.77930000  1.0 0.0802909073
C  C179  1  0.41250000  0.06385000  0.77930000  1.0 0.0802909073
C  C180  1  0.08750000  0.56385000  0.22070000  1.0 0.0802909073
C  C181  1  0.52560000  0.80455000  0.51780000  1.0 -0.0306762337
C  C182  1  0.97440000  0.30455000  0.48220000  1.0 -0.0306762337
C  C183  1  0.47440000  0.19545000  0.48220000  1.0 -0.0306762337
C  C184  1  0.02560000  0.69545000  0.51780000  1.0 -0.0306762337
C  C185  1  0.58090000  0.78790000  0.47440000  1.0 -0.1080770352
C  C186  1  0.91910000  0.28790000  0.52560000  1.0 -0.1080770352
C  C187  1  0.41910000  0.21210000  0.52560000  1.0 -0.1080770352
C  C188  1  0.08090000  0.71210000  0.47440000  1.0 -0.1080770352
C  C189  1  0.59910000  0.78633000  0.93530000  1.0 -0.02268432
C  C190  1  0.90090000  0.28633000  0.06470000  1.0 -0.02268432
C  C191  1  0.40090000  0.21367000  0.06470000  1.0 -0.02268432
C  C192  1  0.09910000  0.71367000  0.93530000  1.0 -0.02268432
C  C193  1  0.54320000  0.01361000  0.25250000  1.0 -0.1490134492
C  C194  1  0.95680000  0.51361000  0.74750000  1.0 -0.1490134492
C  C195  1  0.45680000  0.98639000  0.74750000  1.0 -0.1490134492
C  C196  1  0.04320000  0.48639000  0.25250000  1.0 -0.1490134492
C  C197  1  0.58820000  0.75860000  0.85780000  1.0 0.5898048366
C  C198  1  0.91180000  0.25860000  0.14220000  1.0 0.5898048366
C  C199  1  0.41180000  0.24140000  0.14220000  1.0 0.5898048366
C  C200  1  0.08820000  0.74140000  0.85780000  1.0 0.5898048366
C  C201  1  0.48250000  0.84325000  0.48960000  1.0 -0.101715731
C  C202  1  0.01750000  0.34325000  0.51040000  1.0 -0.101715731
C  C203  1  0.51750000  0.15675000  0.51040000  1.0 -0.101715731
C  C204  1  0.98250000  0.65675000  0.48960000  1.0 -0.101715731
C  C205  1  0.04870000  0.01211000  0.28240000  1.0 -0.1490134492
C  C206  1  0.45130000  0.51211000  0.71760000  1.0 -0.1490134492
C  C207  1  0.95130000  0.98789000  0.71760000  1.0 -0.1490134492
C  C208  1  0.54870000  0.48789000  0.28240000  1.0 -0.1490134492
C  C209  1  0.93130000  0.79270000  0.12470000  1.0 -0.1558017719
C  C210  1  0.56870000  0.29270000  0.87530000  1.0 -0.1558017719
C  C211  1  0.06870000  0.20730000  0.87530000  1.0 -0.1558017719
C  C212  1  0.43130000  0.70730000  0.12470000  1.0 -0.1558017719
C  C213  1  0.59410000  0.80740000  0.40130000  1.0 -0.1490134492
C  C214  1  0.90590000  0.30740000  0.59870000  1.0 -0.1490134492
C  C215  1  0.40590000  0.19260000  0.59870000  1.0 -0.1490134492
C  C216  1  0.09410000  0.69260000  0.40130000  1.0 -0.1490134492
C  C217  1  0.62920000  0.30000000  0.37130000  1.0 -0.1304272843
C  C218  1  0.87080000  0.80000000  0.62870000  1.0 -0.1304272843
C  C219  1  0.37080000  0.70000000  0.62870000  1.0 -0.1304272843
C  C220  1  0.12920000  0.20000000  0.37130000  1.0 -0.1304272843
C  C221  1  0.63440000  0.31430000  0.28700000  1.0 -0.1304272843
C  C222  1  0.86560000  0.81430000  0.71300000  1.0 -0.1304272843
C  C223  1  0.36560000  0.68570000  0.71300000  1.0 -0.1304272843
C  C224  1  0.13440000  0.18570000  0.28700000  1.0 -0.1304272843
O  O1  1  0.57660000  0.28066000  0.29670000  1.0 -0.3294222301
O  O2  1  0.92340000  0.78066000  0.70330000  1.0 -0.3294222301
O  O3  1  0.42340000  0.71934000  0.70330000  1.0 -0.3294222301
O  O4  1  0.07660000  0.21934000  0.29670000  1.0 -0.3294222301
O  O5  1  0.79350000  0.73375000  0.89920000  1.0 -0.5717919414
O  O6  1  0.70650000  0.23375000  0.10080000  1.0 -0.5717919414
O  O7  1  0.20650000  0.26625000  0.10080000  1.0 -0.5717919414
O  O8  1  0.29350000  0.76625000  0.89920000  1.0 -0.5717919414
O  O9  1  0.85080000  0.12440000  0.15940000  1.0 -0.5569659417
O  O10  1  0.64920000  0.62440000  0.84060000  1.0 -0.5569659417
O  O11  1  0.14920000  0.87560000  0.84060000  1.0 -0.5569659417
O  O12  1  0.35080000  0.37560000  0.15940000  1.0 -0.5569659417
O  O13  1  0.91160000  0.73932000  0.85000000  1.0 -0.5569659417
O  O14  1  0.58840000  0.23932000  0.15000000  1.0 -0.5569659417
O  O15  1  0.08840000  0.26068000  0.15000000  1.0 -0.5569659417
O  O16  1  0.41160000  0.76068000  0.85000000  1.0 -0.5569659417
O  O17  1  0.45850000  0.79999000  0.63190000  1.0 -0.538228864
O  O18  1  0.04150000  0.29999000  0.36810000  1.0 -0.538228864
O  O19  1  0.54150000  0.20001000  0.36810000  1.0 -0.538228864
O  O20  1  0.95850000  0.70001000  0.63190000  1.0 -0.538228864
O  O21  1  0.18520000  0.80661000  0.72820000  1.0 -0.6086837595
O  O22  1  0.31480000  0.30661000  0.27180000  1.0 -0.6086837595
O  O23  1  0.81480000  0.19339000  0.27180000  1.0 -0.6086837595
O  O24  1  0.68520000  0.69339000  0.72820000  1.0 -0.6086837595
O  O25  1  0.57470000  0.15187000  0.24020000  1.0 -0.5569659417
O  O26  1  0.92530000  0.65187000  0.75980000  1.0 -0.5569659417
O  O27  1  0.42530000  0.84813000  0.75980000  1.0 -0.5569659417
O  O28  1  0.07470000  0.34813000  0.24020000  1.0 -0.5569659417
O  O29  1  0.67070000  0.14166000  0.16190000  1.0 -0.5569659417
O  O30  1  0.82930000  0.64166000  0.83810000  1.0 -0.5569659417
O  O31  1  0.32930000  0.85834000  0.83810000  1.0 -0.5569659417
O  O32  1  0.17070000  0.35834000  0.16190000  1.0 -0.5569659417
O  O33  1  0.96580000  0.14425000  0.25790000  1.0 -0.5717919414
O  O34  1  0.53420000  0.64425000  0.74210000  1.0 -0.5717919414
O  O35  1  0.03420000  0.85575000  0.74210000  1.0 -0.5717919414
O  O36  1  0.46580000  0.35575000  0.25790000  1.0 -0.5717919414
O  O37  1  0.55310000  0.77562000  0.78800000  1.0 -0.553574199
O  O38  1  0.94690000  0.27562000  0.21200000  1.0 -0.553574199
O  O39  1  0.44690000  0.22438000  0.21200000  1.0 -0.553574199
O  O40  1  0.05310000  0.72438000  0.78800000  1.0 -0.553574199
O  O41  1  0.61120000  0.71899000  0.86170000  1.0 -0.5569659417
O  O42  1  0.88880000  0.21899000  0.13830000  1.0 -0.5569659417
O  O43  1  0.38880000  0.28101000  0.13830000  1.0 -0.5569659417
O  O44  1  0.11120000  0.78101000  0.86170000  1.0 -0.5569659417
O  O45  1  0.55320000  0.74684000  0.61730000  1.0 -0.5717919414
O  O46  1  0.94680000  0.24684000  0.38270000  1.0 -0.5717919414
O  O47  1  0.44680000  0.25316000  0.38270000  1.0 -0.5717919414
O  O48  1  0.05320000  0.75316000  0.61730000  1.0 -0.5717919414
O  O49  1  0.29900000  0.78537000  0.68120000  1.0 -0.5569659417
O  O50  1  0.20100000  0.28537000  0.31880000  1.0 -0.5569659417
O  O51  1  0.70100000  0.21463000  0.31880000  1.0 -0.5569659417
O  O52  1  0.79900000  0.71463000  0.68120000  1.0 -0.5569659417
