# DDEC6 charges by PACMAN v1.1 (https://github.com/mtap-research/PACMAN-charge/)
data_KICDUZ_ASR_pacman
_symmetry_space_group_name_H-M   'P 1'
_cell_length_a   16.03480000
_cell_length_b   29.96870000
_cell_length_c   16.34550000
_cell_angle_alpha   90.00000000
_cell_angle_beta   103.54700000
_cell_angle_gamma   90.00000000
_symmetry_Int_Tables_number   1
_chemical_formula_structural   Fe3H64C94S4O15
_chemical_formula_sum   'Fe12 H256 C376 S16 O60'
_cell_volume   7636.16833953
_cell_formula_units_Z   4
loop_
 _symmetry_equiv_pos_site_id
 _symmetry_equiv_pos_as_xyz
  1  'x, y, z'
loop_
 _atom_site_type_symbol
 _atom_site_label
 _atom_site_symmetry_multiplicity
 _atom_site_fract_x
 _atom_site_fract_y
 _atom_site_fract_z
 _atom_site_occupancy
 _atom_site_charge
Fe  Fe1  1  0.44960000  0.29268000  0.27993000  1.0 0.9402933878
Fe  Fe2  1  0.05040000  0.79268000  0.72007000  1.0 0.9402933878
Fe  Fe3  1  0.55040000  0.70732000  0.72007000  1.0 0.9402933878
Fe  Fe4  1  0.94960000  0.20732000  0.27993000  1.0 0.9402933878
Fe  Fe5  1  0.57990000  0.21801000  0.26155000  1.0 1.0981322391
Fe  Fe6  1  0.92010000  0.71801000  0.73845000  1.0 1.0981322391
Fe  Fe7  1  0.42010000  0.78199000  0.73845000  1.0 1.0981322391
Fe  Fe8  1  0.07990000  0.28199000  0.26155000  1.0 1.0981322391
Fe  Fe9  1  0.22779000  0.82258000  0.85986000  1.0 1.0981322391
Fe  Fe10  1  0.27221000  0.32258000  0.14014000  1.0 1.0981322391
Fe  Fe11  1  0.77221000  0.17742000  0.14014000  1.0 1.0981322391
Fe  Fe12  1  0.72779000  0.67742000  0.85986000  1.0 1.0981322391
H  H1  1  0.89463000  0.37772000  0.23314000  1.0 0.1288265994
H  H2  1  0.60537000  0.87772000  0.76686000  1.0 0.1288265994
H  H3  1  0.10537000  0.62228000  0.76686000  1.0 0.1288265994
H  H4  1  0.39463000  0.12228000  0.23314000  1.0 0.1288265994
H  H5  1  0.80600000  0.32572000  0.23237000  1.0 0.0892436525
H  H6  1  0.69400000  0.82572000  0.76763000  1.0 0.0892436525
H  H7  1  0.19400000  0.67428000  0.76763000  1.0 0.0892436525
H  H8  1  0.30600000  0.17428000  0.23237000  1.0 0.0892436525
H  H9  1  0.78076000  0.36253000  0.29329000  1.0 0.0794109347
H  H10  1  0.71924000  0.86253000  0.70671000  1.0 0.0794109347
H  H11  1  0.21924000  0.63747000  0.70671000  1.0 0.0794109347
H  H12  1  0.28076000  0.13747000  0.29329000  1.0 0.0794109347
H  H13  1  0.83977000  0.32108000  0.33219000  1.0 0.0991665327
H  H14  1  0.66023000  0.82108000  0.66781000  1.0 0.0991665327
H  H15  1  0.16023000  0.67892000  0.66781000  1.0 0.0991665327
H  H16  1  0.33977000  0.17892000  0.33219000  1.0 0.0991665327
H  H17  1  0.68977000  0.29218000  0.38425000  1.0 0.0794109347
H  H18  1  0.81023000  0.79218000  0.61575000  1.0 0.0794109347
H  H19  1  0.31023000  0.70782000  0.61575000  1.0 0.0794109347
H  H20  1  0.18977000  0.20782000  0.38425000  1.0 0.0794109347
H  H21  1  0.60620000  0.28949000  0.42171000  1.0 0.0991665327
H  H22  1  0.89380000  0.78949000  0.57829000  1.0 0.0991665327
H  H23  1  0.39380000  0.71051000  0.57829000  1.0 0.0991665327
H  H24  1  0.10620000  0.21051000  0.42171000  1.0 0.0991665327
H  H25  1  0.62475000  0.33345000  0.37328000  1.0 0.0794109347
H  H26  1  0.87525000  0.83345000  0.62672000  1.0 0.0794109347
H  H27  1  0.37525000  0.66655000  0.62672000  1.0 0.0794109347
H  H28  1  0.12475000  0.16655000  0.37328000  1.0 0.0794109347
H  H29  1  0.57480000  0.69072000  0.27877000  1.0 0.1202051757
H  H30  1  0.92520000  0.19072000  0.72123000  1.0 0.1202051757
H  H31  1  0.42520000  0.30928000  0.72123000  1.0 0.1202051757
H  H32  1  0.07480000  0.80928000  0.27877000  1.0 0.1202051757
H  H33  1  0.05457000  0.65576000  0.87318000  1.0 0.1202051757
H  H34  1  0.44543000  0.15576000  0.12682000  1.0 0.1202051757
H  H35  1  0.94543000  0.34424000  0.12682000  1.0 0.1202051757
H  H36  1  0.55457000  0.84424000  0.87318000  1.0 0.1202051757
H  H37  1  0.54803000  0.64433000  0.03284000  1.0 0.1288265994
H  H38  1  0.95197000  0.14433000  0.96716000  1.0 0.1288265994
H  H39  1  0.45197000  0.35567000  0.96716000  1.0 0.1288265994
H  H40  1  0.04803000  0.85567000  0.03284000  1.0 0.1288265994
H  H41  1  0.39476000  0.53179000  0.14786000  1.0 0.1095744802
H  H42  1  0.10524000  0.03179000  0.85214000  1.0 0.1095744802
H  H43  1  0.60524000  0.46821000  0.85214000  1.0 0.1095744802
H  H44  1  0.89476000  0.96821000  0.14786000  1.0 0.1095744802
H  H45  1  0.01573000  0.42261000  0.27450000  1.0 0.1288265994
H  H46  1  0.48427000  0.92261000  0.72550000  1.0 0.1288265994
H  H47  1  0.98427000  0.57739000  0.72550000  1.0 0.1288265994
H  H48  1  0.51573000  0.07739000  0.27450000  1.0 0.1288265994
H  H49  1  0.35105000  0.45778000  0.13161000  1.0 0.1202051757
H  H50  1  0.14895000  0.95778000  0.86839000  1.0 0.1202051757
H  H51  1  0.64895000  0.54222000  0.86839000  1.0 0.1202051757
H  H52  1  0.85105000  0.04222000  0.13161000  1.0 0.1202051757
H  H53  1  0.56858000  0.42084000  0.29920000  1.0 0.1202051757
H  H54  1  0.93142000  0.92084000  0.70080000  1.0 0.1202051757
H  H55  1  0.43142000  0.57916000  0.70080000  1.0 0.1202051757
H  H56  1  0.06858000  0.07916000  0.29920000  1.0 0.1202051757
H  H57  1  0.20675000  0.43827000  0.15422000  1.0 0.1202051757
H  H58  1  0.29325000  0.93827000  0.84578000  1.0 0.1202051757
H  H59  1  0.79325000  0.56173000  0.84578000  1.0 0.1202051757
H  H60  1  0.70675000  0.06173000  0.15422000  1.0 0.1202051757
H  H61  1  0.14858000  0.71876000  0.13978000  1.0 0.1202051757
H  H62  1  0.35142000  0.21876000  0.86022000  1.0 0.1202051757
H  H63  1  0.85142000  0.28124000  0.86022000  1.0 0.1202051757
H  H64  1  0.64858000  0.78124000  0.13978000  1.0 0.1202051757
H  H65  1  0.19435000  0.51470000  0.16156000  1.0 0.1095744802
H  H66  1  0.30565000  0.01470000  0.83844000  1.0 0.1095744802
H  H67  1  0.80565000  0.48530000  0.83844000  1.0 0.1095744802
H  H68  1  0.69435000  0.98530000  0.16156000  1.0 0.1095744802
H  H69  1  0.60002000  0.64045000  0.61465000  1.0 0.1202051757
H  H70  1  0.89998000  0.14045000  0.38535000  1.0 0.1202051757
H  H71  1  0.39998000  0.35955000  0.38535000  1.0 0.1202051757
H  H72  1  0.10002000  0.85955000  0.61465000  1.0 0.1202051757
H  H73  1  0.48521000  0.58723000  0.12375000  1.0 0.1202051757
H  H74  1  0.01479000  0.08723000  0.87625000  1.0 0.1202051757
H  H75  1  0.51479000  0.41277000  0.87625000  1.0 0.1202051757
H  H76  1  0.98521000  0.91277000  0.12375000  1.0 0.1202051757
H  H77  1  0.15328000  0.76081000  0.02048000  1.0 0.1202051757
H  H78  1  0.34672000  0.26081000  0.97952000  1.0 0.1202051757
H  H79  1  0.84672000  0.23919000  0.97952000  1.0 0.1202051757
H  H80  1  0.65328000  0.73919000  0.02048000  1.0 0.1202051757
H  H81  1  0.77879000  0.70965000  0.53313000  1.0 0.1288265994
H  H82  1  0.72121000  0.20965000  0.46687000  1.0 0.1288265994
H  H83  1  0.22121000  0.29035000  0.46687000  1.0 0.1288265994
H  H84  1  0.27879000  0.79035000  0.53313000  1.0 0.1288265994
H  H85  1  0.48442000  0.68912000  0.91826000  1.0 0.1288265994
H  H86  1  0.01558000  0.18912000  0.08174000  1.0 0.1288265994
H  H87  1  0.51558000  0.31088000  0.08174000  1.0 0.1288265994
H  H88  1  0.98442000  0.81088000  0.91826000  1.0 0.1288265994
H  H89  1  0.04870000  0.61464000  0.99345000  1.0 0.1202051757
H  H90  1  0.45130000  0.11464000  0.00655000  1.0 0.1202051757
H  H91  1  0.95130000  0.38536000  0.00655000  1.0 0.1202051757
H  H92  1  0.54870000  0.88536000  0.99345000  1.0 0.1202051757
H  H93  1  0.58778000  0.56474000  0.36999000  1.0 0.1288265994
H  H94  1  0.91222000  0.06474000  0.63001000  1.0 0.1288265994
H  H95  1  0.41222000  0.43526000  0.63001000  1.0 0.1288265994
H  H96  1  0.08778000  0.93526000  0.36999000  1.0 0.1288265994
H  H97  1  0.00246000  0.49869000  0.28200000  1.0 0.1202051757
H  H98  1  0.49754000  0.99869000  0.71800000  1.0 0.1202051757
H  H99  1  0.99754000  0.50131000  0.71800000  1.0 0.1202051757
H  H100  1  0.50246000  0.00131000  0.28200000  1.0 0.1202051757
H  H101  1  0.06033000  0.56928000  0.33987000  1.0 0.1202051757
H  H102  1  0.43967000  0.06928000  0.66013000  1.0 0.1202051757
H  H103  1  0.93967000  0.43072000  0.66013000  1.0 0.1202051757
H  H104  1  0.56033000  0.93072000  0.33987000  1.0 0.1202051757
H  H105  1  0.10764000  0.57569000  0.10713000  1.0 0.1202051757
H  H106  1  0.39236000  0.07569000  0.89287000  1.0 0.1202051757
H  H107  1  0.89236000  0.42431000  0.89287000  1.0 0.1202051757
H  H108  1  0.60764000  0.92431000  0.10713000  1.0 0.1202051757
H  H109  1  0.71900000  0.68602000  0.39503000  1.0 0.1202051757
H  H110  1  0.78100000  0.18602000  0.60497000  1.0 0.1202051757
H  H111  1  0.28100000  0.31398000  0.60497000  1.0 0.1202051757
H  H112  1  0.21900000  0.81398000  0.39503000  1.0 0.1202051757
H  H113  1  0.06517000  0.68889000  0.22601000  1.0 0.1202051757
H  H114  1  0.43483000  0.18889000  0.77399000  1.0 0.1202051757
H  H115  1  0.93483000  0.31111000  0.77399000  1.0 0.1202051757
H  H116  1  0.56517000  0.81111000  0.22601000  1.0 0.1202051757
H  H117  1  0.61341000  0.49411000  0.31230000  1.0 0.1288265994
H  H118  1  0.88659000  0.99411000  0.68770000  1.0 0.1288265994
H  H119  1  0.38659000  0.50589000  0.68770000  1.0 0.1288265994
H  H120  1  0.11341000  0.00589000  0.31230000  1.0 0.1288265994
H  H121  1  0.94101000  0.64425000  0.51867000  1.0 0.1386522217
H  H122  1  0.55899000  0.14425000  0.48133000  1.0 0.1386522217
H  H123  1  0.05899000  0.35575000  0.48133000  1.0 0.1386522217
H  H124  1  0.44101000  0.85575000  0.51867000  1.0 0.1386522217
H  H125  1  0.54825000  0.61196000  0.47990000  1.0 0.1202051757
H  H126  1  0.95175000  0.11196000  0.52010000  1.0 0.1202051757
H  H127  1  0.45175000  0.38804000  0.52010000  1.0 0.1202051757
H  H128  1  0.04825000  0.88804000  0.47990000  1.0 0.1202051757
H  H129  1  0.96416000  0.60960000  0.39908000  1.0 0.1288265994
H  H130  1  0.53584000  0.10960000  0.60092000  1.0 0.1288265994
H  H131  1  0.03584000  0.39040000  0.60092000  1.0 0.1288265994
H  H132  1  0.46416000  0.89040000  0.39908000  1.0 0.1288265994
H  H133  1  0.09531000  0.74559000  0.48422000  1.0 0.1202051757
H  H134  1  0.40469000  0.24559000  0.51578000  1.0 0.1202051757
H  H135  1  0.90469000  0.25441000  0.51578000  1.0 0.1202051757
H  H136  1  0.59531000  0.75441000  0.48422000  1.0 0.1202051757
H  H137  1  0.42393000  0.71451000  0.18027000  1.0 0.1202051757
H  H138  1  0.07607000  0.21451000  0.81973000  1.0 0.1202051757
H  H139  1  0.57607000  0.28549000  0.81973000  1.0 0.1202051757
H  H140  1  0.92393000  0.78549000  0.18027000  1.0 0.1202051757
H  H141  1  0.35527000  0.75603000  0.06392000  1.0 0.1202051757
H  H142  1  0.14473000  0.25603000  0.93608000  1.0 0.1202051757
H  H143  1  0.64473000  0.24397000  0.93608000  1.0 0.1202051757
H  H144  1  0.85527000  0.74397000  0.06392000  1.0 0.1202051757
H  H145  1  0.11918000  0.70971000  0.36546000  1.0 0.1202051757
H  H146  1  0.38082000  0.20971000  0.63454000  1.0 0.1202051757
H  H147  1  0.88082000  0.29029000  0.63454000  1.0 0.1202051757
H  H148  1  0.61918000  0.79029000  0.36546000  1.0 0.1202051757
H  H149  1  0.61398000  0.39112000  0.68485000  1.0 0.0892436525
H  H150  1  0.88602000  0.89112000  0.31515000  1.0 0.0892436525
H  H151  1  0.38602000  0.60888000  0.31515000  1.0 0.0892436525
H  H152  1  0.11398000  0.10888000  0.68485000  1.0 0.0892436525
H  H153  1  0.69243000  0.42321000  0.72584000  1.0 0.1095744802
H  H154  1  0.80757000  0.92321000  0.27416000  1.0 0.1095744802
H  H155  1  0.30757000  0.57679000  0.27416000  1.0 0.1095744802
H  H156  1  0.19243000  0.07679000  0.72584000  1.0 0.1095744802
H  H157  1  0.70618000  0.38318000  0.66553000  1.0 0.0991665327
H  H158  1  0.79382000  0.88318000  0.33447000  1.0 0.0991665327
H  H159  1  0.29382000  0.61682000  0.33447000  1.0 0.0991665327
H  H160  1  0.20618000  0.11682000  0.66553000  1.0 0.0991665327
H  H161  1  0.70336000  0.37793000  0.82502000  1.0 0.2701366706
H  H162  1  0.79664000  0.87793000  0.17498000  1.0 0.2701366706
H  H163  1  0.29664000  0.62207000  0.17498000  1.0 0.2701366706
H  H164  1  0.20336000  0.12207000  0.82502000  1.0 0.2701366706
H  H165  1  0.71498000  0.29902000  0.74384000  1.0 0.1202051757
H  H166  1  0.78502000  0.79902000  0.25616000  1.0 0.1202051757
H  H167  1  0.28502000  0.70098000  0.25616000  1.0 0.1202051757
H  H168  1  0.21498000  0.20098000  0.74384000  1.0 0.1202051757
H  H169  1  0.67995000  0.24612000  0.63593000  1.0 0.1095744802
H  H170  1  0.82005000  0.74612000  0.36407000  1.0 0.1095744802
H  H171  1  0.32005000  0.75388000  0.36407000  1.0 0.1095744802
H  H172  1  0.17995000  0.25388000  0.63593000  1.0 0.1095744802
H  H173  1  0.62304000  0.26920000  0.49731000  1.0 0.0991665327
H  H174  1  0.87696000  0.76920000  0.50269000  1.0 0.0991665327
H  H175  1  0.37696000  0.73080000  0.50269000  1.0 0.0991665327
H  H176  1  0.12304000  0.23080000  0.49731000  1.0 0.0991665327
H  H177  1  0.62034000  0.51086000  0.66784000  1.0 0.0794109347
H  H178  1  0.87966000  0.01086000  0.33216000  1.0 0.0794109347
H  H179  1  0.37966000  0.48914000  0.33216000  1.0 0.0794109347
H  H180  1  0.12034000  0.98914000  0.66784000  1.0 0.0794109347
H  H181  1  0.80054000  0.59297000  0.40141000  1.0 0.1202051757
H  H182  1  0.69946000  0.09297000  0.59859000  1.0 0.1202051757
H  H183  1  0.19946000  0.40703000  0.59859000  1.0 0.1202051757
H  H184  1  0.30054000  0.90703000  0.40141000  1.0 0.1202051757
H  H185  1  0.78844000  0.59717000  0.54112000  1.0 0.0991665327
H  H186  1  0.71156000  0.09717000  0.45888000  1.0 0.0991665327
H  H187  1  0.21156000  0.40283000  0.45888000  1.0 0.0991665327
H  H188  1  0.28844000  0.90283000  0.54112000  1.0 0.0991665327
H  H189  1  0.78311000  0.53174000  0.61787000  1.0 0.0892436525
H  H190  1  0.71689000  0.03174000  0.38213000  1.0 0.0892436525
H  H191  1  0.21689000  0.46826000  0.38213000  1.0 0.0892436525
H  H192  1  0.28311000  0.96826000  0.61787000  1.0 0.0892436525
H  H193  1  0.78987000  0.46213000  0.55492000  1.0 0.0892436525
H  H194  1  0.71013000  0.96213000  0.44508000  1.0 0.0892436525
H  H195  1  0.21013000  0.53787000  0.44508000  1.0 0.0892436525
H  H196  1  0.28987000  0.03787000  0.55492000  1.0 0.0892436525
H  H197  1  0.82515000  0.43826000  0.18423000  1.0 0.1202051757
H  H198  1  0.67485000  0.93826000  0.81577000  1.0 0.1202051757
H  H199  1  0.17485000  0.56174000  0.81577000  1.0 0.1202051757
H  H200  1  0.32515000  0.06174000  0.18423000  1.0 0.1202051757
H  H201  1  0.83788000  0.36265000  0.22077000  1.0 0.0892436525
H  H202  1  0.66212000  0.86265000  0.77923000  1.0 0.0892436525
H  H203  1  0.16212000  0.63735000  0.77923000  1.0 0.0892436525
H  H204  1  0.33788000  0.13735000  0.22077000  1.0 0.0892436525
H  H205  1  0.83489000  0.34034000  0.35724000  1.0 0.0794109347
H  H206  1  0.66511000  0.84034000  0.64276000  1.0 0.0794109347
H  H207  1  0.16511000  0.65966000  0.64276000  1.0 0.0794109347
H  H208  1  0.33489000  0.15966000  0.35724000  1.0 0.0794109347
H  H209  1  0.81916000  0.39363000  0.45717000  1.0 0.0991665327
H  H210  1  0.68084000  0.89363000  0.54283000  1.0 0.0991665327
H  H211  1  0.18084000  0.60637000  0.54283000  1.0 0.0991665327
H  H212  1  0.31916000  0.10637000  0.45717000  1.0 0.0991665327
H  H213  1  0.69542000  0.29808000  0.31626000  1.0 0.0794109347
H  H214  1  0.80458000  0.79808000  0.68374000  1.0 0.0794109347
H  H215  1  0.30458000  0.70192000  0.68374000  1.0 0.0794109347
H  H216  1  0.19542000  0.20192000  0.31626000  1.0 0.0794109347
H  H217  1  0.62892000  0.33856000  0.30846000  1.0 0.0892436525
H  H218  1  0.87108000  0.83856000  0.69154000  1.0 0.0892436525
H  H219  1  0.37108000  0.66144000  0.69154000  1.0 0.0892436525
H  H220  1  0.12892000  0.16144000  0.30846000  1.0 0.0892436525
H  H221  1  0.64121000  0.31351000  0.22562000  1.0 0.1202051757
H  H222  1  0.85879000  0.81351000  0.77438000  1.0 0.1202051757
H  H223  1  0.35879000  0.68649000  0.77438000  1.0 0.1202051757
H  H224  1  0.14121000  0.18649000  0.22562000  1.0 0.1202051757
H  H225  1  0.01600000  0.54100000  0.51600000  1.0 0.0991665327
H  H226  1  0.48400000  0.04100000  0.48400000  1.0 0.0991665327
H  H227  1  0.98400000  0.45900000  0.48400000  1.0 0.0991665327
H  H228  1  0.51600000  0.95900000  0.51600000  1.0 0.0991665327
H  H229  1  0.02100000  0.48100000  0.42400000  1.0 0.0794109347
H  H230  1  0.47900000  0.98100000  0.57600000  1.0 0.0794109347
H  H231  1  0.97900000  0.51900000  0.57600000  1.0 0.0794109347
H  H232  1  0.52100000  0.01900000  0.42400000  1.0 0.0794109347
H  H233  1  0.92795000  0.42263000  0.41124000  1.0 0.1202051757
H  H234  1  0.57205000  0.92263000  0.58876000  1.0 0.1202051757
H  H235  1  0.07205000  0.57737000  0.58876000  1.0 0.1202051757
H  H236  1  0.42795000  0.07737000  0.41124000  1.0 0.1202051757
H  H237  1  0.88400000  0.55570000  0.55400000  1.0 0.0991665327
H  H238  1  0.61600000  0.05570000  0.44600000  1.0 0.0991665327
H  H239  1  0.11600000  0.44430000  0.44600000  1.0 0.0991665327
H  H240  1  0.38400000  0.94430000  0.55400000  1.0 0.0991665327
H  H241  1  0.74640000  0.55337000  0.59592000  1.0 0.0892436525
H  H242  1  0.75360000  0.05337000  0.40408000  1.0 0.0892436525
H  H243  1  0.25360000  0.44663000  0.40408000  1.0 0.0892436525
H  H244  1  0.24640000  0.94663000  0.59592000  1.0 0.0892436525
H  H245  1  0.59027000  0.42090000  0.49793000  1.0 0.0991665327
H  H246  1  0.90973000  0.92090000  0.50207000  1.0 0.0991665327
H  H247  1  0.40973000  0.57910000  0.50207000  1.0 0.0991665327
H  H248  1  0.09027000  0.07910000  0.49793000  1.0 0.0991665327
H  H249  1  0.54150000  0.47552000  0.57172000  1.0 0.0892436525
H  H250  1  0.95850000  0.97552000  0.42828000  1.0 0.0892436525
H  H251  1  0.45850000  0.52448000  0.42828000  1.0 0.0892436525
H  H252  1  0.04150000  0.02448000  0.57172000  1.0 0.0892436525
H  H253  1  0.60707000  0.53773000  0.63004000  1.0 0.1095744802
H  H254  1  0.89293000  0.03773000  0.36996000  1.0 0.1095744802
H  H255  1  0.39293000  0.46227000  0.36996000  1.0 0.1095744802
H  H256  1  0.10707000  0.96227000  0.63004000  1.0 0.1095744802
C  C1  1  0.82600000  0.34220000  0.28500000  1.0 -0.1517212432
C  C2  1  0.67400000  0.84220000  0.71500000  1.0 -0.1517212432
C  C3  1  0.17400000  0.65780000  0.71500000  1.0 -0.1517212432
C  C4  1  0.32600000  0.15780000  0.28500000  1.0 -0.1517212432
C  C5  1  0.62940000  0.30080000  0.37530000  1.0 -0.1418339437
C  C6  1  0.87060000  0.80080000  0.62470000  1.0 -0.1418339437
C  C7  1  0.37060000  0.69920000  0.62470000  1.0 -0.1418339437
C  C8  1  0.12940000  0.19920000  0.37530000  1.0 -0.1418339437
C  C9  1  0.69210000  0.67894000  0.58560000  1.0 -0.0305946352
C  C10  1  0.80790000  0.17894000  0.41440000  1.0 -0.0305946352
C  C11  1  0.30790000  0.32106000  0.41440000  1.0 -0.0305946352
C  C12  1  0.19210000  0.82106000  0.58560000  1.0 -0.0305946352
C  C13  1  0.72670000  0.69764000  0.67300000  1.0 0.6008789552
C  C14  1  0.77330000  0.19764000  0.32700000  1.0 0.6008789552
C  C15  1  0.27330000  0.30236000  0.32700000  1.0 0.6008789552
C  C16  1  0.22670000  0.80236000  0.67300000  1.0 0.6008789552
C  C17  1  0.10070000  0.71267000  0.93490000  1.0 -0.0305946352
C  C18  1  0.39930000  0.21267000  0.06510000  1.0 -0.0305946352
C  C19  1  0.89930000  0.28733000  0.06510000  1.0 -0.0305946352
C  C20  1  0.60070000  0.78733000  0.93490000  1.0 -0.0305946352
C  C21  1  0.58870000  0.63049000  0.33770000  1.0 0.0991665327
C  C22  1  0.91130000  0.13049000  0.66230000  1.0 0.0991665327
C  C23  1  0.41130000  0.36951000  0.66230000  1.0 0.0991665327
C  C24  1  0.08870000  0.86951000  0.33770000  1.0 0.0991665327
C  C25  1  0.56420000  0.65967000  0.27030000  1.0 -0.1925936701
C  C26  1  0.93580000  0.15967000  0.72970000  1.0 -0.1925936701
C  C27  1  0.43580000  0.34033000  0.72970000  1.0 -0.1925936701
C  C28  1  0.06420000  0.84033000  0.27030000  1.0 -0.1925936701
C  C29  1  0.50880000  0.52100000  0.23300000  1.0 0.0892436525
C  C30  1  0.99120000  0.02100000  0.76700000  1.0 0.0892436525
C  C31  1  0.49120000  0.47900000  0.76700000  1.0 0.0892436525
C  C32  1  0.00880000  0.97900000  0.23300000  1.0 0.0892436525
C  C33  1  0.62540000  0.64711000  0.42360000  1.0 0.0892436525
C  C34  1  0.87460000  0.14711000  0.57640000  1.0 0.0892436525
C  C35  1  0.37460000  0.35289000  0.57640000  1.0 0.0892436525
C  C36  1  0.12540000  0.85289000  0.42360000  1.0 0.0892436525
C  C37  1  0.12240000  0.37338000  0.20610000  1.0 0.6008789552
C  C38  1  0.37760000  0.87338000  0.79390000  1.0 0.6008789552
C  C39  1  0.87760000  0.62662000  0.79390000  1.0 0.6008789552
C  C40  1  0.62240000  0.12662000  0.20610000  1.0 0.6008789552
C  C41  1  0.53270000  0.56815000  0.24520000  1.0 0.0727103732
C  C42  1  0.96730000  0.06815000  0.75480000  1.0 0.0727103732
C  C43  1  0.46730000  0.43185000  0.75480000  1.0 0.0727103732
C  C44  1  0.03270000  0.93185000  0.24520000  1.0 0.0727103732
C  C45  1  0.41260000  0.72657000  0.98010000  1.0 -0.0305946352
C  C46  1  0.08740000  0.22657000  0.01990000  1.0 -0.0305946352
C  C47  1  0.58740000  0.27343000  0.01990000  1.0 -0.0305946352
C  C48  1  0.91260000  0.77343000  0.98010000  1.0 -0.0305946352
C  C49  1  0.00450000  0.72013000  0.59220000  1.0 0.561747299
C  C50  1  0.49550000  0.22013000  0.40780000  1.0 0.561747299
C  C51  1  0.99550000  0.27987000  0.40780000  1.0 0.561747299
C  C52  1  0.50450000  0.77987000  0.59220000  1.0 0.561747299
C  C53  1  0.11210000  0.42209000  0.21260000  1.0 -0.0391314194
C  C54  1  0.38790000  0.92209000  0.78740000  1.0 -0.0391314194
C  C55  1  0.88790000  0.57791000  0.78740000  1.0 -0.0391314194
C  C56  1  0.61210000  0.07791000  0.21260000  1.0 -0.0391314194
C  C57  1  0.07210000  0.66905000  0.92720000  1.0 -0.0908720353
C  C58  1  0.42790000  0.16905000  0.07280000  1.0 -0.0908720353
C  C59  1  0.92790000  0.33095000  0.07280000  1.0 -0.0908720353
C  C60  1  0.57210000  0.83095000  0.92720000  1.0 -0.0908720353
C  C61  1  0.50930000  0.66726000  0.03950000  1.0 -0.1418339437
C  C62  1  0.99070000  0.16726000  0.96050000  1.0 -0.1418339437
C  C63  1  0.49070000  0.33274000  0.96050000  1.0 -0.1418339437
C  C64  1  0.00930000  0.83274000  0.03950000  1.0 -0.1418339437
C  C65  1  0.45400000  0.43158000  0.21550000  1.0 -0.0305946352
C  C66  1  0.04600000  0.93158000  0.78450000  1.0 -0.0305946352
C  C67  1  0.54600000  0.56842000  0.78450000  1.0 -0.0305946352
C  C68  1  0.95400000  0.06842000  0.21550000  1.0 -0.0305946352
C  C69  1  0.43020000  0.50918000  0.17870000  1.0 -0.1610378477
C  C70  1  0.06980000  0.00918000  0.82130000  1.0 -0.1610378477
C  C71  1  0.56980000  0.49082000  0.82130000  1.0 -0.1610378477
C  C72  1  0.93020000  0.99082000  0.17870000  1.0 -0.1610378477
C  C73  1  0.05190000  0.44131000  0.25100000  1.0 -0.1190405642
C  C74  1  0.44810000  0.94131000  0.74900000  1.0 -0.1190405642
C  C75  1  0.94810000  0.55869000  0.74900000  1.0 -0.1190405642
C  C76  1  0.55190000  0.05869000  0.25100000  1.0 -0.1190405642
C  C77  1  0.49110000  0.67434000  0.11790000  1.0 0.0727103732
C  C78  1  0.00890000  0.17434000  0.88210000  1.0 0.0727103732
C  C79  1  0.50890000  0.32566000  0.88210000  1.0 0.0727103732
C  C80  1  0.99110000  0.82566000  0.11790000  1.0 0.0727103732
C  C81  1  0.08960000  0.74028000  0.85760000  1.0 0.5812350227
C  C82  1  0.41040000  0.24028000  0.14240000  1.0 0.5812350227
C  C83  1  0.91040000  0.25972000  0.14240000  1.0 0.5812350227
C  C84  1  0.58960000  0.75972000  0.85760000  1.0 0.5812350227
C  C85  1  0.09680000  0.51542000  0.22180000  1.0 0.0892436525
C  C86  1  0.40320000  0.01542000  0.77820000  1.0 0.0892436525
C  C87  1  0.90320000  0.48458000  0.77820000  1.0 0.0892436525
C  C88  1  0.59680000  0.98458000  0.22180000  1.0 0.0892436525
C  C89  1  0.37160000  0.75463000  0.90620000  1.0 0.6008789552
C  C90  1  0.12840000  0.25463000  0.09380000  1.0 0.6008789552
C  C91  1  0.62840000  0.24537000  0.09380000  1.0 0.6008789552
C  C92  1  0.87160000  0.74537000  0.90620000  1.0 0.6008789552
C  C93  1  0.40380000  0.46517000  0.16950000  1.0 -0.079895659
C  C94  1  0.09620000  0.96517000  0.83050000  1.0 -0.079895659
C  C95  1  0.59620000  0.53483000  0.83050000  1.0 -0.079895659
C  C96  1  0.90380000  0.03483000  0.16950000  1.0 -0.079895659
C  C97  1  0.01670000  0.69779000  0.51430000  1.0 -0.0391314194
C  C98  1  0.48330000  0.19779000  0.48570000  1.0 -0.0391314194
C  C99  1  0.98330000  0.30221000  0.48570000  1.0 -0.0391314194
C  C100  1  0.51670000  0.80221000  0.51430000  1.0 -0.0391314194
C  C101  1  0.53290000  0.44338000  0.26840000  1.0 -0.1304379391
C  C102  1  0.96710000  0.94338000  0.73160000  1.0 -0.1304379391
C  C103  1  0.46710000  0.55662000  0.73160000  1.0 -0.1304379391
C  C104  1  0.03290000  0.05662000  0.26840000  1.0 -0.1304379391
C  C105  1  0.16470000  0.45061000  0.18010000  1.0 -0.079895659
C  C106  1  0.33530000  0.95061000  0.81990000  1.0 -0.079895659
C  C107  1  0.83530000  0.54939000  0.81990000  1.0 -0.079895659
C  C108  1  0.66470000  0.04939000  0.18010000  1.0 -0.079895659
C  C109  1  0.12790000  0.70627000  0.08540000  1.0 -0.1517212432
C  C110  1  0.37210000  0.20627000  0.91460000  1.0 -0.1517212432
C  C111  1  0.87210000  0.29373000  0.91460000  1.0 -0.1517212432
C  C112  1  0.62790000  0.79373000  0.08540000  1.0 -0.1517212432
C  C113  1  0.15740000  0.49613000  0.18440000  1.0 -0.1517212432
C  C114  1  0.34260000  0.99613000  0.81560000  1.0 -0.1517212432
C  C115  1  0.84260000  0.50387000  0.81560000  1.0 -0.1517212432
C  C116  1  0.65740000  0.00387000  0.18440000  1.0 -0.1517212432
C  C117  1  0.62500000  0.64964000  0.57010000  1.0 -0.1190405642
C  C118  1  0.87500000  0.14964000  0.42990000  1.0 -0.1190405642
C  C119  1  0.37500000  0.35036000  0.42990000  1.0 -0.1190405642
C  C120  1  0.12500000  0.85036000  0.57010000  1.0 -0.1190405642
C  C121  1  0.42220000  0.38473000  0.20950000  1.0 0.5866578532
C  C122  1  0.07780000  0.88473000  0.79050000  1.0 0.5866578532
C  C123  1  0.57780000  0.61527000  0.79050000  1.0 0.5866578532
C  C124  1  0.92220000  0.11527000  0.20950000  1.0 0.5866578532
C  C125  1  0.51040000  0.59816000  0.17850000  1.0 -0.1992398897
C  C126  1  0.98960000  0.09816000  0.82150000  1.0 -0.1992398897
C  C127  1  0.48960000  0.40184000  0.82150000  1.0 -0.1992398897
C  C128  1  0.01040000  0.90184000  0.17850000  1.0 -0.1992398897
C  C129  1  0.13090000  0.73132000  0.01470000  1.0 -0.0908720353
C  C130  1  0.36910000  0.23132000  0.98530000  1.0 -0.0908720353
C  C131  1  0.86910000  0.26868000  0.98530000  1.0 -0.0908720353
C  C132  1  0.63090000  0.76868000  0.01470000  1.0 -0.0908720353
C  C133  1  0.52430000  0.64393000  0.19040000  1.0 0.0892436525
C  C134  1  0.97570000  0.14393000  0.80960000  1.0 0.0892436525
C  C135  1  0.47570000  0.35607000  0.80960000  1.0 0.0892436525
C  C136  1  0.02430000  0.85607000  0.19040000  1.0 0.0892436525
C  C137  1  0.72940000  0.69109000  0.52170000  1.0 -0.0908720353
C  C138  1  0.77060000  0.19109000  0.47830000  1.0 -0.0908720353
C  C139  1  0.27060000  0.30891000  0.47830000  1.0 -0.0908720353
C  C140  1  0.22940000  0.80891000  0.52170000  1.0 -0.0908720353
C  C141  1  0.47090000  0.69362000  0.97120000  1.0 -0.0908720353
C  C142  1  0.02910000  0.19362000  0.02880000  1.0 -0.0908720353
C  C143  1  0.52910000  0.30638000  0.02880000  1.0 -0.0908720353
C  C144  1  0.97090000  0.80638000  0.97120000  1.0 -0.0908720353
C  C145  1  0.06900000  0.64451000  0.99920000  1.0 -0.1418339437
C  C146  1  0.43100000  0.14451000  0.00080000  1.0 -0.1418339437
C  C147  1  0.93100000  0.35549000  0.00080000  1.0 -0.1418339437
C  C148  1  0.56900000  0.85549000  0.99920000  1.0 -0.1418339437
C  C149  1  0.57190000  0.58481000  0.32400000  1.0 -0.2436683724
C  C150  1  0.92810000  0.08481000  0.67600000  1.0 -0.2436683724
C  C151  1  0.42810000  0.41519000  0.67600000  1.0 -0.2436683724
C  C152  1  0.07190000  0.91519000  0.32400000  1.0 -0.2436683724
C  C153  1  0.09470000  0.66271000  0.07760000  1.0 0.0727103732
C  C154  1  0.40530000  0.16271000  0.92240000  1.0 0.0727103732
C  C155  1  0.90530000  0.33729000  0.92240000  1.0 0.0727103732
C  C156  1  0.59470000  0.83729000  0.07760000  1.0 0.0727103732
C  C157  1  0.04410000  0.48648000  0.25560000  1.0 -0.1666696122
C  C158  1  0.45590000  0.98648000  0.74440000  1.0 -0.1610378477
C  C159  1  0.95590000  0.51352000  0.74440000  1.0 -0.1666696122
C  C160  1  0.54410000  0.01352000  0.25560000  1.0 -0.1666696122
C  C161  1  0.06110000  0.63283000  0.29450000  1.0 0.0991665327
C  C162  1  0.43890000  0.13283000  0.70550000  1.0 0.0991665327
C  C163  1  0.93890000  0.36717000  0.70550000  1.0 0.0991665327
C  C164  1  0.56110000  0.86717000  0.29450000  1.0 0.0991665327
C  C165  1  0.06810000  0.58632000  0.29320000  1.0 -0.259018025
C  C166  1  0.43190000  0.08632000  0.70680000  1.0 -0.259018025
C  C167  1  0.93190000  0.41368000  0.70680000  1.0 -0.259018025
C  C168  1  0.56810000  0.91368000  0.29320000  1.0 -0.259018025
C  C169  1  0.09560000  0.59020000  0.15470000  1.0 -0.2134589316
C  C170  1  0.40440000  0.09020000  0.84530000  1.0 -0.2134589316
C  C171  1  0.90440000  0.40980000  0.84530000  1.0 -0.2134589316
C  C172  1  0.59560000  0.90980000  0.15470000  1.0 -0.2134589316
C  C173  1  0.69490000  0.67623000  0.43980000  1.0 -0.1304379391
C  C174  1  0.80510000  0.17623000  0.56020000  1.0 -0.1304379391
C  C175  1  0.30510000  0.32377000  0.56020000  1.0 -0.1304379391
C  C176  1  0.19490000  0.82377000  0.43980000  1.0 -0.1304379391
C  C177  1  0.07040000  0.65733000  0.22510000  1.0 -0.1992398897
C  C178  1  0.42960000  0.15733000  0.77490000  1.0 -0.1992398897
C  C179  1  0.92960000  0.34267000  0.77490000  1.0 -0.1992398897
C  C180  1  0.57040000  0.84267000  0.22510000  1.0 -0.1992398897
C  C181  1  0.55940000  0.48700000  0.27640000  1.0 -0.1517212432
C  C182  1  0.94060000  0.98700000  0.72360000  1.0 -0.1517212432
C  C183  1  0.44060000  0.51300000  0.72360000  1.0 -0.1517212432
C  C184  1  0.05940000  0.01300000  0.27640000  1.0 -0.1517212432
C  C185  1  0.08740000  0.63677000  0.15390000  1.0 0.0991665327
C  C186  1  0.41260000  0.13677000  0.84610000  1.0 0.0991665327
C  C187  1  0.91260000  0.36323000  0.84610000  1.0 0.0991665327
C  C188  1  0.58740000  0.86323000  0.15390000  1.0 0.0991665327
C  C189  1  0.08660000  0.56461000  0.22300000  1.0 0.0794109347
C  C190  1  0.41340000  0.06461000  0.77700000  1.0 0.0794109347
C  C191  1  0.91340000  0.43539000  0.77700000  1.0 0.0794109347
C  C192  1  0.58660000  0.93539000  0.22300000  1.0 0.0794109347
C  C193  1  0.97770000  0.65780000  0.48790000  1.0 -0.0908720353
C  C194  1  0.52230000  0.15780000  0.51210000  1.0 -0.0908720353
C  C195  1  0.02230000  0.34220000  0.51210000  1.0 -0.0908720353
C  C196  1  0.47770000  0.84220000  0.48790000  1.0 -0.1003627299
C  C197  1  0.04410000  0.65574000  0.37010000  1.0 0.0892436525
C  C198  1  0.45590000  0.15574000  0.62990000  1.0 0.0892436525
C  C199  1  0.95590000  0.34426000  0.62990000  1.0 0.0892436525
C  C200  1  0.54410000  0.84426000  0.37010000  1.0 0.0892436525
C  C201  1  0.59330000  0.63328000  0.48940000  1.0 -0.1517212432
C  C202  1  0.90670000  0.13328000  0.51060000  1.0 -0.1517212432
C  C203  1  0.40670000  0.36672000  0.51060000  1.0 -0.1517212432
C  C204  1  0.09330000  0.86672000  0.48940000  1.0 -0.1517212432
C  C205  1  0.99160000  0.63725000  0.41650000  1.0 -0.1418339437
C  C206  1  0.50840000  0.13725000  0.58350000  1.0 -0.1418339437
C  C207  1  0.00840000  0.36275000  0.58350000  1.0 -0.1418339437
C  C208  1  0.49160000  0.86275000  0.41650000  1.0 -0.1418339437
C  C209  1  0.06910000  0.71758000  0.46750000  1.0 -0.1003627299
C  C210  1  0.43090000  0.21758000  0.53250000  1.0 -0.1003627299
C  C211  1  0.93090000  0.28242000  0.53250000  1.0 -0.1003627299
C  C212  1  0.56910000  0.78242000  0.46750000  1.0 -0.1003627299
C  C213  1  0.43490000  0.70849000  0.12670000  1.0 -0.1517212432
C  C214  1  0.06510000  0.20849000  0.87330000  1.0 -0.1517212432
C  C215  1  0.56510000  0.29151000  0.87330000  1.0 -0.1517212432
C  C216  1  0.93490000  0.79151000  0.12670000  1.0 -0.1517212432
C  C217  1  0.39520000  0.73360000  0.05780000  1.0 -0.0908720353
C  C218  1  0.10480000  0.23360000  0.94220000  1.0 -0.0908720353
C  C219  1  0.60480000  0.26640000  0.94220000  1.0 -0.0908720353
C  C220  1  0.89520000  0.76640000  0.05780000  1.0 -0.0908720353
C  C221  1  0.08270000  0.69630000  0.39660000  1.0 -0.1517212432
C  C222  1  0.41730000  0.19630000  0.60340000  1.0 -0.1517212432
C  C223  1  0.91730000  0.30370000  0.60340000  1.0 -0.1517212432
C  C224  1  0.58270000  0.80370000  0.39660000  1.0 -0.1517212432
C  C225  1  0.67600000  0.39250000  0.70830000  1.0 -0.0646066503
C  C226  1  0.82400000  0.89250000  0.29170000  1.0 -0.0646066503
C  C227  1  0.32400000  0.60750000  0.29170000  1.0 -0.0646066503
C  C228  1  0.17600000  0.10750000  0.70830000  1.0 -0.0646066503
C  C229  1  0.69190000  0.30840000  0.68760000  1.0 -0.2303393793
C  C230  1  0.80810000  0.80840000  0.31240000  1.0 -0.2303393793
C  C231  1  0.30810000  0.69160000  0.31240000  1.0 -0.2303393793
C  C232  1  0.19190000  0.19160000  0.68760000  1.0 -0.2303393793
C  C233  1  0.67110000  0.27700000  0.62350000  1.0 -0.0469764123
C  C234  1  0.82890000  0.77700000  0.37650000  1.0 -0.0469764123
C  C235  1  0.32890000  0.72300000  0.37650000  1.0 -0.0469764123
C  C236  1  0.17110000  0.22300000  0.62350000  1.0 -0.0469764123
C  C237  1  0.63730000  0.29070000  0.54110000  1.0 -0.1418339437
C  C238  1  0.86270000  0.79070000  0.45890000  1.0 -0.1418339437
C  C239  1  0.36270000  0.70930000  0.45890000  1.0 -0.1418339437
C  C240  1  0.13730000  0.20930000  0.54110000  1.0 -0.1418339437
C  C241  1  0.62430000  0.33580000  0.52290000  1.0 -0.1003627299
C  C242  1  0.87570000  0.83580000  0.47710000  1.0 -0.1003627299
C  C243  1  0.37570000  0.66420000  0.47710000  1.0 -0.1003627299
C  C244  1  0.12430000  0.16420000  0.52290000  1.0 -0.1003627299
C  C245  1  0.64510000  0.36720000  0.58700000  1.0 -0.1517212432
C  C246  1  0.85490000  0.86720000  0.41300000  1.0 -0.1517212432
C  C247  1  0.35490000  0.63280000  0.41300000  1.0 -0.1517212432
C  C248  1  0.14510000  0.13280000  0.58700000  1.0 -0.1517212432
C  C249  1  0.67890000  0.35350000  0.66930000  1.0 0.0228174337
C  C250  1  0.82110000  0.85350000  0.33070000  1.0 0.0228174337
C  C251  1  0.32110000  0.64650000  0.33070000  1.0 0.0228174337
C  C252  1  0.17890000  0.14650000  0.66930000  1.0 0.0228174337
C  C253  1  0.62700000  0.41770000  0.56600000  1.0 -0.079895659
C  C254  1  0.87300000  0.91770000  0.43400000  1.0 -0.079895659
C  C255  1  0.37300000  0.58230000  0.43400000  1.0 -0.079895659
C  C256  1  0.12700000  0.08230000  0.56600000  1.0 -0.079895659
C  C257  1  0.64180000  0.44730000  0.63340000  1.0 -0.1418339437
C  C258  1  0.85820000  0.94730000  0.36660000  1.0 -0.1418339437
C  C259  1  0.35820000  0.55270000  0.36660000  1.0 -0.1418339437
C  C260  1  0.14180000  0.05270000  0.63340000  1.0 -0.1418339437
C  C261  1  0.61020000  0.49060000  0.62180000  1.0 -0.079895659
C  C262  1  0.88980000  0.99060000  0.37820000  1.0 -0.079895659
C  C263  1  0.38980000  0.50940000  0.37820000  1.0 -0.079895659
C  C264  1  0.11020000  0.00940000  0.62180000  1.0 -0.079895659
C  C265  1  0.56400000  0.50430000  0.54300000  1.0 -0.0391314194
C  C266  1  0.93600000  0.00430000  0.45700000  1.0 -0.0391314194
C  C267  1  0.43600000  0.49570000  0.45700000  1.0 -0.0391314194
C  C268  1  0.06400000  0.99570000  0.54300000  1.0 -0.0391314194
C  C269  1  0.54920000  0.47470000  0.47570000  1.0 -0.0691307715
C  C270  1  0.95080000  0.97470000  0.52430000  1.0 -0.0691307715
C  C271  1  0.45080000  0.52530000  0.52430000  1.0 -0.0691307715
C  C272  1  0.04920000  0.02530000  0.47570000  1.0 -0.0646066503
C  C273  1  0.58070000  0.43140000  0.48720000  1.0 0.0487764719
C  C274  1  0.91930000  0.93140000  0.51280000  1.0 0.0487764719
C  C275  1  0.41930000  0.56860000  0.51280000  1.0 0.0487764719
C  C276  1  0.08070000  0.06860000  0.48720000  1.0 0.0487764719
C  C277  1  0.79840000  0.56640000  0.43260000  1.0 -0.2303393793
C  C278  1  0.70160000  0.06640000  0.56740000  1.0 -0.2303393793
C  C279  1  0.20160000  0.43360000  0.56740000  1.0 -0.2303393793
C  C280  1  0.29840000  0.93360000  0.43260000  1.0 -0.2303393793
C  C281  1  0.79120000  0.56890000  0.51560000  1.0 -0.1666696122
C  C282  1  0.70880000  0.06890000  0.48440000  1.0 -0.1666696122
C  C283  1  0.20880000  0.43110000  0.48440000  1.0 -0.1666696122
C  C284  1  0.29120000  0.93110000  0.51560000  1.0 -0.1666696122
C  C285  1  0.78800000  0.53000000  0.56120000  1.0 -0.0305946352
C  C286  1  0.71200000  0.03000000  0.43880000  1.0 -0.0305946352
C  C287  1  0.21200000  0.47000000  0.43880000  1.0 -0.0305946352
C  C288  1  0.28800000  0.97000000  0.56120000  1.0 -0.0305946352
C  C289  1  0.79200000  0.48870000  0.52380000  1.0 0.0228174337
C  C290  1  0.70800000  0.98870000  0.47620000  1.0 0.0228174337
C  C291  1  0.20800000  0.51130000  0.47620000  1.0 0.0228174337
C  C292  1  0.29200000  0.01130000  0.52380000  1.0 0.0228174337
C  C293  1  0.79920000  0.48620000  0.44080000  1.0 0.0023386757
C  C294  1  0.70080000  0.98620000  0.55920000  1.0 0.0023386757
C  C295  1  0.20080000  0.51380000  0.55920000  1.0 0.0023386757
C  C296  1  0.29920000  0.01380000  0.44080000  1.0 0.0023386757
C  C297  1  0.80240000  0.52510000  0.39520000  1.0 -0.0691307715
C  C298  1  0.69760000  0.02510000  0.60480000  1.0 -0.0691307715
C  C299  1  0.19760000  0.47490000  0.60480000  1.0 -0.0691307715
C  C300  1  0.30240000  0.97490000  0.39520000  1.0 -0.0691307715
C  C301  1  0.81460000  0.46090000  0.29900000  1.0 -0.0691307715
C  C302  1  0.68540000  0.96090000  0.70100000  1.0 -0.0691307715
C  C303  1  0.18540000  0.53910000  0.70100000  1.0 -0.0691307715
C  C304  1  0.31460000  0.03910000  0.29900000  1.0 -0.0691307715
C  C305  1  0.82390000  0.42920000  0.23960000  1.0 -0.2878607275
C  C306  1  0.67610000  0.92920000  0.76040000  1.0 -0.2878607275
C  C307  1  0.17610000  0.57080000  0.76040000  1.0 -0.2878607275
C  C308  1  0.32390000  0.07080000  0.23960000  1.0 -0.2878607275
C  C309  1  0.83150000  0.38430000  0.26130000  1.0 0.0487764719
C  C310  1  0.66850000  0.88430000  0.73870000  1.0 0.0487764719
C  C311  1  0.16850000  0.61570000  0.73870000  1.0 0.0487764719
C  C312  1  0.33150000  0.11570000  0.26130000  1.0 0.0487764719
C  C313  1  0.82970000  0.37100000  0.34240000  1.0 -0.0691307715
C  C314  1  0.67030000  0.87100000  0.65760000  1.0 -0.0691307715
C  C315  1  0.17030000  0.62900000  0.65760000  1.0 -0.0691307715
C  C316  1  0.32970000  0.12900000  0.34240000  1.0 -0.0691307715
C  C317  1  0.82040000  0.40270000  0.40180000  1.0 -0.1610378477
C  C318  1  0.67960000  0.90270000  0.59820000  1.0 -0.1610378477
C  C319  1  0.17960000  0.59730000  0.59820000  1.0 -0.1610378477
C  C320  1  0.32040000  0.09730000  0.40180000  1.0 -0.1610378477
C  C321  1  0.81280000  0.44760000  0.38010000  1.0 0.059693463
C  C322  1  0.68720000  0.94760000  0.61990000  1.0 0.059693463
C  C323  1  0.18720000  0.55240000  0.61990000  1.0 0.059693463
C  C324  1  0.31280000  0.05240000  0.38010000  1.0 0.059693463
C  C325  1  0.64000000  0.30970000  0.28490000  1.0 -0.0908720353
C  C326  1  0.86000000  0.80970000  0.71510000  1.0 -0.0908720353
C  C327  1  0.36000000  0.69030000  0.71510000  1.0 -0.0908720353
C  C328  1  0.14000000  0.19030000  0.28490000  1.0 -0.0908720353
C  C329  1  0.96900000  0.51970000  0.49870000  1.0 -0.0469764123
C  C330  1  0.53100000  0.01970000  0.50130000  1.0 -0.0469764123
C  C331  1  0.03100000  0.48030000  0.50130000  1.0 -0.0469764123
C  C332  1  0.46900000  0.98030000  0.49870000  1.0 -0.0469764123
C  C333  1  0.97700000  0.47900000  0.45570000  1.0 -0.079895659
C  C334  1  0.52300000  0.97900000  0.54430000  1.0 -0.079895659
C  C335  1  0.02300000  0.52100000  0.54430000  1.0 -0.079895659
C  C336  1  0.47700000  0.02100000  0.45570000  1.0 -0.079895659
C  C337  1  0.91980000  0.44910000  0.44030000  1.0 -0.2303393793
C  C338  1  0.58020000  0.94910000  0.55970000  1.0 -0.2303393793
C  C339  1  0.08020000  0.55090000  0.55970000  1.0 -0.2303393793
C  C340  1  0.41980000  0.05090000  0.44030000  1.0 -0.2303393793
C  C341  1  0.89580000  0.52900000  0.52540000  1.0 -0.1992398897
C  C342  1  0.60420000  0.02900000  0.47460000  1.0 -0.1992398897
C  C343  1  0.10420000  0.47100000  0.47460000  1.0 -0.1992398897
C  C344  1  0.39580000  0.97100000  0.52540000  1.0 -0.1992398897
C  C345  1  0.82780000  0.49420000  0.50930000  1.0 0.0404391041
C  C346  1  0.67220000  0.99420000  0.49070000  1.0 0.0404391041
C  C347  1  0.17220000  0.50580000  0.49070000  1.0 0.0404391041
C  C348  1  0.32780000  0.00580000  0.50930000  1.0 0.0404391041
C  C349  1  0.84120000  0.45650000  0.46820000  1.0 0.0404391041
C  C350  1  0.65880000  0.95650000  0.53180000  1.0 0.0404391041
C  C351  1  0.15880000  0.54350000  0.53180000  1.0 0.0404391041
C  C352  1  0.34120000  0.04350000  0.46820000  1.0 0.0404391041
C  C353  1  0.71460000  0.52690000  0.57810000  1.0 -0.1418339437
C  C354  1  0.78540000  0.02690000  0.42190000  1.0 -0.1418339437
C  C355  1  0.28540000  0.47310000  0.42190000  1.0 -0.1418339437
C  C356  1  0.21460000  0.97310000  0.57810000  1.0 -0.1418339437
C  C357  1  0.74400000  0.49420000  0.53250000  1.0 0.011189422
C  C358  1  0.75600000  0.99420000  0.46750000  1.0 0.011189422
C  C359  1  0.25600000  0.50580000  0.46750000  1.0 0.011189422
C  C360  1  0.24400000  0.00580000  0.53250000  1.0 0.011189422
C  C361  1  0.70340000  0.45350000  0.50500000  1.0 -0.1517212432
C  C362  1  0.79660000  0.95350000  0.49500000  1.0 -0.1517212432
C  C363  1  0.29660000  0.54650000  0.49500000  1.0 -0.1517212432
C  C364  1  0.20340000  0.04650000  0.50500000  1.0 -0.1517212432
C  C365  1  0.62400000  0.44650000  0.51790000  1.0 -0.0185456002
C  C366  1  0.87600000  0.94650000  0.48210000  1.0 -0.0185456002
C  C367  1  0.37600000  0.55350000  0.48210000  1.0 -0.0185456002
C  C368  1  0.12400000  0.05350000  0.51790000  1.0 -0.0185456002
C  C369  1  0.59730000  0.48030000  0.56290000  1.0 0.0404391041
C  C370  1  0.90270000  0.98030000  0.43710000  1.0 0.0404391041
C  C371  1  0.40270000  0.51970000  0.43710000  1.0 0.0404391041
C  C372  1  0.09730000  0.01970000  0.56290000  1.0 0.0404391041
C  C373  1  0.63290000  0.51840000  0.59700000  1.0 -0.0691307715
C  C374  1  0.86710000  0.01840000  0.40300000  1.0 -0.0691307715
C  C375  1  0.36710000  0.48160000  0.40300000  1.0 -0.0691307715
C  C376  1  0.13290000  0.98160000  0.59700000  1.0 -0.0691307715
S  S1  1  0.60310000  0.37760000  0.43190000  1.0 -0.1003627299
S  S2  1  0.89690000  0.87760000  0.56810000  1.0 -0.0908720353
S  S3  1  0.39690000  0.62240000  0.56810000  1.0 -0.1003627299
S  S4  1  0.10310000  0.12240000  0.43190000  1.0 -0.1003627299
S  S5  1  0.68470000  0.41000000  0.72030000  1.0 0.059693463
S  S6  1  0.81530000  0.91000000  0.27970000  1.0 0.059693463
S  S7  1  0.31530000  0.59000000  0.27970000  1.0 0.059693463
S  S8  1  0.18470000  0.09000000  0.72030000  1.0 0.059693463
S  S9  1  0.81270000  0.51680000  0.29440000  1.0 0.1288265994
S  S10  1  0.68730000  0.01680000  0.70560000  1.0 0.1288265994
S  S11  1  0.18730000  0.48320000  0.70560000  1.0 0.1288265994
S  S12  1  0.31270000  0.98320000  0.29440000  1.0 0.1288265994
S  S13  1  0.75670000  0.41959000  0.45190000  1.0 0.0404391041
S  S14  1  0.74330000  0.91959000  0.54810000  1.0 0.0404391041
S  S15  1  0.24330000  0.58041000  0.54810000  1.0 0.0404391041
S  S16  1  0.25670000  0.08041000  0.45190000  1.0 0.0404391041
O  O1  1  0.90020000  0.36700000  0.28160000  1.0 -0.1003627299
O  O2  1  0.59980000  0.86700000  0.71840000  1.0 -0.1003627299
O  O3  1  0.09980000  0.63300000  0.71840000  1.0 -0.1003627299
O  O4  1  0.40020000  0.13300000  0.28160000  1.0 -0.1003627299
O  O5  1  0.57760000  0.28084000  0.29080000  1.0 -0.3030598523
O  O6  1  0.92240000  0.78084000  0.70920000  1.0 -0.3030598523
O  O7  1  0.42240000  0.71916000  0.70920000  1.0 -0.3030598523
O  O8  1  0.07760000  0.21916000  0.29080000  1.0 -0.3030598523
O  O9  1  0.68330000  0.69344000  0.72837000  1.0 -0.5816344606
O  O10  1  0.81670000  0.19344000  0.27163000  1.0 -0.5816344606
O  O11  1  0.31670000  0.30656000  0.27163000  1.0 -0.5816344606
O  O12  1  0.18330000  0.80656000  0.72837000  1.0 -0.5816344606
O  O13  1  0.79740000  0.71693000  0.68630000  1.0 -0.5384846168
O  O14  1  0.70260000  0.21693000  0.31370000  1.0 -0.5384846168
O  O15  1  0.20260000  0.28307000  0.31370000  1.0 -0.5384846168
O  O16  1  0.29740000  0.78307000  0.68630000  1.0 -0.5384846168
O  O17  1  0.95280000  0.70200000  0.62980000  1.0 -0.5384846168
O  O18  1  0.54720000  0.20200000  0.37020000  1.0 -0.5384846168
O  O19  1  0.04720000  0.29800000  0.37020000  1.0 -0.5384846168
O  O20  1  0.45280000  0.79800000  0.62980000  1.0 -0.5384846168
O  O21  1  0.29450000  0.76735000  0.90220000  1.0 -0.5895025419
O  O22  1  0.20550000  0.26735000  0.09780000  1.0 -0.5895025419
O  O23  1  0.70550000  0.23265000  0.09780000  1.0 -0.5895025419
O  O24  1  0.79450000  0.73265000  0.90220000  1.0 -0.5895025419
O  O25  1  0.07670000  0.34827000  0.24230000  1.0 -0.5589077857
O  O26  1  0.42330000  0.84827000  0.75770000  1.0 -0.5589077857
O  O27  1  0.92330000  0.65173000  0.75770000  1.0 -0.5589077857
O  O28  1  0.57670000  0.15173000  0.24230000  1.0 -0.5589077857
O  O29  1  0.17310000  0.35898000  0.16560000  1.0 -0.5696375208
O  O30  1  0.32690000  0.85898000  0.83440000  1.0 -0.5696375208
O  O31  1  0.82690000  0.64102000  0.83440000  1.0 -0.5696375208
O  O32  1  0.67310000  0.14102000  0.16560000  1.0 -0.5696375208
O  O33  1  0.35330000  0.37637000  0.15820000  1.0 -0.5696375208
O  O34  1  0.14670000  0.87637000  0.84180000  1.0 -0.5696375208
O  O35  1  0.64670000  0.62363000  0.84180000  1.0 -0.5696375208
O  O36  1  0.85330000  0.12363000  0.15820000  1.0 -0.5696375208
O  O37  1  0.46740000  0.35720000  0.26050000  1.0 -0.5486971474
O  O38  1  0.03260000  0.85720000  0.73950000  1.0 -0.5486971474
O  O39  1  0.53260000  0.64280000  0.73950000  1.0 -0.5486971474
O  O40  1  0.96740000  0.14280000  0.26050000  1.0 -0.5486971474
O  O41  1  0.41370000  0.76370000  0.85320000  1.0 -0.5589077857
O  O42  1  0.08630000  0.26370000  0.14680000  1.0 -0.5589077857
O  O43  1  0.58630000  0.23630000  0.14680000  1.0 -0.5589077857
O  O44  1  0.91370000  0.73630000  0.85320000  1.0 -0.5589077857
O  O45  1  0.04720000  0.75524000  0.61590000  1.0 -0.5486971474
O  O46  1  0.45280000  0.25524000  0.38410000  1.0 -0.5486971474
O  O47  1  0.95280000  0.24476000  0.38410000  1.0 -0.5486971474
O  O48  1  0.54720000  0.74476000  0.61590000  1.0 -0.5486971474
O  O49  1  0.11110000  0.78021000  0.85990000  1.0 -0.5486971474
O  O50  1  0.38890000  0.28021000  0.14010000  1.0 -0.5486971474
O  O51  1  0.88890000  0.21979000  0.14010000  1.0 -0.5486971474
O  O52  1  0.61110000  0.71979000  0.85990000  1.0 -0.5486971474
O  O53  1  0.05330000  0.72309000  0.78620000  1.0 -0.5589077857
O  O54  1  0.44670000  0.22309000  0.21380000  1.0 -0.5589077857
O  O55  1  0.94670000  0.27691000  0.21380000  1.0 -0.5589077857
O  O56  1  0.55330000  0.77691000  0.78620000  1.0 -0.5589077857
O  O57  1  0.69900000  0.36310000  0.78070000  1.0 -0.1925936701
O  O58  1  0.80100000  0.86310000  0.21930000  1.0 -0.1925936701
O  O59  1  0.30100000  0.63690000  0.21930000  1.0 -0.1925936701
O  O60  1  0.19900000  0.13690000  0.78070000  1.0 -0.1925936701
