# DDEC6 charges by PACMAN v1.1 (https://github.com/mtap-research/PACMAN-charge/)
data_KICDEJ_FSR_pacman
_symmetry_space_group_name_H-M   'P 1'
_cell_length_a   16.27330000
_cell_length_b   29.98120000
_cell_length_c   33.35810000
_cell_angle_alpha   90.00000000
_cell_angle_beta   107.01500000
_cell_angle_gamma   90.00000000
_symmetry_Int_Tables_number   1
_chemical_formula_structural   Fe12H87C123N3O29
_chemical_formula_sum   'Fe48 H348 C492 N12 O116'
_cell_volume   15562.79106526
_cell_formula_units_Z   4
loop_
 _symmetry_equiv_pos_site_id
 _symmetry_equiv_pos_as_xyz
  1  'x, y, z'
loop_
 _atom_site_type_symbol
 _atom_site_label
 _atom_site_symmetry_multiplicity
 _atom_site_fract_x
 _atom_site_fract_y
 _atom_site_fract_z
 _atom_site_occupancy
 _atom_site_charge
Fe  Fe1  1  0.79883000  0.20541000  0.36611000  1.0 0.8429817661
Fe  Fe2  1  0.20117000  0.70541000  0.13389000  1.0 0.8429817661
Fe  Fe3  1  0.20117000  0.79459000  0.63389000  1.0 0.8429817661
Fe  Fe4  1  0.79883000  0.29459000  0.86611000  1.0 0.8429817661
Fe  Fe5  1  0.56003000  0.71156000  0.12683000  1.0 1.0956901615
Fe  Fe6  1  0.43997000  0.21156000  0.37317000  1.0 1.0956901615
Fe  Fe7  1  0.43997000  0.28844000  0.87317000  1.0 1.094499658
Fe  Fe8  1  0.56003000  0.78844000  0.62683000  1.0 1.0956901615
Fe  Fe9  1  0.68097000  0.17324000  0.42834000  1.0 0.7311581179
Fe  Fe10  1  0.31903000  0.67324000  0.07166000  1.0 0.7311581179
Fe  Fe11  1  0.31903000  0.82676000  0.57166000  1.0 0.7311581179
Fe  Fe12  1  0.68097000  0.32676000  0.92834000  1.0 0.7311581179
Fe  Fe13  1  0.94970000  0.28627000  0.37828000  1.0 0.8507465526
Fe  Fe14  1  0.05030000  0.78627000  0.12172000  1.0 0.8507465526
Fe  Fe15  1  0.05030000  0.71373000  0.62172000  1.0 0.8507465526
Fe  Fe16  1  0.94970000  0.21373000  0.87828000  1.0 0.8507465526
Fe  Fe17  1  0.70790000  0.79400000  0.13747000  1.0 0.260966885
Fe  Fe18  1  0.29210000  0.29400000  0.36253000  1.0 0.260966885
Fe  Fe19  1  0.29210000  0.20600000  0.86253000  1.0 0.260966885
Fe  Fe20  1  0.70790000  0.70600000  0.63747000  1.0 0.260966885
Fe  Fe21  1  0.20298000  0.32369000  0.43206000  1.0 0.6042753562
Fe  Fe22  1  0.79702000  0.82369000  0.06794000  1.0 0.6042753562
Fe  Fe23  1  0.79702000  0.67631000  0.56794000  1.0 0.6058435842
Fe  Fe24  1  0.20298000  0.17631000  0.93206000  1.0 0.6058435842
Fe  Fe25  1  0.73130000  0.79460000  0.13060000  1.0 0.2337747395
Fe  Fe26  1  0.26870000  0.29460000  0.36940000  1.0 0.2337747395
Fe  Fe27  1  0.26870000  0.20540000  0.86940000  1.0 0.2337747395
Fe  Fe28  1  0.73130000  0.70540000  0.63060000  1.0 0.2337747395
Fe  Fe29  1  0.92830000  0.28860000  0.37840000  1.0 0.8604796781
Fe  Fe30  1  0.07170000  0.78860000  0.12160000  1.0 0.8604796781
Fe  Fe31  1  0.07170000  0.71140000  0.62160000  1.0 0.8604796781
Fe  Fe32  1  0.92830000  0.21140000  0.87840000  1.0 0.8604796781
Fe  Fe33  1  0.70500000  0.17098000  0.43260000  1.0 0.7311581179
Fe  Fe34  1  0.29500000  0.67098000  0.06740000  1.0 0.7311581179
Fe  Fe35  1  0.29500000  0.82902000  0.56740000  1.0 0.7311581179
Fe  Fe36  1  0.70500000  0.32902000  0.93260000  1.0 0.7311581179
Fe  Fe37  1  0.18190000  0.32800000  0.43470000  1.0 0.5490747993
Fe  Fe38  1  0.81810000  0.82800000  0.06530000  1.0 0.5438225671
Fe  Fe39  1  0.81810000  0.67200000  0.56530000  1.0 0.5438225671
Fe  Fe40  1  0.18190000  0.17200000  0.93470000  1.0 0.5490747993
Fe  Fe41  1  0.67900000  0.79490000  0.13290000  1.0 0.260966885
Fe  Fe42  1  0.32100000  0.29490000  0.36710000  1.0 0.260966885
Fe  Fe43  1  0.32100000  0.20510000  0.86710000  1.0 0.260966885
Fe  Fe44  1  0.67900000  0.70510000  0.63290000  1.0 0.260966885
Fe  Fe45  1  0.56225000  0.71560000  0.13455000  1.0 1.118653725
Fe  Fe46  1  0.43775000  0.21560000  0.36545000  1.0 1.1136647765
Fe  Fe47  1  0.43775000  0.28440000  0.86545000  1.0 1.1136647765
Fe  Fe48  1  0.56225000  0.78440000  0.63455000  1.0 1.1136647765
H  H1  1  0.93131000  0.80725000  0.35530000  1.0 0.1119930601
H  H2  1  0.06869000  0.30725000  0.14470000  1.0 0.1119930601
H  H3  1  0.06869000  0.19275000  0.64470000  1.0 0.1119930601
H  H4  1  0.93131000  0.69275000  0.85530000  1.0 0.1119930601
H  H5  1  0.20147000  0.76051000  0.49125000  1.0 0.078996391
H  H6  1  0.79853000  0.26051000  0.00875000  1.0 0.078996391
H  H7  1  0.79853000  0.23949000  0.50875000  1.0 0.078996391
H  H8  1  0.20147000  0.73949000  0.99125000  1.0 0.078996391
H  H9  1  0.15310000  0.71798000  0.42988000  1.0 0.0706194976
H  H10  1  0.84690000  0.21798000  0.07012000  1.0 0.0706194976
H  H11  1  0.84690000  0.28202000  0.57012000  1.0 0.0706194976
H  H12  1  0.15310000  0.78202000  0.92988000  1.0 0.0706194976
H  H13  1  0.07646000  0.62057000  0.49576000  1.0 0.1299926842
H  H14  1  0.92354000  0.12057000  0.00424000  1.0 0.1299926842
H  H15  1  0.92354000  0.37943000  0.50424000  1.0 0.1299926842
H  H16  1  0.07646000  0.87943000  0.99576000  1.0 0.1299926842
H  H17  1  0.71060000  0.96106000  0.06248000  1.0 0.1171700622
H  H18  1  0.28940000  0.46106000  0.43752000  1.0 0.1171700622
H  H19  1  0.28940000  0.03894000  0.93752000  1.0 0.1171700622
H  H20  1  0.71060000  0.53894000  0.56248000  1.0 0.1171700622
H  H21  1  0.47130000  0.18990000  0.95923000  1.0 0.1299926842
H  H22  1  0.52870000  0.68990000  0.54077000  1.0 0.1299926842
H  H23  1  0.52870000  0.81010000  0.04077000  1.0 0.1299926842
H  H24  1  0.47130000  0.31010000  0.45923000  1.0 0.1299926842
H  H25  1  0.12754000  0.66243000  0.55758000  1.0 0.1171700622
H  H26  1  0.87246000  0.16243000  0.94242000  1.0 0.1171700622
H  H27  1  0.87246000  0.33757000  0.44242000  1.0 0.1171700622
H  H28  1  0.12754000  0.83757000  0.05758000  1.0 0.1171700622
H  H29  1  0.09852000  0.57889000  0.44195000  1.0 0.1171700622
H  H30  1  0.90148000  0.07889000  0.05805000  1.0 0.1171700622
H  H31  1  0.90148000  0.42111000  0.55805000  1.0 0.1171700622
H  H32  1  0.09852000  0.92111000  0.94195000  1.0 0.1171700622
H  H33  1  0.56227000  0.99522000  0.15949000  1.0 0.1119930601
H  H34  1  0.43773000  0.49522000  0.34051000  1.0 0.1119930601
H  H35  1  0.43773000  0.00478000  0.84051000  1.0 0.1119930601
H  H36  1  0.56227000  0.50478000  0.65949000  1.0 0.1119930601
H  H37  1  0.00624000  0.69370000  0.38106000  1.0 0.1014767352
H  H38  1  0.99376000  0.19370000  0.11894000  1.0 0.1014767352
H  H39  1  0.99376000  0.30630000  0.61894000  1.0 0.1014767352
H  H40  1  0.00624000  0.80630000  0.88106000  1.0 0.1014767352
H  H41  1  0.46712000  0.14472000  0.01602000  1.0 0.1299926842
H  H42  1  0.53288000  0.64472000  0.48398000  1.0 0.1299926842
H  H43  1  0.53288000  0.85528000  0.98398000  1.0 0.1299926842
H  H44  1  0.46712000  0.35528000  0.51602000  1.0 0.1299926842
H  H45  1  0.67036000  0.03397000  0.06969000  1.0 0.1119930601
H  H46  1  0.32964000  0.53397000  0.43031000  1.0 0.1119930601
H  H47  1  0.32964000  0.96603000  0.93031000  1.0 0.1119930601
H  H48  1  0.67036000  0.46603000  0.56969000  1.0 0.1119930601
H  H49  1  0.02640000  0.81433000  0.30343000  1.0 0.1119930601
H  H50  1  0.97360000  0.31433000  0.19657000  1.0 0.1119930601
H  H51  1  0.97360000  0.18567000  0.69657000  1.0 0.1119930601
H  H52  1  0.02640000  0.68567000  0.80343000  1.0 0.1119930601
H  H53  1  0.47354000  0.18333000  0.19378000  1.0 0.1119930601
H  H54  1  0.52646000  0.68333000  0.30622000  1.0 0.1119930601
H  H55  1  0.52646000  0.81667000  0.80622000  1.0 0.1119930601
H  H56  1  0.47354000  0.31667000  0.69378000  1.0 0.1119930601
H  H57  1  0.60746000  0.06583000  0.18546000  1.0 0.1171700622
H  H58  1  0.39254000  0.56583000  0.31454000  1.0 0.1171700622
H  H59  1  0.39254000  0.93417000  0.81454000  1.0 0.1171700622
H  H60  1  0.60746000  0.43417000  0.68546000  1.0 0.1171700622
H  H61  1  0.60220000  0.92274000  0.15191000  1.0 0.1299926842
H  H62  1  0.39780000  0.42274000  0.34809000  1.0 0.1299926842
H  H63  1  0.39780000  0.07726000  0.84809000  1.0 0.1299926842
H  H64  1  0.60220000  0.57726000  0.65191000  1.0 0.1299926842
H  H65  1  0.02323000  0.79191000  0.23552000  1.0 0.1171700622
H  H66  1  0.97677000  0.29191000  0.26448000  1.0 0.1171700622
H  H67  1  0.97677000  0.20809000  0.76448000  1.0 0.1171700622
H  H68  1  0.02323000  0.70809000  0.73552000  1.0 0.1171700622
H  H69  1  0.76074000  0.03573000  0.42556000  1.0 0.1171700622
H  H70  1  0.23926000  0.53573000  0.07444000  1.0 0.1171700622
H  H71  1  0.23926000  0.96427000  0.57444000  1.0 0.1171700622
H  H72  1  0.76074000  0.46427000  0.92556000  1.0 0.1171700622
H  H73  1  0.70072000  0.13859000  0.30938000  1.0 0.1171700622
H  H74  1  0.29928000  0.63859000  0.19062000  1.0 0.1171700622
H  H75  1  0.29928000  0.86141000  0.69062000  1.0 0.1171700622
H  H76  1  0.70072000  0.36141000  0.80938000  1.0 0.1171700622
H  H77  1  0.88817000  0.90601000  0.42962000  1.0 0.1119930601
H  H78  1  0.11183000  0.40601000  0.07038000  1.0 0.1119930601
H  H79  1  0.11183000  0.09399000  0.57038000  1.0 0.1119930601
H  H80  1  0.88817000  0.59399000  0.92962000  1.0 0.1119930601
H  H81  1  0.81785000  0.89205000  0.25421000  1.0 0.1171700622
H  H82  1  0.18215000  0.39205000  0.24579000  1.0 0.1171700622
H  H83  1  0.18215000  0.10795000  0.74579000  1.0 0.1171700622
H  H84  1  0.81785000  0.60795000  0.75421000  1.0 0.1171700622
H  H85  1  0.69252000  0.11308000  0.24252000  1.0 0.1171700622
H  H86  1  0.30748000  0.61308000  0.25748000  1.0 0.1171700622
H  H87  1  0.30748000  0.88692000  0.75748000  1.0 0.1171700622
H  H88  1  0.69252000  0.38692000  0.74252000  1.0 0.1171700622
H  H89  1  0.87866000  0.75109000  0.25391000  1.0 0.1119930601
H  H90  1  0.12134000  0.25109000  0.24609000  1.0 0.1119930601
H  H91  1  0.12134000  0.24891000  0.74609000  1.0 0.1119930601
H  H92  1  0.87866000  0.74891000  0.75391000  1.0 0.1119930601
H  H93  1  0.55645000  0.19135000  0.13941000  1.0 0.1119930601
H  H94  1  0.44355000  0.69135000  0.36059000  1.0 0.1119930601
H  H95  1  0.44355000  0.80865000  0.86059000  1.0 0.1119930601
H  H96  1  0.55645000  0.30865000  0.63941000  1.0 0.1119930601
H  H97  1  0.57948000  0.09062000  0.06213000  1.0 0.1171700622
H  H98  1  0.42052000  0.59062000  0.43787000  1.0 0.1171700622
H  H99  1  0.42052000  0.90938000  0.93787000  1.0 0.1171700622
H  H100  1  0.57948000  0.40938000  0.56213000  1.0 0.1171700622
H  H101  1  0.80420000  0.96254000  0.41931000  1.0 0.1119930601
H  H102  1  0.19580000  0.46254000  0.08069000  1.0 0.1119930601
H  H103  1  0.19580000  0.03746000  0.58069000  1.0 0.1119930601
H  H104  1  0.80420000  0.53746000  0.91931000  1.0 0.1119930601
H  H105  1  0.93352000  0.57422000  0.32456000  1.0 0.1119930601
H  H106  1  0.06648000  0.07422000  0.17544000  1.0 0.1119930601
H  H107  1  0.06648000  0.42578000  0.67544000  1.0 0.1119930601
H  H108  1  0.93352000  0.92578000  0.82456000  1.0 0.1119930601
H  H109  1  0.47842000  0.20698000  0.26200000  1.0 0.1299926842
H  H110  1  0.52158000  0.70698000  0.23800000  1.0 0.1299926842
H  H111  1  0.52158000  0.79302000  0.73800000  1.0 0.1299926842
H  H112  1  0.47842000  0.29302000  0.76200000  1.0 0.1299926842
H  H113  1  0.90220000  0.93476000  0.31334000  1.0 0.1119930601
H  H114  1  0.09780000  0.43476000  0.18666000  1.0 0.1119930601
H  H115  1  0.09780000  0.06524000  0.68666000  1.0 0.1119930601
H  H116  1  0.90220000  0.56524000  0.81334000  1.0 0.1119930601
H  H117  1  0.65187000  0.22066000  0.09285000  1.0 0.1119930601
H  H118  1  0.34813000  0.72066000  0.40715000  1.0 0.1119930601
H  H119  1  0.34813000  0.77934000  0.90715000  1.0 0.1119930601
H  H120  1  0.65187000  0.27934000  0.59285000  1.0 0.1119930601
H  H121  1  0.80697000  0.61270000  0.29850000  1.0 0.1171700622
H  H122  1  0.19303000  0.11270000  0.20150000  1.0 0.1119930601
H  H123  1  0.19303000  0.38730000  0.70150000  1.0 0.1119930601
H  H124  1  0.80697000  0.88730000  0.79850000  1.0 0.1119930601
H  H125  1  0.97307000  0.71545000  0.31134000  1.0 0.1119930601
H  H126  1  0.02693000  0.21545000  0.18866000  1.0 0.1119930601
H  H127  1  0.02693000  0.28455000  0.68866000  1.0 0.1119930601
H  H128  1  0.97307000  0.78455000  0.81134000  1.0 0.1119930601
H  H129  1  0.89581000  0.50842000  0.35044000  1.0 0.1119930601
H  H130  1  0.10419000  0.00842000  0.14956000  1.0 0.1119930601
H  H131  1  0.10419000  0.49158000  0.64956000  1.0 0.1119930601
H  H132  1  0.89581000  0.99158000  0.85044000  1.0 0.1119930601
H  H133  1  0.81106000  0.86700000  0.18715000  1.0 0.1171700622
H  H134  1  0.18894000  0.36700000  0.31285000  1.0 0.1171700622
H  H135  1  0.18894000  0.13300000  0.81285000  1.0 0.1171700622
H  H136  1  0.81106000  0.63300000  0.68715000  1.0 0.1171700622
H  H137  1  0.93997000  0.00429000  0.34198000  1.0 0.1171700622
H  H138  1  0.06003000  0.50429000  0.15802000  1.0 0.1171700622
H  H139  1  0.06003000  0.99571000  0.65802000  1.0 0.1171700622
H  H140  1  0.93997000  0.49571000  0.84198000  1.0 0.1171700622
H  H141  1  0.65947000  0.26340000  0.03592000  1.0 0.1014767352
H  H142  1  0.34053000  0.76340000  0.46408000  1.0 0.1014767352
H  H143  1  0.34053000  0.73660000  0.96408000  1.0 0.1014767352
H  H144  1  0.65947000  0.23660000  0.53592000  1.0 0.1014767352
H  H145  1  0.14658000  0.51353000  0.41897000  1.0 0.1171700622
H  H146  1  0.85342000  0.01353000  0.08103000  1.0 0.1171700622
H  H147  1  0.85342000  0.48647000  0.58103000  1.0 0.1119930601
H  H148  1  0.14658000  0.98647000  0.91897000  1.0 0.1119930601
H  H149  1  0.89699000  0.43155000  0.35849000  1.0 0.1299926842
H  H150  1  0.10301000  0.93155000  0.14151000  1.0 0.1299926842
H  H151  1  0.10301000  0.56845000  0.64151000  1.0 0.1299926842
H  H152  1  0.89699000  0.06845000  0.85849000  1.0 0.1299926842
H  H153  1  0.14697000  0.43625000  0.42740000  1.0 0.1119930601
H  H154  1  0.85303000  0.93625000  0.07260000  1.0 0.1119930601
H  H155  1  0.85303000  0.56375000  0.57260000  1.0 0.1119930601
H  H156  1  0.14697000  0.06375000  0.92740000  1.0 0.1119930601
H  H157  1  0.71301000  0.64718000  0.23940000  1.0 0.1299926842
H  H158  1  0.28699000  0.14718000  0.26060000  1.0 0.1299926842
H  H159  1  0.28699000  0.35282000  0.76060000  1.0 0.1299926842
H  H160  1  0.71301000  0.85282000  0.73940000  1.0 0.1299926842
H  H161  1  0.90044000  0.07645000  0.34975000  1.0 0.1171700622
H  H162  1  0.09956000  0.57645000  0.15025000  1.0 0.1171700622
H  H163  1  0.09956000  0.92355000  0.65025000  1.0 0.1171700622
H  H164  1  0.90044000  0.42355000  0.84975000  1.0 0.1171700622
H  H165  1  0.40475000  0.27588000  0.07058000  1.0 0.1119930601
H  H166  1  0.59525000  0.77588000  0.42942000  1.0 0.1119930601
H  H167  1  0.59525000  0.72412000  0.92942000  1.0 0.1119930601
H  H168  1  0.40475000  0.22412000  0.57058000  1.0 0.1119930601
H  H169  1  0.34622000  0.23489000  0.00905000  1.0 0.1171700622
H  H170  1  0.65378000  0.73489000  0.49095000  1.0 0.1171700622
H  H171  1  0.65378000  0.76511000  0.99095000  1.0 0.1171700622
H  H172  1  0.34622000  0.26511000  0.50905000  1.0 0.1171700622
H  H173  1  0.52958000  0.30427000  0.11688000  1.0 0.1014767352
H  H174  1  0.47042000  0.80427000  0.38312000  1.0 0.1014767352
H  H175  1  0.47042000  0.69573000  0.88312000  1.0 0.1014767352
H  H176  1  0.52958000  0.19573000  0.61688000  1.0 0.1014767352
H  H177  1  0.38743000  0.33894000  0.94031000  1.0 0.1119930601
H  H178  1  0.61257000  0.83894000  0.55969000  1.0 0.1119930601
H  H179  1  0.61257000  0.66106000  0.05969000  1.0 0.1119930601
H  H180  1  0.38743000  0.16106000  0.44031000  1.0 0.1119930601
H  H181  1  0.65318000  0.24279000  0.24152000  1.0 0.1119930601
H  H182  1  0.34682000  0.74279000  0.25848000  1.0 0.1119930601
H  H183  1  0.34682000  0.75721000  0.75848000  1.0 0.1119930601
H  H184  1  0.65318000  0.25721000  0.74152000  1.0 0.1119930601
H  H185  1  0.44630000  0.37938000  0.00153000  1.0 0.1119930601
H  H186  1  0.55370000  0.87938000  0.49847000  1.0 0.1119930601
H  H187  1  0.55370000  0.62062000  0.99847000  1.0 0.1119930601
H  H188  1  0.44630000  0.12062000  0.50153000  1.0 0.1119930601
H  H189  1  0.42970000  0.41874000  0.05887000  1.0 0.1119930601
H  H190  1  0.57030000  0.91874000  0.44113000  1.0 0.1119930601
H  H191  1  0.57030000  0.58126000  0.94113000  1.0 0.1119930601
H  H192  1  0.42970000  0.08126000  0.55887000  1.0 0.1119930601
H  H193  1  0.72007000  0.38595000  0.20544000  1.0 0.1119930601
H  H194  1  0.27993000  0.88595000  0.29456000  1.0 0.1119930601
H  H195  1  0.27993000  0.61405000  0.79456000  1.0 0.1119930601
H  H196  1  0.72007000  0.11405000  0.70544000  1.0 0.1119930601
H  H197  1  0.59197000  0.42186000  0.17683000  1.0 0.1119930601
H  H198  1  0.40803000  0.92186000  0.32317000  1.0 0.1119930601
H  H199  1  0.40803000  0.57814000  0.82317000  1.0 0.1119930601
H  H200  1  0.59197000  0.07814000  0.67683000  1.0 0.1119930601
H  H201  1  0.37824000  0.48315000  0.08335000  1.0 0.1119930601
H  H202  1  0.62176000  0.98315000  0.41665000  1.0 0.1119930601
H  H203  1  0.62176000  0.51685000  0.91665000  1.0 0.1119930601
H  H204  1  0.37824000  0.01685000  0.58335000  1.0 0.1119930601
H  H205  1  0.56253000  0.27883000  0.18289000  1.0 0.1119930601
H  H206  1  0.43747000  0.77883000  0.31711000  1.0 0.1119930601
H  H207  1  0.43747000  0.72117000  0.81711000  1.0 0.1119930601
H  H208  1  0.56253000  0.22117000  0.68289000  1.0 0.1119930601
H  H209  1  0.80706000  0.35204000  0.26704000  1.0 0.1299926842
H  H210  1  0.19294000  0.85204000  0.23296000  1.0 0.1299926842
H  H211  1  0.19294000  0.64796000  0.73296000  1.0 0.1299926842
H  H212  1  0.80706000  0.14796000  0.76704000  1.0 0.1299926842
H  H213  1  0.62129000  0.56688000  0.14817000  1.0 0.1299926842
H  H214  1  0.37871000  0.06688000  0.35183000  1.0 0.1299926842
H  H215  1  0.37871000  0.43312000  0.85183000  1.0 0.1299926842
H  H216  1  0.62129000  0.93312000  0.64817000  1.0 0.1299926842
H  H217  1  0.62739000  0.49039000  0.15340000  1.0 0.1171700622
H  H218  1  0.37261000  0.99039000  0.34660000  1.0 0.1171700622
H  H219  1  0.37261000  0.50961000  0.84660000  1.0 0.1171700622
H  H220  1  0.62739000  0.00961000  0.65340000  1.0 0.1171700622
H  H221  1  0.37319000  0.56048000  0.07692000  1.0 0.1171700622
H  H222  1  0.62681000  0.06048000  0.42308000  1.0 0.1171700622
H  H223  1  0.62681000  0.43952000  0.92308000  1.0 0.1171700622
H  H224  1  0.37319000  0.93952000  0.57692000  1.0 0.1171700622
H  H225  1  0.08186000  0.11991000  0.32754000  1.0 0.1392652586
H  H226  1  0.91814000  0.61991000  0.17246000  1.0 0.1392652586
H  H227  1  0.91814000  0.88009000  0.67246000  1.0 0.1392652586
H  H228  1  0.08186000  0.38009000  0.82754000  1.0 0.1392652586
H  H229  1  0.99676000  0.13478000  0.29201000  1.0 0.1014767352
H  H230  1  0.00324000  0.63478000  0.20799000  1.0 0.1014767352
H  H231  1  0.00324000  0.86522000  0.70799000  1.0 0.1014767352
H  H232  1  0.99676000  0.36522000  0.79201000  1.0 0.1014767352
H  H233  1  0.08568000  0.15998000  0.29644000  1.0 0.1299926842
H  H234  1  0.91432000  0.65998000  0.20356000  1.0 0.1299926842
H  H235  1  0.91432000  0.84002000  0.70356000  1.0 0.1299926842
H  H236  1  0.08568000  0.34002000  0.79644000  1.0 0.1299926842
H  H237  1  0.14489000  0.16698000  0.38953000  1.0 0.1587080352
H  H238  1  0.85511000  0.66698000  0.11047000  1.0 0.1587080352
H  H239  1  0.85511000  0.83302000  0.61047000  1.0 0.1587080352
H  H240  1  0.14489000  0.33302000  0.88953000  1.0 0.1587080352
H  H241  1  0.15445000  0.20529000  0.35779000  1.0 0.1468675985
H  H242  1  0.84555000  0.70529000  0.14221000  1.0 0.1468675985
H  H243  1  0.84555000  0.79471000  0.64221000  1.0 0.1468675985
H  H244  1  0.15445000  0.29471000  0.85779000  1.0 0.1468675985
H  H245  1  0.10046000  0.21450000  0.39007000  1.0 0.1119930601
H  H246  1  0.89954000  0.71450000  0.10993000  1.0 0.1119930601
H  H247  1  0.89954000  0.78550000  0.60993000  1.0 0.1119930601
H  H248  1  0.10046000  0.28550000  0.89007000  1.0 0.1119930601
H  H249  1  0.87069000  0.12499000  0.58919000  1.0 0.1468675985
H  H250  1  0.12931000  0.62499000  0.91081000  1.0 0.1468675985
H  H251  1  0.12931000  0.87501000  0.41081000  1.0 0.1468675985
H  H252  1  0.87069000  0.37501000  0.08919000  1.0 0.1468675985
H  H253  1  0.86905000  0.16159000  0.55404000  1.0 0.1299926842
H  H254  1  0.13095000  0.66159000  0.94596000  1.0 0.1299926842
H  H255  1  0.13095000  0.83841000  0.44596000  1.0 0.1299926842
H  H256  1  0.86905000  0.33841000  0.05404000  1.0 0.1299926842
H  H257  1  0.86193000  0.17676000  0.59890000  1.0 0.1299926842
H  H258  1  0.13807000  0.67676000  0.90110000  1.0 0.1299926842
H  H259  1  0.13807000  0.82324000  0.40110000  1.0 0.1299926842
H  H260  1  0.86193000  0.32324000  0.09890000  1.0 0.1299926842
H  H261  1  0.71416000  0.17438000  0.60820000  1.0 0.1299926842
H  H262  1  0.28584000  0.67438000  0.89180000  1.0 0.1299926842
H  H263  1  0.28584000  0.82562000  0.39180000  1.0 0.1299926842
H  H264  1  0.71416000  0.32562000  0.10820000  1.0 0.1299926842
H  H265  1  0.64606000  0.14234000  0.57696000  1.0 0.1299926842
H  H266  1  0.35394000  0.64234000  0.92304000  1.0 0.1299926842
H  H267  1  0.35394000  0.85766000  0.42304000  1.0 0.1299926842
H  H268  1  0.64606000  0.35766000  0.07696000  1.0 0.1299926842
H  H269  1  0.72839000  0.12152000  0.61053000  1.0 0.1392652586
H  H270  1  0.27161000  0.62152000  0.88947000  1.0 0.1392652586
H  H271  1  0.27161000  0.87848000  0.38947000  1.0 0.1392652586
H  H272  1  0.72839000  0.37848000  0.11053000  1.0 0.1392652586
H  H273  1  0.14569000  0.34711000  0.50876000  1.0 0.0880479804
H  H274  1  0.85431000  0.84711000  0.99124000  1.0 0.0880479804
H  H275  1  0.85431000  0.65289000  0.49124000  1.0 0.0880479804
H  H276  1  0.14569000  0.15289000  0.00876000  1.0 0.0880479804
H  H277  1  0.34421000  0.37411000  0.59738000  1.0 0.1392652586
H  H278  1  0.65579000  0.87411000  0.90262000  1.0 0.1392652586
H  H279  1  0.65579000  0.62589000  0.40262000  1.0 0.1392652586
H  H280  1  0.34421000  0.12589000  0.09738000  1.0 0.1392652586
H  H281  1  0.33936000  0.32139000  0.60382000  1.0 0.1299926842
H  H282  1  0.66064000  0.82139000  0.89618000  1.0 0.1299926842
H  H283  1  0.66064000  0.67861000  0.39618000  1.0 0.1299926842
H  H284  1  0.33936000  0.17861000  0.10382000  1.0 0.1299926842
H  H285  1  0.35677000  0.34060000  0.56229000  1.0 0.1468675985
H  H286  1  0.64323000  0.84060000  0.93771000  1.0 0.1468675985
H  H287  1  0.64323000  0.65940000  0.43771000  1.0 0.1468675985
H  H288  1  0.35677000  0.15940000  0.06229000  1.0 0.1468675985
H  H289  1  0.18042000  0.33020000  0.60725000  1.0 0.1392652586
H  H290  1  0.81958000  0.83020000  0.89275000  1.0 0.1392652586
H  H291  1  0.81958000  0.66980000  0.39275000  1.0 0.1392652586
H  H292  1  0.18042000  0.16980000  0.10725000  1.0 0.1392652586
H  H293  1  0.19413000  0.38273000  0.60363000  1.0 0.1392652586
H  H294  1  0.80587000  0.88273000  0.89637000  1.0 0.1392652586
H  H295  1  0.80587000  0.61727000  0.39637000  1.0 0.1392652586
H  H296  1  0.19413000  0.11727000  0.10363000  1.0 0.1392652586
H  H297  1  0.11830000  0.35787000  0.56935000  1.0 0.1299926842
H  H298  1  0.88170000  0.85787000  0.93065000  1.0 0.1299926842
H  H299  1  0.88170000  0.64213000  0.43065000  1.0 0.1299926842
H  H300  1  0.11830000  0.14213000  0.06935000  1.0 0.1299926842
H  H301  1  0.91380000  0.16943000  0.32186000  1.0 0.1171700622
H  H302  1  0.08620000  0.66943000  0.17814000  1.0 0.1171700622
H  H303  1  0.08620000  0.83057000  0.67814000  1.0 0.1171700622
H  H304  1  0.91380000  0.33057000  0.82186000  1.0 0.1171700622
H  H305  1  0.80365000  0.80462000  0.50339000  1.0 0.1119930601
H  H306  1  0.19635000  0.30462000  0.99661000  1.0 0.1119930601
H  H307  1  0.19635000  0.19538000  0.49661000  1.0 0.1119930601
H  H308  1  0.80365000  0.69538000  0.00339000  1.0 0.1119930601
H  H309  1  0.80718000  0.85098000  0.44727000  1.0 0.1014767352
H  H310  1  0.19282000  0.35098000  0.05273000  1.0 0.1014767352
H  H311  1  0.19282000  0.14902000  0.55273000  1.0 0.1014767352
H  H312  1  0.80718000  0.64902000  0.94727000  1.0 0.1014767352
H  H313  1  0.99193000  0.77499000  0.42412000  1.0 0.078996391
H  H314  1  0.00807000  0.27499000  0.07588000  1.0 0.078996391
H  H315  1  0.00807000  0.22501000  0.57588000  1.0 0.078996391
H  H316  1  0.99193000  0.72501000  0.92412000  1.0 0.078996391
H  H317  1  0.99980000  0.73316000  0.48448000  1.0 0.0880479804
H  H318  1  0.00020000  0.23316000  0.01552000  1.0 0.0880479804
H  H319  1  0.00020000  0.26684000  0.51552000  1.0 0.0880479804
H  H320  1  0.99980000  0.76684000  0.98448000  1.0 0.0880479804
H  H321  1  0.65204000  0.14541000  0.51329000  1.0 0.1014767352
H  H322  1  0.34796000  0.64541000  0.98671000  1.0 0.1014767352
H  H323  1  0.34796000  0.85459000  0.48671000  1.0 0.1014767352
H  H324  1  0.65204000  0.35459000  0.01329000  1.0 0.1014767352
H  H325  1  0.02477000  0.80080000  0.53185000  1.0 0.1171700622
H  H326  1  0.97523000  0.30080000  0.96815000  1.0 0.1171700622
H  H327  1  0.97523000  0.19920000  0.46815000  1.0 0.1171700622
H  H328  1  0.02477000  0.69920000  0.03185000  1.0 0.1171700622
H  H329  1  0.02898000  0.84973000  0.47706000  1.0 0.1119930601
H  H330  1  0.97102000  0.34973000  0.02294000  1.0 0.1119930601
H  H331  1  0.97102000  0.15027000  0.52294000  1.0 0.1119930601
H  H332  1  0.02898000  0.65027000  0.97706000  1.0 0.1119930601
H  H333  1  0.84282000  0.77073000  0.40149000  1.0 0.1119930601
H  H334  1  0.15718000  0.27073000  0.09851000  1.0 0.1119930601
H  H335  1  0.15718000  0.22927000  0.59851000  1.0 0.1119930601
H  H336  1  0.84282000  0.72927000  0.90149000  1.0 0.1119930601
H  H337  1  0.85633000  0.72776000  0.45493000  1.0 0.1119930601
H  H338  1  0.14367000  0.22776000  0.04507000  1.0 0.1119930601
H  H339  1  0.14367000  0.27224000  0.54507000  1.0 0.1119930601
H  H340  1  0.85633000  0.77224000  0.95493000  1.0 0.1119930601
H  H341  1  0.14298000  0.76824000  0.48549000  1.0 0.0880479804
H  H342  1  0.85702000  0.26824000  0.01451000  1.0 0.0880479804
H  H343  1  0.85702000  0.23176000  0.51451000  1.0 0.0880479804
H  H344  1  0.14298000  0.73176000  0.98549000  1.0 0.0880479804
H  H345  1  0.09452000  0.72473000  0.42638000  1.0 0.078996391
H  H346  1  0.90548000  0.22473000  0.07362000  1.0 0.078996391
H  H347  1  0.90548000  0.27527000  0.57362000  1.0 0.078996391
H  H348  1  0.09452000  0.77527000  0.92638000  1.0 0.078996391
C  C1  1  0.92081000  0.83780000  0.35961000  1.0 -0.2200872489
C  C2  1  0.07919000  0.33780000  0.14039000  1.0 -0.2200872489
C  C3  1  0.07919000  0.16220000  0.64039000  1.0 -0.2200872489
C  C4  1  0.92081000  0.66220000  0.85961000  1.0 -0.2200872489
C  C5  1  0.90786000  0.85150000  0.39766000  1.0 0.078996391
C  C6  1  0.09214000  0.35150000  0.10234000  1.0 0.078996391
C  C7  1  0.09214000  0.14850000  0.60234000  1.0 0.078996391
C  C8  1  0.90786000  0.64850000  0.89766000  1.0 0.078996391
C  C9  1  0.17360000  0.73280000  0.49180000  1.0 -0.0390160556
C  C10  1  0.82640000  0.23280000  0.00820000  1.0 -0.0295435779
C  C11  1  0.82640000  0.26720000  0.50820000  1.0 -0.0390160556
C  C12  1  0.17360000  0.76720000  0.99180000  1.0 -0.0390160556
C  C13  1  0.14460000  0.70760000  0.45530000  1.0 -0.0516711022
C  C14  1  0.85540000  0.20760000  0.04470000  1.0 -0.0516711022
C  C15  1  0.85540000  0.29240000  0.54470000  1.0 -0.0516711022
C  C16  1  0.14460000  0.79240000  0.95530000  1.0 -0.0516711022
C  C17  1  0.72806000  0.72430000  0.20276000  1.0 0.4845777258
C  C18  1  0.27194000  0.22430000  0.29724000  1.0 0.4871669814
C  C19  1  0.27194000  0.27570000  0.79724000  1.0 0.4871669814
C  C20  1  0.72806000  0.77570000  0.70276000  1.0 0.4871669814
C  C21  1  0.91588000  0.74097000  0.54048000  1.0 0.3773724019
C  C22  1  0.08412000  0.24097000  0.95952000  1.0 0.3773724019
C  C23  1  0.08412000  0.25903000  0.45952000  1.0 0.3773724019
C  C24  1  0.91588000  0.75903000  0.04048000  1.0 0.3773724019
C  C25  1  0.10239000  0.66640000  0.45619000  1.0 0.0437970693
C  C26  1  0.89761000  0.16640000  0.04381000  1.0 0.0437970693
C  C27  1  0.89761000  0.33360000  0.54381000  1.0 0.0437970693
C  C28  1  0.10239000  0.83360000  0.95619000  1.0 0.0437970693
C  C29  1  0.59221000  0.17633000  0.29191000  1.0 -0.0295435779
C  C30  1  0.40779000  0.67633000  0.20809000  1.0 -0.0295435779
C  C31  1  0.40779000  0.82367000  0.70809000  1.0 -0.0295435779
C  C32  1  0.59221000  0.32367000  0.79191000  1.0 -0.0295435779
C  C33  1  0.78747000  0.70180000  0.24037000  1.0 -0.0295435779
C  C34  1  0.21253000  0.20180000  0.25963000  1.0 -0.0295435779
C  C35  1  0.21253000  0.29820000  0.75963000  1.0 -0.0295435779
C  C36  1  0.78747000  0.79820000  0.74037000  1.0 -0.0295435779
C  C37  1  0.57190000  0.25740000  0.95440000  1.0 0.5765151485
C  C38  1  0.42810000  0.75740000  0.54560000  1.0 0.5765151485
C  C39  1  0.42810000  0.74260000  0.04560000  1.0 0.5765151485
C  C40  1  0.57190000  0.24260000  0.45440000  1.0 0.5765151485
C  C41  1  0.90773000  0.76616000  0.50033000  1.0 0.0322192089
C  C42  1  0.09227000  0.26616000  0.99967000  1.0 0.0322192089
C  C43  1  0.09227000  0.23384000  0.49967000  1.0 0.0322192089
C  C44  1  0.90773000  0.73384000  0.00033000  1.0 0.0322192089
C  C45  1  0.02075000  0.37700000  0.40335000  1.0 0.3717086196
C  C46  1  0.97925000  0.87700000  0.09665000  1.0 0.3717086196
C  C47  1  0.97925000  0.62300000  0.59665000  1.0 0.3717086196
C  C48  1  0.02075000  0.12300000  0.90335000  1.0 0.3717086196
C  C49  1  0.09927000  0.64950000  0.49457000  1.0 -0.2200872489
C  C50  1  0.90073000  0.14950000  0.00543000  1.0 -0.2200872489
C  C51  1  0.90073000  0.35050000  0.50543000  1.0 -0.2200872489
C  C52  1  0.09927000  0.85050000  0.99457000  1.0 -0.2200872489
C  C53  1  0.66110000  0.93400000  0.10670000  1.0 -0.0199959975
C  C54  1  0.33890000  0.43400000  0.39330000  1.0 -0.0199959975
C  C55  1  0.33890000  0.06600000  0.89330000  1.0 -0.0199959975
C  C56  1  0.66110000  0.56600000  0.60670000  1.0 -0.0199959975
C  C57  1  0.68093000  0.96800000  0.08233000  1.0 -0.1096836895
C  C58  1  0.31907000  0.46800000  0.41767000  1.0 -0.1096836895
C  C59  1  0.31907000  0.03200000  0.91767000  1.0 -0.1096836895
C  C60  1  0.68093000  0.53200000  0.58233000  1.0 -0.1096836895
C  C61  1  0.92195000  0.85540000  0.28535000  1.0 0.0706194976
C  C62  1  0.07805000  0.35540000  0.21465000  1.0 0.0706194976
C  C63  1  0.07805000  0.14460000  0.71465000  1.0 0.0706194976
C  C64  1  0.92195000  0.64460000  0.78535000  1.0 0.0706194976
C  C65  1  0.50960000  0.19550000  0.98630000  1.0 -0.0906892762
C  C66  1  0.49040000  0.69550000  0.51370000  1.0 -0.0906892762
C  C67  1  0.49040000  0.80450000  0.01370000  1.0 -0.0906892762
C  C68  1  0.50960000  0.30450000  0.48630000  1.0 -0.0906892762
C  C69  1  0.05950000  0.64040000  0.41790000  1.0 0.0605278115
C  C70  1  0.94050000  0.14040000  0.08210000  1.0 0.0605278115
C  C71  1  0.94050000  0.35960000  0.58210000  1.0 0.0605278115
C  C72  1  0.05950000  0.85960000  0.91790000  1.0 0.0605278115
C  C73  1  0.01768000  0.56871000  0.38388000  1.0 0.0880479804
C  C74  1  0.98232000  0.06871000  0.11612000  1.0 0.0880479804
C  C75  1  0.98232000  0.43129000  0.61612000  1.0 0.0880479804
C  C76  1  0.01768000  0.93129000  0.88388000  1.0 0.0880479804
C  C77  1  0.12931000  0.67451000  0.53151000  1.0 -0.1808742355
C  C78  1  0.87069000  0.17451000  0.96849000  1.0 -0.1808742355
C  C79  1  0.87069000  0.32549000  0.46849000  1.0 -0.1808742355
C  C80  1  0.12931000  0.82549000  0.03151000  1.0 -0.1808742355
C  C81  1  0.06336000  0.59380000  0.41786000  1.0 -0.1992975755
C  C82  1  0.93664000  0.09380000  0.08214000  1.0 -0.1992975755
C  C83  1  0.93664000  0.40620000  0.58214000  1.0 -0.1992975755
C  C84  1  0.06336000  0.90620000  0.91786000  1.0 -0.1992975755
C  C85  1  0.69200000  0.88768000  0.10410000  1.0 0.3773724019
C  C86  1  0.30800000  0.38768000  0.39590000  1.0 0.3773724019
C  C87  1  0.30800000  0.11232000  0.89590000  1.0 0.3773724019
C  C88  1  0.69200000  0.61232000  0.60410000  1.0 0.3773724019
C  C89  1  0.90681000  0.80751000  0.16191000  1.0 0.2218314289
C  C90  1  0.09319000  0.30751000  0.33809000  1.0 0.2218314289
C  C91  1  0.09319000  0.19249000  0.83809000  1.0 0.2218314289
C  C92  1  0.90681000  0.69249000  0.66191000  1.0 0.2218314289
C  C93  1  0.58234000  0.14590000  0.21134000  1.0 0.078996391
C  C94  1  0.41766000  0.64590000  0.28866000  1.0 0.0706194976
C  C95  1  0.41766000  0.85410000  0.78866000  1.0 0.078996391
C  C96  1  0.58234000  0.35410000  0.71134000  1.0 0.078996391
C  C97  1  0.59648000  0.19493000  0.33438000  1.0 0.5603580281
C  C98  1  0.40352000  0.69493000  0.16562000  1.0 0.5603580281
C  C99  1  0.40352000  0.80507000  0.66562000  1.0 0.5603580281
C  C100  1  0.59648000  0.30507000  0.83438000  1.0 0.5603580281
C  C101  1  0.59336000  0.98859000  0.14016000  1.0 -0.1514811382
C  C102  1  0.40664000  0.48859000  0.35984000  1.0 -0.1514811382
C  C103  1  0.40664000  0.01141000  0.85984000  1.0 -0.1514811382
C  C104  1  0.59336000  0.51141000  0.64016000  1.0 -0.1514811382
C  C105  1  0.00827000  0.66200000  0.38197000  1.0 -0.2447747782
C  C106  1  0.99173000  0.16200000  0.11803000  1.0 -0.2447747782
C  C107  1  0.99173000  0.33800000  0.61803000  1.0 -0.2447747782
C  C108  1  0.00827000  0.83800000  0.88197000  1.0 -0.2447747782
C  C109  1  0.02014000  0.51910000  0.38524000  1.0 0.078996391
C  C110  1  0.97986000  0.01910000  0.11476000  1.0 0.078996391
C  C111  1  0.97986000  0.48090000  0.61476000  1.0 0.078996391
C  C112  1  0.02014000  0.98090000  0.88524000  1.0 0.078996391
C  C113  1  0.16151000  0.71720000  0.52961000  1.0 -0.0113869212
C  C114  1  0.83849000  0.21720000  0.97039000  1.0 -0.0113869212
C  C115  1  0.83849000  0.28280000  0.47039000  1.0 -0.0113869212
C  C116  1  0.16151000  0.78280000  0.02961000  1.0 -0.0113869212
C  C117  1  0.50657000  0.16880000  0.02017000  1.0 -0.1514811382
C  C118  1  0.49343000  0.66880000  0.47983000  1.0 -0.1514811382
C  C119  1  0.49343000  0.83120000  0.97983000  1.0 -0.1514811382
C  C120  1  0.50657000  0.33120000  0.52017000  1.0 -0.1514811382
C  C121  1  0.90014000  0.66050000  0.31024000  1.0 0.0706194976
C  C122  1  0.09986000  0.16050000  0.18976000  1.0 0.0706194976
C  C123  1  0.09986000  0.33950000  0.68976000  1.0 0.0706194976
C  C124  1  0.90014000  0.83950000  0.81024000  1.0 0.0706194976
C  C125  1  0.89500000  0.92787000  0.37360000  1.0 0.078996391
C  C126  1  0.10500000  0.42787000  0.12640000  1.0 0.0880479804
C  C127  1  0.10500000  0.07213000  0.62640000  1.0 0.078996391
C  C128  1  0.89500000  0.57213000  0.87360000  1.0 0.078996391
C  C129  1  0.17944000  0.74651000  0.56724000  1.0 0.3205406919
C  C130  1  0.82056000  0.24651000  0.93276000  1.0 0.3205406919
C  C131  1  0.82056000  0.25349000  0.43276000  1.0 0.3205406919
C  C132  1  0.17944000  0.75349000  0.06724000  1.0 0.3205406919
C  C133  1  0.65755000  0.01140000  0.08695000  1.0 -0.1514811382
C  C134  1  0.34245000  0.51140000  0.41305000  1.0 -0.1514811382
C  C135  1  0.34245000  0.98860000  0.91305000  1.0 -0.1514811382
C  C136  1  0.65755000  0.48860000  0.58695000  1.0 -0.1514811382
C  C137  1  0.98292000  0.82530000  0.27982000  1.0 -0.1596077369
C  C138  1  0.01708000  0.32530000  0.22018000  1.0 -0.1596077369
C  C139  1  0.01708000  0.17470000  0.72018000  1.0 -0.1596077369
C  C140  1  0.98292000  0.67470000  0.77982000  1.0 -0.1596077369
C  C141  1  0.82724000  0.06390000  0.38834000  1.0 -0.0295435779
C  C142  1  0.17276000  0.56390000  0.11166000  1.0 -0.0295435779
C  C143  1  0.17276000  0.93610000  0.61166000  1.0 -0.0295435779
C  C144  1  0.82724000  0.43610000  0.88834000  1.0 -0.0295435779
C  C145  1  0.95984000  0.63730000  0.34734000  1.0 0.0880479804
C  C146  1  0.04016000  0.13730000  0.15266000  1.0 0.0880479804
C  C147  1  0.04016000  0.36270000  0.65266000  1.0 0.0880479804
C  C148  1  0.95984000  0.86270000  0.84734000  1.0 0.0880479804
C  C149  1  0.56790000  0.22970000  0.99210000  1.0 -0.0113869212
C  C150  1  0.43210000  0.72970000  0.50790000  1.0 -0.0113869212
C  C151  1  0.43210000  0.77030000  0.00790000  1.0 -0.0113869212
C  C152  1  0.56790000  0.27030000  0.49210000  1.0 -0.0113869212
C  C153  1  0.02081000  0.42600000  0.39451000  1.0 -0.0113869212
C  C154  1  0.97919000  0.92600000  0.10549000  1.0 -0.0113869212
C  C155  1  0.97919000  0.57400000  0.60549000  1.0 -0.0113869212
C  C156  1  0.02081000  0.07400000  0.89451000  1.0 -0.0113869212
C  C157  1  0.91420000  0.82568000  0.20510000  1.0 0.0045202568
C  C158  1  0.08580000  0.32568000  0.29490000  1.0 0.0045202568
C  C159  1  0.08580000  0.17432000  0.79490000  1.0 0.0045202568
C  C160  1  0.91420000  0.67432000  0.70510000  1.0 0.0045202568
C  C161  1  0.51928000  0.17400000  0.21718000  1.0 -0.1674689397
C  C162  1  0.48072000  0.67400000  0.28282000  1.0 -0.1674689397
C  C163  1  0.48072000  0.82600000  0.78282000  1.0 -0.1674689397
C  C164  1  0.51928000  0.32600000  0.71718000  1.0 -0.1674689397
C  C165  1  0.61526000  0.02310000  0.11666000  1.0 0.078996391
C  C166  1  0.38474000  0.52310000  0.38334000  1.0 0.078996391
C  C167  1  0.38474000  0.97690000  0.88334000  1.0 0.078996391
C  C168  1  0.61526000  0.47690000  0.61666000  1.0 0.078996391
C  C169  1  0.59609000  0.08610000  0.16259000  1.0 -0.1992975755
C  C170  1  0.40391000  0.58610000  0.33741000  1.0 -0.1992975755
C  C171  1  0.40391000  0.91390000  0.83741000  1.0 -0.1992975755
C  C172  1  0.59609000  0.41390000  0.66259000  1.0 -0.1992975755
C  C173  1  0.91833000  0.86937000  0.32783000  1.0 0.0880479804
C  C174  1  0.08167000  0.36937000  0.17217000  1.0 0.0880479804
C  C175  1  0.08167000  0.13063000  0.67217000  1.0 0.0880479804
C  C176  1  0.91833000  0.63063000  0.82783000  1.0 0.0880479804
C  C177  1  0.79868000  0.11080000  0.39198000  1.0 0.5748371436
C  C178  1  0.20132000  0.61080000  0.10802000  1.0 0.5748371436
C  C179  1  0.20132000  0.88920000  0.60802000  1.0 0.5748371436
C  C180  1  0.79868000  0.38920000  0.89198000  1.0 0.5748371436
C  C181  1  0.87433000  0.97550000  0.37923000  1.0 0.0880479804
C  C182  1  0.12567000  0.47550000  0.12077000  1.0 0.0880479804
C  C183  1  0.12567000  0.02450000  0.62077000  1.0 0.0880479804
C  C184  1  0.87433000  0.52450000  0.87923000  1.0 0.0880479804
C  C185  1  0.58054000  0.13050000  0.16874000  1.0 0.078996391
C  C186  1  0.41946000  0.63050000  0.33126000  1.0 0.078996391
C  C187  1  0.41946000  0.86950000  0.83126000  1.0 0.078996391
C  C188  1  0.58054000  0.36950000  0.66874000  1.0 0.078996391
C  C189  1  0.61663000  0.94549000  0.13533000  1.0 -0.1096836895
C  C190  1  0.38337000  0.44549000  0.36467000  1.0 -0.1096836895
C  C191  1  0.38337000  0.05451000  0.86467000  1.0 -0.1096836895
C  C192  1  0.61663000  0.55451000  0.63533000  1.0 -0.1096836895
C  C193  1  0.98005000  0.81130000  0.23945000  1.0 -0.1192833268
C  C194  1  0.01995000  0.31130000  0.26055000  1.0 -0.1192833268
C  C195  1  0.01995000  0.18870000  0.76055000  1.0 -0.1192833268
C  C196  1  0.98005000  0.68870000  0.73945000  1.0 -0.1192833268
C  C197  1  0.56615000  0.14600000  0.09565000  1.0 0.0880479804
C  C198  1  0.43385000  0.64600000  0.40435000  1.0 0.0880479804
C  C199  1  0.43385000  0.85400000  0.90435000  1.0 0.0880479804
C  C200  1  0.56615000  0.35400000  0.59565000  1.0 0.0880479804
C  C201  1  0.79770000  0.02940000  0.40890000  1.0 -0.1192833268
C  C202  1  0.20230000  0.52940000  0.09110000  1.0 -0.1192833268
C  C203  1  0.20230000  0.97060000  0.59110000  1.0 -0.1192833268
C  C204  1  0.79770000  0.47060000  0.90890000  1.0 -0.1192833268
C  C205  1  0.65458000  0.14780000  0.28608000  1.0 -0.1096836895
C  C206  1  0.34542000  0.64780000  0.21392000  1.0 -0.1096836895
C  C207  1  0.34542000  0.85220000  0.71392000  1.0 -0.1096836895
C  C208  1  0.65458000  0.35220000  0.78608000  1.0 -0.1096836895
C  C209  1  0.89589000  0.89660000  0.40379000  1.0 -0.1992975755
C  C210  1  0.10411000  0.39660000  0.09621000  1.0 -0.1992975755
C  C211  1  0.10411000  0.10340000  0.59621000  1.0 -0.1992975755
C  C212  1  0.89589000  0.60340000  0.90379000  1.0 -0.1992975755
C  C213  1  0.85874000  0.87100000  0.25064000  1.0 -0.1331415768
C  C214  1  0.14126000  0.37100000  0.24936000  1.0 -0.1331415768
C  C215  1  0.14126000  0.12900000  0.74936000  1.0 -0.1331415768
C  C216  1  0.85874000  0.62900000  0.75064000  1.0 -0.1331415768
C  C217  1  0.64958000  0.13270000  0.24628000  1.0 -0.1411722162
C  C218  1  0.35042000  0.63270000  0.25372000  1.0 -0.1411722162
C  C219  1  0.35042000  0.86730000  0.75372000  1.0 -0.1411722162
C  C220  1  0.64958000  0.36730000  0.74628000  1.0 -0.1411722162
C  C221  1  0.86455000  0.72260000  0.26245000  1.0 -0.1331415768
C  C222  1  0.13545000  0.22260000  0.23755000  1.0 -0.1331415768
C  C223  1  0.13545000  0.27740000  0.73755000  1.0 -0.1331415768
C  C224  1  0.86455000  0.77740000  0.76245000  1.0 -0.1331415768
C  C225  1  0.56620000  0.16070000  0.13510000  1.0 -0.2200872489
C  C226  1  0.43380000  0.66070000  0.36490000  1.0 -0.2200872489
C  C227  1  0.43380000  0.83930000  0.86490000  1.0 -0.2200872489
C  C228  1  0.56620000  0.33930000  0.63510000  1.0 -0.2200872489
C  C229  1  0.58021000  0.10080000  0.08921000  1.0 -0.2099592424
C  C230  1  0.41979000  0.60080000  0.41079000  1.0 -0.2099592424
C  C231  1  0.41979000  0.89920000  0.91079000  1.0 -0.2099592424
C  C232  1  0.58021000  0.39920000  0.58921000  1.0 -0.2099592424
C  C233  1  0.82270000  0.98580000  0.40460000  1.0 -0.1514811382
C  C234  1  0.17730000  0.48580000  0.09540000  1.0 -0.1514811382
C  C235  1  0.17730000  0.01420000  0.59540000  1.0 -0.1514811382
C  C236  1  0.82270000  0.51420000  0.90460000  1.0 -0.1514811382
C  C237  1  0.96527000  0.59100000  0.34817000  1.0 -0.2200872489
C  C238  1  0.03473000  0.09100000  0.15183000  1.0 -0.2200872489
C  C239  1  0.03473000  0.40900000  0.65183000  1.0 -0.2200872489
C  C240  1  0.96527000  0.90900000  0.84817000  1.0 -0.2200872489
C  C241  1  0.52293000  0.18870000  0.25783000  1.0 -0.1096836895
C  C242  1  0.47707000  0.68870000  0.24217000  1.0 -0.1096836895
C  C243  1  0.47707000  0.81130000  0.74217000  1.0 -0.1096836895
C  C244  1  0.52293000  0.31130000  0.75783000  1.0 -0.1096836895
C  C245  1  0.90492000  0.91350000  0.33482000  1.0 -0.2099592424
C  C246  1  0.09508000  0.41350000  0.16518000  1.0 -0.2099592424
C  C247  1  0.09508000  0.08650000  0.66518000  1.0 -0.2099592424
C  C248  1  0.90492000  0.58650000  0.83482000  1.0 -0.2099592424
C  C249  1  0.56140000  0.17760000  0.06000000  1.0 0.0706194976
C  C250  1  0.43860000  0.67760000  0.44000000  1.0 0.0706194976
C  C251  1  0.43860000  0.82240000  0.94000000  1.0 0.0706194976
C  C252  1  0.56140000  0.32240000  0.56000000  1.0 0.0706194976
C  C253  1  0.61630000  0.21350000  0.06550000  1.0 -0.1596077369
C  C254  1  0.38370000  0.71350000  0.43450000  1.0 -0.1596077369
C  C255  1  0.38370000  0.78650000  0.93450000  1.0 -0.1596077369
C  C256  1  0.61630000  0.28650000  0.56550000  1.0 -0.1596077369
C  C257  1  0.82210000  0.64050000  0.28900000  1.0 -0.1808742355
C  C258  1  0.17790000  0.14050000  0.21100000  1.0 -0.1808742355
C  C259  1  0.17790000  0.35950000  0.71100000  1.0 -0.1808742355
C  C260  1  0.82210000  0.85950000  0.78900000  1.0 -0.1808742355
C  C261  1  0.92035000  0.70150000  0.29685000  1.0 -0.1596077369
C  C262  1  0.07965000  0.20150000  0.20315000  1.0 -0.1596077369
C  C263  1  0.07965000  0.29850000  0.70315000  1.0 -0.1596077369
C  C264  1  0.92035000  0.79850000  0.79685000  1.0 -0.1596077369
C  C265  1  0.59524000  0.07063000  0.12234000  1.0 0.078996391
C  C266  1  0.40476000  0.57063000  0.37766000  1.0 0.078996391
C  C267  1  0.40476000  0.92937000  0.87766000  1.0 0.078996391
C  C268  1  0.59524000  0.42937000  0.62234000  1.0 0.078996391
C  C269  1  0.94680000  0.49390000  0.36660000  1.0 -0.1596077369
C  C270  1  0.05320000  0.99390000  0.13340000  1.0 -0.1596077369
C  C271  1  0.05320000  0.50610000  0.63340000  1.0 -0.1596077369
C  C272  1  0.94680000  0.00610000  0.86660000  1.0 -0.1596077369
C  C273  1  0.85482000  0.85617000  0.21072000  1.0 -0.1192833268
C  C274  1  0.14518000  0.35617000  0.28928000  1.0 -0.1192833268
C  C275  1  0.14518000  0.14383000  0.78928000  1.0 -0.1192833268
C  C276  1  0.85482000  0.64383000  0.71072000  1.0 -0.1192833268
C  C277  1  0.90636000  0.81960000  0.43176000  1.0 0.0605278115
C  C278  1  0.09364000  0.31960000  0.06824000  1.0 0.0605278115
C  C279  1  0.09364000  0.18040000  0.56824000  1.0 0.0605278115
C  C280  1  0.90636000  0.68040000  0.93176000  1.0 0.0605278115
C  C281  1  0.90360000  0.01050000  0.35900000  1.0 -0.1514811382
C  C282  1  0.09640000  0.51050000  0.14100000  1.0 -0.1514811382
C  C283  1  0.09640000  0.98950000  0.64100000  1.0 -0.1514811382
C  C284  1  0.90360000  0.48950000  0.85900000  1.0 -0.1514811382
C  C285  1  0.62040000  0.23910000  0.03180000  1.0 -0.1411722162
C  C286  1  0.37960000  0.73910000  0.46820000  1.0 -0.1411722162
C  C287  1  0.37960000  0.76090000  0.96820000  1.0 -0.1411722162
C  C288  1  0.62040000  0.26090000  0.53180000  1.0 -0.1411722162
C  C289  1  0.09530000  0.49700000  0.40720000  1.0 -0.1514811382
C  C290  1  0.90470000  0.99700000  0.09280000  1.0 -0.1514811382
C  C291  1  0.90470000  0.50300000  0.59280000  1.0 -0.1514811382
C  C292  1  0.09530000  0.00300000  0.90720000  1.0 -0.1514811382
C  C293  1  0.94754000  0.44810000  0.37134000  1.0 -0.1017459117
C  C294  1  0.05246000  0.94810000  0.12866000  1.0 -0.1017459117
C  C295  1  0.05246000  0.55190000  0.62866000  1.0 -0.1017459117
C  C296  1  0.94754000  0.05190000  0.87134000  1.0 -0.1017459117
C  C297  1  0.09570000  0.45090000  0.41210000  1.0 -0.1017459117
C  C298  1  0.90430000  0.95090000  0.08790000  1.0 -0.1017459117
C  C299  1  0.90430000  0.54910000  0.58790000  1.0 -0.1096836895
C  C300  1  0.09570000  0.04910000  0.91210000  1.0 -0.1017459117
C  C301  1  0.76570000  0.66110000  0.25380000  1.0 -0.1192833268
C  C302  1  0.23430000  0.16110000  0.24620000  1.0 -0.1192833268
C  C303  1  0.23430000  0.33890000  0.74620000  1.0 -0.1192833268
C  C304  1  0.76570000  0.83890000  0.75380000  1.0 -0.1192833268
C  C305  1  0.88010000  0.05320000  0.36370000  1.0 -0.1096836895
C  C306  1  0.11990000  0.55320000  0.13630000  1.0 -0.1096836895
C  C307  1  0.11990000  0.94680000  0.63630000  1.0 -0.1096836895
C  C308  1  0.88010000  0.44680000  0.86370000  1.0 -0.1096836895
C  C309  1  0.78938000  0.27391000  0.30098000  1.0 0.5929705604
C  C310  1  0.21062000  0.77391000  0.19902000  1.0 0.5929705604
C  C311  1  0.21062000  0.72609000  0.69902000  1.0 0.5929705604
C  C312  1  0.78938000  0.22609000  0.80098000  1.0 0.5929705604
C  C313  1  0.36091000  0.28270000  0.96841000  1.0 -0.0009658418
C  C314  1  0.63909000  0.78270000  0.53159000  1.0 -0.0009658418
C  C315  1  0.63909000  0.71730000  0.03159000  1.0 -0.0009658418
C  C316  1  0.36091000  0.21730000  0.46841000  1.0 -0.0009658418
C  C317  1  0.43277000  0.33180000  0.04217000  1.0 0.0706194976
C  C318  1  0.56723000  0.83180000  0.45783000  1.0 0.0706194976
C  C319  1  0.56723000  0.66820000  0.95783000  1.0 0.0706194976
C  C320  1  0.43277000  0.16820000  0.54217000  1.0 0.0706194976
C  C321  1  0.50470000  0.47820000  0.11750000  1.0 0.078996391
C  C322  1  0.49530000  0.97820000  0.38250000  1.0 0.078996391
C  C323  1  0.49530000  0.52180000  0.88250000  1.0 0.078996391
C  C324  1  0.50470000  0.02180000  0.61750000  1.0 0.078996391
C  C325  1  0.40186000  0.28870000  0.04416000  1.0 -0.1514811382
C  C326  1  0.59814000  0.78870000  0.45584000  1.0 -0.1514811382
C  C327  1  0.59814000  0.71130000  0.95584000  1.0 -0.1514811382
C  C328  1  0.40186000  0.21130000  0.54416000  1.0 -0.1514811382
C  C329  1  0.47490000  0.35770000  0.08070000  1.0 0.078996391
C  C330  1  0.52510000  0.85770000  0.41930000  1.0 0.0880479804
C  C331  1  0.52510000  0.64230000  0.91930000  1.0 0.0880479804
C  C332  1  0.47490000  0.14230000  0.58070000  1.0 0.0880479804
C  C333  1  0.73674000  0.29520000  0.26084000  1.0 -0.0295435779
C  C334  1  0.26326000  0.79520000  0.23916000  1.0 -0.0295435779
C  C335  1  0.26326000  0.70480000  0.73916000  1.0 -0.0295435779
C  C336  1  0.73674000  0.20480000  0.76084000  1.0 -0.0295435779
C  C337  1  0.63049000  0.33670000  0.18909000  1.0 0.078996391
C  C338  1  0.36951000  0.83670000  0.31091000  1.0 0.078996391
C  C339  1  0.36951000  0.66330000  0.81091000  1.0 0.078996391
C  C340  1  0.63049000  0.16330000  0.68909000  1.0 0.078996391
C  C341  1  0.57213000  0.35980000  0.15243000  1.0 0.078996391
C  C342  1  0.42787000  0.85980000  0.34757000  1.0 0.078996391
C  C343  1  0.42787000  0.64020000  0.84757000  1.0 0.078996391
C  C344  1  0.57213000  0.14020000  0.65243000  1.0 0.078996391
C  C345  1  0.49811000  0.57170000  0.11121000  1.0 -0.0295435779
C  C346  1  0.50189000  0.07170000  0.38879000  1.0 -0.0295435779
C  C347  1  0.50189000  0.42830000  0.88879000  1.0 -0.0295435779
C  C348  1  0.49811000  0.92830000  0.61121000  1.0 -0.0295435779
C  C349  1  0.36657000  0.26430000  0.00737000  1.0 -0.1192833268
C  C350  1  0.63343000  0.76430000  0.49263000  1.0 -0.1192833268
C  C351  1  0.63343000  0.73570000  0.99263000  1.0 -0.1192833268
C  C352  1  0.36657000  0.23570000  0.50737000  1.0 -0.1192833268
C  C353  1  0.52612000  0.33590000  0.11672000  1.0 -0.2200872489
C  C354  1  0.47388000  0.83590000  0.38328000  1.0 -0.2200872489
C  C355  1  0.47388000  0.66410000  0.88328000  1.0 -0.2200872489
C  C356  1  0.52612000  0.16410000  0.61672000  1.0 -0.2200872489
C  C357  1  0.49380000  0.62130000  0.10520000  1.0 0.5490747993
C  C358  1  0.50620000  0.12130000  0.39480000  1.0 0.5490747993
C  C359  1  0.50620000  0.37870000  0.89480000  1.0 0.5490747993
C  C360  1  0.49380000  0.87870000  0.60520000  1.0 0.5490747993
C  C361  1  0.39099000  0.32580000  0.96669000  1.0 -0.1411722162
C  C362  1  0.60901000  0.82580000  0.53331000  1.0 -0.1411722162
C  C363  1  0.60901000  0.67420000  0.03331000  1.0 -0.1411722162
C  C364  1  0.39099000  0.17420000  0.46669000  1.0 -0.1411722162
C  C365  1  0.66521000  0.27250000  0.23501000  1.0 -0.1017459117
C  C366  1  0.33479000  0.77250000  0.26499000  1.0 -0.1017459117
C  C367  1  0.33479000  0.72750000  0.76499000  1.0 -0.1017459117
C  C368  1  0.66521000  0.22750000  0.73501000  1.0 -0.1017459117
C  C369  1  0.51026000  0.42850000  0.11716000  1.0 0.078996391
C  C370  1  0.48974000  0.92850000  0.38284000  1.0 0.078996391
C  C371  1  0.48974000  0.57150000  0.88284000  1.0 0.078996391
C  C372  1  0.51026000  0.07150000  0.61716000  1.0 0.078996391
C  C373  1  0.42630000  0.34990000  0.00330000  1.0 -0.1514811382
C  C374  1  0.57370000  0.84990000  0.49670000  1.0 -0.1514811382
C  C375  1  0.57370000  0.65010000  0.99670000  1.0 -0.1514811382
C  C376  1  0.42630000  0.15010000  0.50330000  1.0 -0.1514811382
C  C377  1  0.33155000  0.25610000  0.92965000  1.0 0.2218314289
C  C378  1  0.66845000  0.75610000  0.57035000  1.0 0.2218314289
C  C379  1  0.66845000  0.74390000  0.07035000  1.0 0.2218314289
C  C380  1  0.33155000  0.24390000  0.42965000  1.0 0.2218314289
C  C381  1  0.46660000  0.40370000  0.08240000  1.0 -0.2099592424
C  C382  1  0.53340000  0.90370000  0.41760000  1.0 -0.2099592424
C  C383  1  0.53340000  0.59630000  0.91760000  1.0 -0.2099592424
C  C384  1  0.46660000  0.09630000  0.58240000  1.0 -0.2099592424
C  C385  1  0.70470000  0.35750000  0.21350000  1.0 -0.1674689397
C  C386  1  0.29530000  0.85750000  0.28650000  1.0 -0.1674689397
C  C387  1  0.29530000  0.64250000  0.78650000  1.0 -0.1674689397
C  C388  1  0.70470000  0.14250000  0.71350000  1.0 -0.1674689397
C  C389  1  0.56259000  0.40540000  0.15249000  1.0 -0.2099592424
C  C390  1  0.43741000  0.90540000  0.34751000  1.0 -0.2099592424
C  C391  1  0.43741000  0.59460000  0.84751000  1.0 -0.2099592424
C  C392  1  0.56259000  0.09460000  0.65249000  1.0 -0.2099592424
C  C393  1  0.42840000  0.50020000  0.09580000  1.0 -0.1514811382
C  C394  1  0.57160000  0.00020000  0.40420000  1.0 -0.1514811382
C  C395  1  0.57160000  0.49980000  0.90420000  1.0 -0.1514811382
C  C396  1  0.42840000  0.99980000  0.59580000  1.0 -0.1514811382
C  C397  1  0.61200000  0.29380000  0.19980000  1.0 -0.1596077369
C  C398  1  0.38800000  0.79380000  0.30020000  1.0 -0.1596077369
C  C399  1  0.38800000  0.70620000  0.80020000  1.0 -0.1596077369
C  C400  1  0.61200000  0.20620000  0.69980000  1.0 -0.1596077369
C  C401  1  0.75767000  0.33710000  0.25007000  1.0 -0.1017459117
C  C402  1  0.24233000  0.83710000  0.24993000  1.0 -0.1096836895
C  C403  1  0.24233000  0.66290000  0.74993000  1.0 -0.1017459117
C  C404  1  0.75767000  0.16290000  0.75007000  1.0 -0.1017459117
C  C405  1  0.57200000  0.54980000  0.13420000  1.0 -0.1017459117
C  C406  1  0.42800000  0.04980000  0.36580000  1.0 -0.1017459117
C  C407  1  0.42800000  0.45020000  0.86580000  1.0 -0.1017459117
C  C408  1  0.57200000  0.95020000  0.63420000  1.0 -0.1017459117
C  C409  1  0.57570000  0.50430000  0.13740000  1.0 -0.1514811382
C  C410  1  0.42430000  0.00430000  0.36260000  1.0 -0.1514811382
C  C411  1  0.42430000  0.49570000  0.86260000  1.0 -0.1514811382
C  C412  1  0.57570000  0.99570000  0.63740000  1.0 -0.1514811382
C  C413  1  0.42500000  0.54620000  0.09220000  1.0 -0.1192833268
C  C414  1  0.57500000  0.04620000  0.40780000  1.0 -0.1192833268
C  C415  1  0.57500000  0.45380000  0.90780000  1.0 -0.1192833268
C  C416  1  0.42500000  0.95380000  0.59220000  1.0 -0.1192833268
C  C417  1  0.95960000  0.18440000  0.34160000  1.0 0.0509367866
C  C418  1  0.04040000  0.68440000  0.15840000  1.0 0.0509367866
C  C419  1  0.04040000  0.81560000  0.65840000  1.0 0.0509367866
C  C420  1  0.95960000  0.31560000  0.84160000  1.0 0.0509367866
C  C421  1  0.05030000  0.14530000  0.31180000  1.0 -0.1808742355
C  C422  1  0.94970000  0.64530000  0.18820000  1.0 -0.1808742355
C  C423  1  0.94970000  0.85470000  0.68820000  1.0 -0.1808742355
C  C424  1  0.05030000  0.35470000  0.81180000  1.0 -0.1808742355
C  C425  1  0.11590000  0.19200000  0.37220000  1.0 -0.1916631282
C  C426  1  0.88410000  0.69200000  0.12780000  1.0 -0.1916631282
C  C427  1  0.88410000  0.80800000  0.62780000  1.0 -0.1916631282
C  C428  1  0.11590000  0.30800000  0.87220000  1.0 -0.1916631282
C  C429  1  0.71290000  0.14830000  0.52120000  1.0 0.0706194976
C  C430  1  0.28710000  0.64830000  0.97880000  1.0 0.0706194976
C  C431  1  0.28710000  0.85170000  0.47880000  1.0 0.0706194976
C  C432  1  0.71290000  0.35170000  0.02120000  1.0 0.0706194976
C  C433  1  0.84630000  0.15360000  0.57720000  1.0 -0.3382450238
C  C434  1  0.15370000  0.65360000  0.92280000  1.0 -0.3382450238
C  C435  1  0.15370000  0.84640000  0.42280000  1.0 -0.3382450238
C  C436  1  0.84630000  0.34640000  0.07720000  1.0 -0.3382450238
C  C437  1  0.70710000  0.14680000  0.59180000  1.0 -0.3524287686
C  C438  1  0.29290000  0.64680000  0.90820000  1.0 -0.3524287686
C  C439  1  0.29290000  0.85320000  0.40820000  1.0 -0.3524287686
C  C440  1  0.70710000  0.35320000  0.09180000  1.0 -0.3524287686
C  C441  1  0.20600000  0.34470000  0.52140000  1.0 0.1119930601
C  C442  1  0.79400000  0.84470000  0.97860000  1.0 0.1119930601
C  C443  1  0.79400000  0.65530000  0.47860000  1.0 0.1119930601
C  C444  1  0.20600000  0.15530000  0.02140000  1.0 0.1119930601
C  C445  1  0.32610000  0.34560000  0.58320000  1.0 -0.3319319979
C  C446  1  0.67390000  0.84560000  0.91680000  1.0 -0.3319319979
C  C447  1  0.67390000  0.65440000  0.41680000  1.0 -0.3319319979
C  C448  1  0.32610000  0.15440000  0.08320000  1.0 -0.3319319979
C  C449  1  0.17730000  0.35500000  0.58780000  1.0 -0.3576891319
C  C450  1  0.82270000  0.85500000  0.91220000  1.0 -0.3576891319
C  C451  1  0.82270000  0.64500000  0.41220000  1.0 -0.3576891319
C  C452  1  0.17730000  0.14500000  0.08780000  1.0 -0.3576891319
C  C453  1  0.84510000  0.80020000  0.48880000  1.0 -0.1596077369
C  C454  1  0.15490000  0.30020000  0.01120000  1.0 -0.1596077369
C  C455  1  0.15490000  0.19980000  0.51120000  1.0 -0.1596077369
C  C456  1  0.84510000  0.69980000  0.98880000  1.0 -0.1596077369
C  C457  1  0.84680000  0.82700000  0.45500000  1.0 -0.1331415768
C  C458  1  0.15320000  0.32700000  0.04500000  1.0 -0.1331415768
C  C459  1  0.15320000  0.17300000  0.54500000  1.0 -0.1331415768
C  C460  1  0.84680000  0.67300000  0.95500000  1.0 -0.1331415768
C  C461  1  0.95740000  0.78320000  0.44150000  1.0 -0.0567136629
C  C462  1  0.04260000  0.28320000  0.05850000  1.0 -0.0567136629
C  C463  1  0.04260000  0.21680000  0.55850000  1.0 -0.0567136629
C  C464  1  0.95740000  0.71680000  0.94150000  1.0 -0.0567136629
C  C465  1  0.96030000  0.75720000  0.47700000  1.0 -0.0736711518
C  C466  1  0.03970000  0.25720000  0.02300000  1.0 -0.0736711518
C  C467  1  0.03970000  0.24280000  0.52300000  1.0 -0.0736711518
C  C468  1  0.96030000  0.74280000  0.97700000  1.0 -0.0736711518
C  C469  1  0.98090000  0.79960000  0.50580000  1.0 -0.1192833268
C  C470  1  0.01910000  0.29960000  0.99420000  1.0 -0.1192833268
C  C471  1  0.01910000  0.20040000  0.49420000  1.0 -0.1192833268
C  C472  1  0.98090000  0.70040000  0.00580000  1.0 -0.1192833268
C  C473  1  0.98530000  0.82790000  0.47440000  1.0 -0.1596077369
C  C474  1  0.01470000  0.32790000  0.02560000  1.0 -0.1596077369
C  C475  1  0.01470000  0.17210000  0.52560000  1.0 -0.1596077369
C  C476  1  0.98530000  0.67210000  0.97440000  1.0 -0.1596077369
C  C477  1  0.87250000  0.78170000  0.42850000  1.0 -0.0516711022
C  C478  1  0.12750000  0.28170000  0.07150000  1.0 -0.0516711022
C  C479  1  0.12750000  0.21830000  0.57150000  1.0 -0.0516711022
C  C480  1  0.87250000  0.71830000  0.92850000  1.0 -0.0516711022
C  C481  1  0.87810000  0.75720000  0.46110000  1.0 -0.0390160556
C  C482  1  0.12190000  0.25720000  0.03890000  1.0 -0.0390160556
C  C483  1  0.12190000  0.24280000  0.53890000  1.0 -0.0390160556
C  C484  1  0.87810000  0.74280000  0.96110000  1.0 -0.0390160556
C  C485  1  0.13830000  0.73690000  0.48830000  1.0 -0.0390160556
C  C486  1  0.86170000  0.23690000  0.01170000  1.0 -0.0390160556
C  C487  1  0.86170000  0.26310000  0.51170000  1.0 -0.0390160556
C  C488  1  0.13830000  0.76310000  0.98830000  1.0 -0.0390160556
C  C489  1  0.10960000  0.71110000  0.45320000  1.0 -0.0567136629
C  C490  1  0.89040000  0.21110000  0.04680000  1.0 -0.0567136629
C  C491  1  0.89040000  0.28890000  0.54680000  1.0 -0.0567136629
C  C492  1  0.10960000  0.78890000  0.95320000  1.0 -0.0567136629
N  N1  1  0.03200000  0.17470000  0.33880000  1.0 0.0706194976
N  N2  1  0.96800000  0.67470000  0.16120000  1.0 0.0706194976
N  N3  1  0.96800000  0.82530000  0.66120000  1.0 0.0706194976
N  N4  1  0.03200000  0.32530000  0.83880000  1.0 0.0706194976
N  N5  1  0.75451000  0.15000000  0.56201000  1.0 0.0322192089
N  N6  1  0.24549000  0.65000000  0.93799000  1.0 0.0322192089
N  N7  1  0.24549000  0.85000000  0.43799000  1.0 0.0322192089
N  N8  1  0.75451000  0.35000000  0.06201000  1.0 0.0322192089
N  N9  1  0.23486000  0.34660000  0.56266000  1.0 0.0437970693
N  N10  1  0.76514000  0.84660000  0.93734000  1.0 0.0437970693
N  N11  1  0.76514000  0.65340000  0.43734000  1.0 0.0437970693
N  N12  1  0.23486000  0.15340000  0.06266000  1.0 0.0437970693
O  O1  1  0.83296000  0.81074000  0.13396000  1.0 -0.4008813014
O  O2  1  0.16704000  0.31074000  0.36604000  1.0 -0.4008813014
O  O3  1  0.16704000  0.18926000  0.86604000  1.0 -0.4008813014
O  O4  1  0.83296000  0.68926000  0.63396000  1.0 -0.3880256311
O  O5  1  0.66737000  0.19205000  0.36427000  1.0 -0.5501770869
O  O6  1  0.33263000  0.69205000  0.13573000  1.0 -0.5501770869
O  O7  1  0.33263000  0.80795000  0.63573000  1.0 -0.5501770869
O  O8  1  0.66737000  0.30795000  0.86427000  1.0 -0.5501770869
O  O9  1  0.17578000  0.72984000  0.60188000  1.0 -0.5381462098
O  O10  1  0.82422000  0.22984000  0.89812000  1.0 -0.5381462098
O  O11  1  0.82422000  0.27016000  0.39812000  1.0 -0.5381462098
O  O12  1  0.17578000  0.77016000  0.10188000  1.0 -0.5381462098
O  O13  1  0.75294000  0.76052000  0.19124000  1.0 -0.3880256311
O  O14  1  0.24706000  0.26052000  0.30876000  1.0 -0.3880256311
O  O15  1  0.24706000  0.23948000  0.80876000  1.0 -0.3846104637
O  O16  1  0.75294000  0.73948000  0.69124000  1.0 -0.3846104637
O  O17  1  0.73156000  0.87970000  0.07826000  1.0 -0.446547401
O  O18  1  0.26844000  0.37970000  0.42174000  1.0 -0.446547401
O  O19  1  0.26844000  0.12030000  0.92174000  1.0 -0.446547401
O  O20  1  0.73156000  0.62030000  0.57826000  1.0 -0.446547401
O  O21  1  0.99156000  0.73158000  0.56246000  1.0 -0.5381462098
O  O22  1  0.00844000  0.23158000  0.93754000  1.0 -0.5381462098
O  O23  1  0.00844000  0.26842000  0.43754000  1.0 -0.5381462098
O  O24  1  0.99156000  0.76842000  0.06246000  1.0 -0.5381462098
O  O25  1  0.67588000  0.85955000  0.12898000  1.0 -0.3104099527
O  O26  1  0.32412000  0.35955000  0.37102000  1.0 -0.3104099527
O  O27  1  0.32412000  0.14045000  0.87102000  1.0 -0.3104099527
O  O28  1  0.67588000  0.64045000  0.62898000  1.0 -0.3104099527
O  O29  1  0.19426000  0.78763000  0.56516000  1.0 -0.5100760555
O  O30  1  0.80574000  0.28763000  0.93484000  1.0 -0.5009252862
O  O31  1  0.80574000  0.21237000  0.43484000  1.0 -0.5009252862
O  O32  1  0.19426000  0.71237000  0.06516000  1.0 -0.5100760555
O  O33  1  0.93446000  0.21146000  0.36696000  1.0 -0.5558308408
O  O34  1  0.06554000  0.71146000  0.13304000  1.0 -0.5558308408
O  O35  1  0.06554000  0.78854000  0.63304000  1.0 -0.5558308408
O  O36  1  0.93446000  0.28854000  0.86696000  1.0 -0.5558308408
O  O37  1  0.64294000  0.27533000  0.95694000  1.0 -0.5190316186
O  O38  1  0.35706000  0.77533000  0.54306000  1.0 -0.5190316186
O  O39  1  0.35706000  0.72467000  0.04306000  1.0 -0.5190316186
O  O40  1  0.64294000  0.22467000  0.45694000  1.0 -0.5190316186
O  O41  1  0.65687000  0.70558000  0.18597000  1.0 -0.6180349559
O  O42  1  0.34313000  0.20558000  0.31403000  1.0 -0.6180349559
O  O43  1  0.34313000  0.29442000  0.81403000  1.0 -0.6180349559
O  O44  1  0.65687000  0.79442000  0.68597000  1.0 -0.6180349559
O  O45  1  0.75112000  0.11779000  0.41522000  1.0 -0.5009252862
O  O46  1  0.24888000  0.61779000  0.08478000  1.0 -0.5009252862
O  O47  1  0.24888000  0.88221000  0.58478000  1.0 -0.5009252862
O  O48  1  0.75112000  0.38221000  0.91522000  1.0 -0.5009252862
O  O49  1  0.82447000  0.13982000  0.37117000  1.0 -0.5190316186
O  O50  1  0.17553000  0.63982000  0.12883000  1.0 -0.5190316186
O  O51  1  0.17553000  0.86018000  0.62883000  1.0 -0.5190316186
O  O52  1  0.82447000  0.36018000  0.87117000  1.0 -0.5190316186
O  O53  1  0.50541000  0.26001000  0.92521000  1.0 -0.5977396861
O  O54  1  0.49459000  0.76001000  0.57479000  1.0 -0.5977396861
O  O55  1  0.49459000  0.73999000  0.07479000  1.0 -0.5977396861
O  O56  1  0.50541000  0.23999000  0.42521000  1.0 -0.5977396861
O  O57  1  0.96987000  0.78858000  0.15637000  1.0 -0.5009252862
O  O58  1  0.03013000  0.28858000  0.34363000  1.0 -0.5009252862
O  O59  1  0.03013000  0.21142000  0.84363000  1.0 -0.5009252862
O  O60  1  0.96987000  0.71142000  0.65637000  1.0 -0.5009252862
O  O61  1  0.08872000  0.36059000  0.42722000  1.0 -0.4674527392
O  O62  1  0.91128000  0.86059000  0.07278000  1.0 -0.4674527392
O  O63  1  0.91128000  0.63941000  0.57278000  1.0 -0.4674527392
O  O64  1  0.08872000  0.13941000  0.92722000  1.0 -0.4674527392
O  O65  1  0.95225000  0.35536000  0.38705000  1.0 -0.5271644489
O  O66  1  0.04775000  0.85536000  0.11295000  1.0 -0.5271644489
O  O67  1  0.04775000  0.64464000  0.61295000  1.0 -0.5271644489
O  O68  1  0.95225000  0.14464000  0.88705000  1.0 -0.5271644489
O  O69  1  0.84898000  0.73424000  0.55078000  1.0 -0.4674527392
O  O70  1  0.15102000  0.23424000  0.94922000  1.0 -0.4674527392
O  O71  1  0.15102000  0.26576000  0.44922000  1.0 -0.4674527392
O  O72  1  0.84898000  0.76576000  0.05078000  1.0 -0.4674527392
O  O73  1  0.53097000  0.21320000  0.33867000  1.0 -0.6180349559
O  O74  1  0.46903000  0.71320000  0.16133000  1.0 -0.6180349559
O  O75  1  0.46903000  0.78680000  0.66133000  1.0 -0.6180349559
O  O76  1  0.53097000  0.28680000  0.83867000  1.0 -0.6180349559
O  O77  1  0.85241000  0.29579000  0.32211000  1.0 -0.5381462098
O  O78  1  0.14759000  0.79579000  0.17789000  1.0 -0.5381462098
O  O79  1  0.14759000  0.70421000  0.67789000  1.0 -0.5381462098
O  O80  1  0.85241000  0.20421000  0.82211000  1.0 -0.5381462098
O  O81  1  0.76402000  0.23651000  0.31012000  1.0 -0.5100760555
O  O82  1  0.23598000  0.73651000  0.18988000  1.0 -0.5100760555
O  O83  1  0.23598000  0.76349000  0.68988000  1.0 -0.5100760555
O  O84  1  0.76402000  0.26349000  0.81012000  1.0 -0.5100760555
O  O85  1  0.31351000  0.21487000  0.93161000  1.0 -0.406582889
O  O86  1  0.68649000  0.71487000  0.56839000  1.0 -0.406582889
O  O87  1  0.68649000  0.78513000  0.06839000  1.0 -0.406582889
O  O88  1  0.31351000  0.28513000  0.43161000  1.0 -0.406582889
O  O89  1  0.42553000  0.63708000  0.08053000  1.0 -0.5558308408
O  O90  1  0.57447000  0.13708000  0.41947000  1.0 -0.5558308408
O  O91  1  0.57447000  0.36292000  0.91947000  1.0 -0.5558308408
O  O92  1  0.42553000  0.86292000  0.58053000  1.0 -0.5558308408
O  O93  1  0.55957000  0.64424000  0.12397000  1.0 -0.659694244
O  O94  1  0.44043000  0.14424000  0.37603000  1.0 -0.659694244
O  O95  1  0.44043000  0.35576000  0.87603000  1.0 -0.659694244
O  O96  1  0.55957000  0.85576000  0.62397000  1.0 -0.659694244
O  O97  1  0.32473000  0.27312000  0.89413000  1.0 -0.5381462098
O  O98  1  0.67527000  0.77312000  0.60587000  1.0 -0.5381462098
O  O99  1  0.67527000  0.72688000  0.10587000  1.0 -0.5381462098
O  O100  1  0.32473000  0.22688000  0.39413000  1.0 -0.5381462098
O  O101  1  0.57768000  0.78840000  0.14528000  1.0 -0.8271688268
O  O102  1  0.42232000  0.28840000  0.35472000  1.0 -0.8271688268
O  O103  1  0.42232000  0.21160000  0.85472000  1.0 -0.8271688268
O  O104  1  0.57768000  0.71160000  0.64528000  1.0 -0.8271688268
O  O105  1  0.74702000  0.15004000  0.49322000  1.0 -0.4302970514
O  O106  1  0.25298000  0.65004000  0.00678000  1.0 -0.4302970514
O  O107  1  0.25298000  0.84996000  0.50678000  1.0 -0.4302970514
O  O108  1  0.74702000  0.34996000  0.99322000  1.0 -0.4302970514
O  O109  1  0.25209000  0.33984000  0.49779000  1.0 -0.4008813014
O  O110  1  0.74791000  0.83984000  0.00221000  1.0 -0.4008813014
O  O111  1  0.74791000  0.66016000  0.50221000  1.0 -0.4008813014
O  O112  1  0.25209000  0.16016000  0.99779000  1.0 -0.4008813014
O  O113  1  0.13470000  0.15190000  0.34390000  1.0 -0.0516711022
O  O114  1  0.86530000  0.65190000  0.15610000  1.0 -0.0516711022
O  O115  1  0.86530000  0.84810000  0.65610000  1.0 -0.0516711022
O  O116  1  0.13470000  0.34810000  0.84390000  1.0 -0.0516711022
