# DDEC6 charges by PACMAN v1.1 (https://github.com/mtap-research/PACMAN-charge/)
data_KICDIN_ASR_pacman
_symmetry_space_group_name_H-M   'P 1'
_cell_length_a   15.92680000
_cell_length_b   29.92790000
_cell_length_c   16.34640000
_cell_angle_alpha   90.00000000
_cell_angle_beta   102.82400000
_cell_angle_gamma   90.00000000
_symmetry_Int_Tables_number   1
_chemical_formula_structural   Fe3H36C56O13
_chemical_formula_sum   'Fe12 H144 C224 O52'
_cell_volume   7597.25422753
_cell_formula_units_Z   4
loop_
 _symmetry_equiv_pos_site_id
 _symmetry_equiv_pos_as_xyz
  1  'x, y, z'
loop_
 _atom_site_type_symbol
 _atom_site_label
 _atom_site_symmetry_multiplicity
 _atom_site_fract_x
 _atom_site_fract_y
 _atom_site_fract_z
 _atom_site_occupancy
 _atom_site_charge
Fe  Fe1  1  0.91802000  0.28220000  0.74054000  1.0 1.1488929753
Fe  Fe2  1  0.58198000  0.78220000  0.25946000  1.0 1.1488929753
Fe  Fe3  1  0.08198000  0.71780000  0.25946000  1.0 1.1488929753
Fe  Fe4  1  0.41802000  0.21780000  0.74054000  1.0 1.1488929753
Fe  Fe5  1  0.04844000  0.20715000  0.72180000  1.0 0.9392707114
Fe  Fe6  1  0.45156000  0.70715000  0.27820000  1.0 0.9392707114
Fe  Fe7  1  0.95156000  0.79285000  0.27820000  1.0 0.9392707114
Fe  Fe8  1  0.54844000  0.29285000  0.72180000  1.0 0.9392707114
Fe  Fe9  1  0.22410000  0.17736000  0.86279000  1.0 1.0773596232
Fe  Fe10  1  0.27590000  0.67736000  0.13721000  1.0 1.0773596232
Fe  Fe11  1  0.77590000  0.82264000  0.13721000  1.0 1.0773596232
Fe  Fe12  1  0.72410000  0.32264000  0.86279000  1.0 1.0773596232
H  H1  1  0.86983000  0.15851000  0.70618000  1.0 0.0719464386
H  H2  1  0.63017000  0.65851000  0.29382000  1.0 0.0719464386
H  H3  1  0.13017000  0.84149000  0.29382000  1.0 0.0719464386
H  H4  1  0.36983000  0.34149000  0.70618000  1.0 0.0719464386
H  H5  1  0.79947000  0.19756000  0.68898000  1.0 0.0887338546
H  H6  1  0.70053000  0.69756000  0.31102000  1.0 0.0887338546
H  H7  1  0.20053000  0.80244000  0.31102000  1.0 0.0887338546
H  H8  1  0.29947000  0.30244000  0.68898000  1.0 0.0887338546
H  H9  1  0.85246000  0.18790000  0.78252000  1.0 0.1184339942
H  H10  1  0.64754000  0.68790000  0.21748000  1.0 0.1184339942
H  H11  1  0.14754000  0.81210000  0.21748000  1.0 0.1184339942
H  H12  1  0.35246000  0.31210000  0.78252000  1.0 0.1184339942
H  H13  1  0.59612000  0.35807000  0.61800000  1.0 0.1184339942
H  H14  1  0.90388000  0.85807000  0.38200000  1.0 0.1184339942
H  H15  1  0.40388000  0.64193000  0.38200000  1.0 0.1184339942
H  H16  1  0.09612000  0.14193000  0.61800000  1.0 0.1184339942
H  H17  1  0.57380000  0.30773000  0.27885000  1.0 0.1184339942
H  H18  1  0.92620000  0.80773000  0.72115000  1.0 0.1184339942
H  H19  1  0.42620000  0.69227000  0.72115000  1.0 0.1184339942
H  H20  1  0.07380000  0.19227000  0.27885000  1.0 0.1184339942
H  H21  1  0.77647000  0.28857000  0.53366000  1.0 0.1283154067
H  H22  1  0.72353000  0.78857000  0.46634000  1.0 0.1283154067
H  H23  1  0.22353000  0.71143000  0.46634000  1.0 0.1283154067
H  H24  1  0.27647000  0.21143000  0.53366000  1.0 0.1283154067
H  H25  1  0.85194000  0.76074000  0.98114000  1.0 0.1184339942
H  H26  1  0.64806000  0.26074000  0.01886000  1.0 0.1184339942
H  H27  1  0.14806000  0.23926000  0.01886000  1.0 0.1184339942
H  H28  1  0.35194000  0.73926000  0.98114000  1.0 0.1184339942
H  H29  1  0.95098000  0.65608000  0.12588000  1.0 0.1184339942
H  H30  1  0.54902000  0.15608000  0.87412000  1.0 0.1184339942
H  H31  1  0.04902000  0.34392000  0.87412000  1.0 0.1184339942
H  H32  1  0.45098000  0.84392000  0.12588000  1.0 0.1184339942
H  H33  1  0.54512000  0.35584000  0.03431000  1.0 0.1184339942
H  H34  1  0.95488000  0.85584000  0.96569000  1.0 0.1184339942
H  H35  1  0.45488000  0.64416000  0.96569000  1.0 0.1184339942
H  H36  1  0.04512000  0.14416000  0.03431000  1.0 0.1184339942
H  H37  1  0.58325000  0.43275000  0.37322000  1.0 0.1108961908
H  H38  1  0.91675000  0.93275000  0.62678000  1.0 0.1108961908
H  H39  1  0.41675000  0.56725000  0.62678000  1.0 0.1108961908
H  H40  1  0.08325000  0.06725000  0.37322000  1.0 0.1108961908
H  H41  1  0.48389000  0.41131000  0.12615000  1.0 0.1184339942
H  H42  1  0.01611000  0.91131000  0.87385000  1.0 0.1184339942
H  H43  1  0.51611000  0.58869000  0.87385000  1.0 0.1184339942
H  H44  1  0.98389000  0.08869000  0.12615000  1.0 0.1184339942
H  H45  1  0.39543000  0.46744000  0.14774000  1.0 0.1184339942
H  H46  1  0.10457000  0.96744000  0.85226000  1.0 0.1184339942
H  H47  1  0.60457000  0.53256000  0.85226000  1.0 0.1184339942
H  H48  1  0.89543000  0.03256000  0.14774000  1.0 0.1184339942
H  H49  1  0.79533000  0.43883000  0.85732000  1.0 0.1184339942
H  H50  1  0.70467000  0.93883000  0.14268000  1.0 0.1184339942
H  H51  1  0.20467000  0.56117000  0.14268000  1.0 0.1184339942
H  H52  1  0.29533000  0.06117000  0.85732000  1.0 0.1184339942
H  H53  1  0.35213000  0.54232000  0.13204000  1.0 0.1184339942
H  H54  1  0.14787000  0.04232000  0.86796000  1.0 0.1184339942
H  H55  1  0.64787000  0.45768000  0.86796000  1.0 0.1184339942
H  H56  1  0.85213000  0.95768000  0.13204000  1.0 0.1184339942
H  H57  1  0.85144000  0.71933000  0.86089000  1.0 0.1108961908
H  H58  1  0.64856000  0.21933000  0.13911000  1.0 0.1108961908
H  H59  1  0.14856000  0.28067000  0.13911000  1.0 0.1108961908
H  H60  1  0.35144000  0.78067000  0.86089000  1.0 0.1108961908
H  H61  1  0.54199000  0.38629000  0.48219000  1.0 0.1184339942
H  H62  1  0.95801000  0.88629000  0.51781000  1.0 0.1184339942
H  H63  1  0.45801000  0.61371000  0.51781000  1.0 0.1184339942
H  H64  1  0.04199000  0.11371000  0.48219000  1.0 0.1184339942
H  H65  1  0.80771000  0.51627000  0.84602000  1.0 0.1108961908
H  H66  1  0.69229000  0.01627000  0.15398000  1.0 0.1108961908
H  H67  1  0.19229000  0.48373000  0.15398000  1.0 0.1108961908
H  H68  1  0.30771000  0.98373000  0.84602000  1.0 0.1108961908
H  H69  1  0.48429000  0.30917000  0.92084000  1.0 0.1283154067
H  H70  1  0.01571000  0.80917000  0.07916000  1.0 0.1283154067
H  H71  1  0.51571000  0.69083000  0.07916000  1.0 0.1283154067
H  H72  1  0.98429000  0.19083000  0.92084000  1.0 0.1283154067
H  H73  1  0.97095000  0.42162000  0.71611000  1.0 0.1283154067
H  H74  1  0.52905000  0.92162000  0.28389000  1.0 0.1283154067
H  H75  1  0.02905000  0.57838000  0.28389000  1.0 0.1283154067
H  H76  1  0.47095000  0.07838000  0.71611000  1.0 0.1283154067
H  H77  1  0.71813000  0.31270000  0.39726000  1.0 0.1184339942
H  H78  1  0.78187000  0.81270000  0.60274000  1.0 0.1184339942
H  H79  1  0.28187000  0.68730000  0.60274000  1.0 0.1184339942
H  H80  1  0.21813000  0.18730000  0.39726000  1.0 0.1184339942
H  H81  1  0.95113000  0.61394000  0.00403000  1.0 0.1184339942
H  H82  1  0.54887000  0.11394000  0.99597000  1.0 0.1108961908
H  H83  1  0.04887000  0.38606000  0.99597000  1.0 0.1108961908
H  H84  1  0.45113000  0.88606000  0.00403000  1.0 0.1184339942
H  H85  1  0.35182000  0.24284000  0.06731000  1.0 0.1184339942
H  H86  1  0.14818000  0.74284000  0.93269000  1.0 0.1184339942
H  H87  1  0.64818000  0.75716000  0.93269000  1.0 0.1184339942
H  H88  1  0.85182000  0.25716000  0.06731000  1.0 0.1184339942
H  H89  1  0.89439000  0.57649000  0.89378000  1.0 0.1108961908
H  H90  1  0.60561000  0.07649000  0.10622000  1.0 0.1108961908
H  H91  1  0.10561000  0.42351000  0.10622000  1.0 0.1108961908
H  H92  1  0.39439000  0.92351000  0.89378000  1.0 0.1108961908
H  H93  1  0.41975000  0.28434000  0.18187000  1.0 0.1184339942
H  H94  1  0.08025000  0.78434000  0.81813000  1.0 0.1184339942
H  H95  1  0.58025000  0.71566000  0.81813000  1.0 0.1184339942
H  H96  1  0.91975000  0.21566000  0.18187000  1.0 0.1184339942
H  H97  1  0.93481000  0.68903000  0.77262000  1.0 0.1108961908
H  H98  1  0.56519000  0.18903000  0.22738000  1.0 0.1108961908
H  H99  1  0.06519000  0.31097000  0.22738000  1.0 0.1108961908
H  H100  1  0.43481000  0.81097000  0.77262000  1.0 0.1108961908
H  H101  1  0.05921000  0.64357000  0.47725000  1.0 0.1283154067
H  H102  1  0.44079000  0.14357000  0.52275000  1.0 0.1283154067
H  H103  1  0.94079000  0.35643000  0.52275000  1.0 0.1283154067
H  H104  1  0.55921000  0.85643000  0.47725000  1.0 0.1283154067
H  H105  1  0.60251000  0.50254000  0.32483000  1.0 0.1184339942
H  H106  1  0.89749000  0.00254000  0.67517000  1.0 0.1184339942
H  H107  1  0.39749000  0.49746000  0.67517000  1.0 0.1184339942
H  H108  1  0.10251000  0.99746000  0.32483000  1.0 0.1184339942
H  H109  1  0.87494000  0.70842000  0.63084000  1.0 0.1108961908
H  H110  1  0.62506000  0.20842000  0.36916000  1.0 0.1108961908
H  H111  1  0.12506000  0.29158000  0.36916000  1.0 0.1108961908
H  H112  1  0.37494000  0.79158000  0.63084000  1.0 0.1108961908
H  H113  1  0.03560000  0.60875000  0.59899000  1.0 0.1108961908
H  H114  1  0.46440000  0.10875000  0.40101000  1.0 0.1108961908
H  H115  1  0.96440000  0.39125000  0.40101000  1.0 0.1108961908
H  H116  1  0.53560000  0.89125000  0.59899000  1.0 0.1108961908
H  H117  1  0.99010000  0.49804000  0.71015000  1.0 0.1108961908
H  H118  1  0.50990000  0.99804000  0.28985000  1.0 0.1108961908
H  H119  1  0.00990000  0.50196000  0.28985000  1.0 0.1108961908
H  H120  1  0.49010000  0.00196000  0.71015000  1.0 0.1108961908
H  H121  1  0.90052000  0.74453000  0.51219000  1.0 0.1184339942
H  H122  1  0.59948000  0.24453000  0.48781000  1.0 0.1184339942
H  H123  1  0.09948000  0.25547000  0.48781000  1.0 0.1184339942
H  H124  1  0.40052000  0.75547000  0.51219000  1.0 0.1184339942
H  H125  1  0.93485000  0.56921000  0.65809000  1.0 0.1108961908
H  H126  1  0.56515000  0.06921000  0.34191000  1.0 0.1108961908
H  H127  1  0.06515000  0.43079000  0.34191000  1.0 0.1108961908
H  H128  1  0.43485000  0.93079000  0.65809000  1.0 0.1108961908
H  H129  1  0.56196000  0.57648000  0.31000000  1.0 0.1283154067
H  H130  1  0.93804000  0.07648000  0.69000000  1.0 0.1283154067
H  H131  1  0.43804000  0.42352000  0.69000000  1.0 0.1283154067
H  H132  1  0.06196000  0.92352000  0.31000000  1.0 0.1283154067
H  H133  1  0.87990000  0.21329000  0.58410000  1.0 0.1108961908
H  H134  1  0.62010000  0.71329000  0.41590000  1.0 0.1108961908
H  H135  1  0.12010000  0.78671000  0.41590000  1.0 0.1108961908
H  H136  1  0.37990000  0.28671000  0.58410000  1.0 0.1108961908
H  H137  1  0.80411000  0.20499000  0.63229000  1.0 0.0792705393
H  H138  1  0.69589000  0.70499000  0.36771000  1.0 0.0792705393
H  H139  1  0.19589000  0.79501000  0.36771000  1.0 0.0792705393
H  H140  1  0.30411000  0.29501000  0.63229000  1.0 0.0792705393
H  H141  1  0.87525000  0.16719000  0.63253000  1.0 0.0719464386
H  H142  1  0.62475000  0.66719000  0.36747000  1.0 0.0719464386
H  H143  1  0.12475000  0.83281000  0.36747000  1.0 0.0719464386
H  H144  1  0.37525000  0.33281000  0.63253000  1.0 0.0719464386
C  C1  1  0.85540000  0.18840000  0.72330000  1.0 -0.1071301187
C  C2  1  0.64460000  0.68840000  0.27670000  1.0 -0.1071301187
C  C3  1  0.14460000  0.81160000  0.27670000  1.0 -0.1071301187
C  C4  1  0.35540000  0.31160000  0.72330000  1.0 -0.1071301187
C  C5  1  0.62120000  0.34921000  0.57290000  1.0 -0.1017418447
C  C6  1  0.87880000  0.84921000  0.42710000  1.0 -0.1017418447
C  C7  1  0.37880000  0.65079000  0.42710000  1.0 -0.1017418447
C  C8  1  0.12120000  0.15079000  0.57290000  1.0 -0.1017418447
C  C9  1  0.72500000  0.30280000  0.67310000  1.0 0.6100232367
C  C10  1  0.77500000  0.80280000  0.32690000  1.0 0.6100232367
C  C11  1  0.27500000  0.69720000  0.32690000  1.0 0.6100232367
C  C12  1  0.22500000  0.19720000  0.67310000  1.0 0.6100232367
C  C13  1  0.68910000  0.32069000  0.58680000  1.0 -0.0322949301
C  C14  1  0.81090000  0.82069000  0.41320000  1.0 -0.0322949301
C  C15  1  0.31090000  0.67931000  0.41320000  1.0 -0.0322949301
C  C16  1  0.18910000  0.17931000  0.58680000  1.0 -0.0322949301
C  C17  1  0.58480000  0.36747000  0.33930000  1.0 0.0792705393
C  C18  1  0.91520000  0.86747000  0.66070000  1.0 0.0792705393
C  C19  1  0.41520000  0.63253000  0.66070000  1.0 0.0792705393
C  C20  1  0.08480000  0.13253000  0.33930000  1.0 0.0792705393
C  C21  1  0.90230000  0.71283000  0.06510000  1.0 -0.037378758
C  C22  1  0.59770000  0.21283000  0.93490000  1.0 -0.037378758
C  C23  1  0.09770000  0.28717000  0.93490000  1.0 -0.037378758
C  C24  1  0.40230000  0.78717000  0.06510000  1.0 -0.037378758
C  C25  1  0.41010000  0.27323000  0.98260000  1.0 -0.0322949301
C  C26  1  0.08990000  0.77323000  0.01740000  1.0 -0.0322949301
C  C27  1  0.58990000  0.72677000  0.01740000  1.0 -0.0322949301
C  C28  1  0.91010000  0.22677000  0.98260000  1.0 -0.0322949301
C  C29  1  0.56210000  0.33876000  0.27110000  1.0 -0.1997794787
C  C30  1  0.93790000  0.83876000  0.72890000  1.0 -0.1997794787
C  C31  1  0.43790000  0.66124000  0.72890000  1.0 -0.1997794787
C  C32  1  0.06210000  0.16124000  0.27110000  1.0 -0.1997794787
C  C33  1  0.87440000  0.37357000  0.79850000  1.0 0.5926973437
C  C34  1  0.62560000  0.87357000  0.20150000  1.0 0.5926973437
C  C35  1  0.12560000  0.62643000  0.20150000  1.0 0.5926973437
C  C36  1  0.37440000  0.12643000  0.79850000  1.0 0.5926973437
C  C37  1  0.72740000  0.30752000  0.52250000  1.0 -0.1017418447
C  C38  1  0.77260000  0.80752000  0.47750000  1.0 -0.1017418447
C  C39  1  0.27260000  0.69248000  0.47750000  1.0 -0.1017418447
C  C40  1  0.22740000  0.19248000  0.52250000  1.0 -0.1017418447
C  C41  1  0.87310000  0.73097000  0.98620000  1.0 -0.0906012143
C  C42  1  0.62690000  0.23097000  0.01380000  1.0 -0.0906012143
C  C43  1  0.12690000  0.26903000  0.01380000  1.0 -0.0906012143
C  C44  1  0.37310000  0.76903000  0.98620000  1.0 -0.0906012143
C  C45  1  0.91270000  0.74012000  0.14180000  1.0 0.5926973437
C  C46  1  0.58730000  0.24012000  0.85820000  1.0 0.5926973437
C  C47  1  0.08730000  0.25988000  0.85820000  1.0 0.5926973437
C  C48  1  0.41270000  0.75988000  0.14180000  1.0 0.5926973437
C  C49  1  0.45300000  0.56737000  0.21940000  1.0 -0.0609408031
C  C50  1  0.04700000  0.06737000  0.78060000  1.0 -0.0609408031
C  C51  1  0.54700000  0.43263000  0.78060000  1.0 -0.0609408031
C  C52  1  0.95300000  0.93263000  0.21940000  1.0 -0.0609408031
C  C53  1  0.93170000  0.66923000  0.07210000  1.0 -0.0770403679
C  C54  1  0.56830000  0.16923000  0.92790000  1.0 -0.0770403679
C  C55  1  0.06830000  0.33077000  0.92790000  1.0 -0.0770403679
C  C56  1  0.43170000  0.83077000  0.07210000  1.0 -0.0770403679
C  C57  1  0.50750000  0.33227000  0.04150000  1.0 -0.1496765342
C  C58  1  0.99250000  0.83227000  0.95850000  1.0 -0.1496765342
C  C59  1  0.49250000  0.66773000  0.95850000  1.0 -0.1496765342
C  C60  1  0.00750000  0.16773000  0.04150000  1.0 -0.1496765342
C  C61  1  0.48970000  0.32421000  0.12050000  1.0 0.0719464386
C  C62  1  0.01030000  0.82421000  0.87950000  1.0 0.0719464386
C  C63  1  0.51030000  0.67579000  0.87950000  1.0 0.0719464386
C  C64  1  0.98970000  0.17579000  0.12050000  1.0 0.0719464386
C  C65  1  0.88510000  0.42282000  0.79050000  1.0 -0.037378758
C  C66  1  0.61490000  0.92282000  0.20950000  1.0 -0.037378758
C  C67  1  0.11490000  0.57718000  0.20950000  1.0 -0.037378758
C  C68  1  0.38510000  0.07718000  0.79050000  1.0 -0.037378758
C  C69  1  0.56770000  0.41286000  0.32700000  1.0 -0.1997794787
C  C70  1  0.93230000  0.91286000  0.67300000  1.0 -0.1997794787
C  C71  1  0.43230000  0.58714000  0.67300000  1.0 -0.1997794787
C  C72  1  0.06770000  0.08714000  0.32700000  1.0 -0.1997794787
C  C73  1  0.99590000  0.71940000  0.40520000  1.0 0.5849471454
C  C74  1  0.50410000  0.21940000  0.59480000  1.0 0.5849471454
C  C75  1  0.00410000  0.28060000  0.59480000  1.0 0.5849471454
C  C76  1  0.49590000  0.78060000  0.40520000  1.0 0.5849471454
C  C77  1  0.62340000  0.35100000  0.42540000  1.0 0.0792705393
C  C78  1  0.87660000  0.85100000  0.57460000  1.0 0.0792705393
C  C79  1  0.37660000  0.64900000  0.57460000  1.0 0.0792705393
C  C80  1  0.12340000  0.14900000  0.42540000  1.0 0.0792705393
C  C81  1  0.52280000  0.35428000  0.19210000  1.0 0.0792705393
C  C82  1  0.97720000  0.85428000  0.80790000  1.0 0.0792705393
C  C83  1  0.47720000  0.64572000  0.80790000  1.0 0.0792705393
C  C84  1  0.02280000  0.14572000  0.19210000  1.0 0.0792705393
C  C85  1  0.50800000  0.40022000  0.18080000  1.0 -0.1997794787
C  C86  1  0.99200000  0.90022000  0.81920000  1.0 -0.1997794787
C  C87  1  0.49200000  0.59978000  0.81920000  1.0 -0.1997794787
C  C88  1  0.00800000  0.09978000  0.18080000  1.0 -0.1997794787
C  C89  1  0.42970000  0.48976000  0.18060000  1.0 -0.1579714994
C  C90  1  0.07030000  0.98976000  0.81940000  1.0 -0.1579714994
C  C91  1  0.57030000  0.51024000  0.81940000  1.0 -0.1579714994
C  C92  1  0.92970000  0.01024000  0.18060000  1.0 -0.1579714994
C  C93  1  0.52780000  0.42999000  0.24760000  1.0 0.0792705393
C  C94  1  0.97220000  0.92999000  0.75240000  1.0 0.0792705393
C  C95  1  0.47220000  0.57001000  0.75240000  1.0 0.0792705393
C  C96  1  0.02780000  0.07001000  0.24760000  1.0 0.0792705393
C  C97  1  0.83490000  0.45104000  0.82760000  1.0 -0.1017418447
C  C98  1  0.66510000  0.95104000  0.17240000  1.0 -0.1017418447
C  C99  1  0.16510000  0.54896000  0.17240000  1.0 -0.1017418447
C  C100  1  0.33490000  0.04896000  0.82760000  1.0 -0.1017418447
C  C101  1  0.36700000  0.24525000  0.90960000  1.0 0.5926973437
C  C102  1  0.13300000  0.74525000  0.09040000  1.0 0.5926973437
C  C103  1  0.63300000  0.75475000  0.09040000  1.0 0.5926973437
C  C104  1  0.86700000  0.25475000  0.90960000  1.0 0.5926973437
C  C105  1  0.40350000  0.53447000  0.17120000  1.0 -0.0906012143
C  C106  1  0.09650000  0.03447000  0.82880000  1.0 -0.0906012143
C  C107  1  0.59650000  0.46553000  0.82880000  1.0 -0.0906012143
C  C108  1  0.90350000  0.96553000  0.17120000  1.0 -0.0906012143
C  C109  1  0.87410000  0.70681000  0.91470000  1.0 -0.1496765342
C  C110  1  0.62590000  0.20681000  0.08530000  1.0 -0.1496765342
C  C111  1  0.12590000  0.29319000  0.08530000  1.0 -0.1496765342
C  C112  1  0.37410000  0.79319000  0.91470000  1.0 -0.1496765342
C  C113  1  0.58820000  0.36548000  0.49200000  1.0 -0.1496765342
C  C114  1  0.91180000  0.86548000  0.50800000  1.0 -0.1496765342
C  C115  1  0.41180000  0.63452000  0.50800000  1.0 -0.1496765342
C  C116  1  0.08820000  0.13452000  0.49200000  1.0 -0.1496765342
C  C117  1  0.42520000  0.61413000  0.21140000  1.0 0.5926973437
C  C118  1  0.07480000  0.11413000  0.78860000  1.0 0.5926973437
C  C119  1  0.57480000  0.38587000  0.78860000  1.0 0.5926973437
C  C120  1  0.92520000  0.88587000  0.21140000  1.0 0.5926973437
C  C121  1  0.84260000  0.49716000  0.82110000  1.0 -0.1579714994
C  C122  1  0.65740000  0.99716000  0.17890000  1.0 -0.1579714994
C  C123  1  0.15740000  0.50284000  0.17890000  1.0 -0.1579714994
C  C124  1  0.34260000  0.00284000  0.82110000  1.0 -0.1579714994
C  C125  1  0.46930000  0.30531000  0.97350000  1.0 -0.1017418447
C  C126  1  0.03070000  0.80531000  0.02650000  1.0 -0.1017418447
C  C127  1  0.53070000  0.69469000  0.02650000  1.0 -0.1017418447
C  C128  1  0.96930000  0.19469000  0.97350000  1.0 -0.1017418447
C  C129  1  0.98130000  0.69732000  0.48240000  1.0 -0.037378758
C  C130  1  0.51870000  0.19732000  0.51760000  1.0 -0.037378758
C  C131  1  0.01870000  0.30268000  0.51760000  1.0 -0.037378758
C  C132  1  0.48130000  0.80268000  0.48240000  1.0 -0.037378758
C  C133  1  0.50350000  0.47760000  0.23610000  1.0 0.0792705393
C  C134  1  0.99650000  0.97760000  0.76390000  1.0 0.0792705393
C  C135  1  0.49650000  0.52240000  0.76390000  1.0 0.0792705393
C  C136  1  0.00350000  0.02240000  0.23610000  1.0 0.0792705393
C  C137  1  0.93980000  0.44092000  0.74470000  1.0 -0.1017418447
C  C138  1  0.56020000  0.94092000  0.25530000  1.0 -0.1017418447
C  C139  1  0.06020000  0.55908000  0.25530000  1.0 -0.1017418447
C  C140  1  0.43980000  0.05908000  0.74470000  1.0 -0.1017418447
C  C141  1  0.69330000  0.32234000  0.44190000  1.0 -0.1496765342
C  C142  1  0.80670000  0.82234000  0.55810000  1.0 -0.1496765342
C  C143  1  0.30670000  0.67766000  0.55810000  1.0 -0.1496765342
C  C144  1  0.19330000  0.17766000  0.44190000  1.0 -0.1496765342
C  C145  1  0.90930000  0.66312000  0.92210000  1.0 0.0792705393
C  C146  1  0.59070000  0.16312000  0.07790000  1.0 0.0792705393
C  C147  1  0.09070000  0.33688000  0.07790000  1.0 0.0792705393
C  C148  1  0.40930000  0.83688000  0.92210000  1.0 0.0792705393
C  C149  1  0.93320000  0.64428000  0.99910000  1.0 -0.1496765342
C  C150  1  0.56680000  0.14428000  0.00090000  1.0 -0.1496765342
C  C151  1  0.06680000  0.35572000  0.00090000  1.0 -0.1496765342
C  C152  1  0.43320000  0.85572000  0.99910000  1.0 -0.1496765342
C  C153  1  0.93760000  0.63228000  0.70330000  1.0 0.0887338546
C  C154  1  0.56240000  0.13228000  0.29670000  1.0 0.0887338546
C  C155  1  0.06240000  0.36772000  0.29670000  1.0 0.0887338546
C  C156  1  0.43760000  0.86772000  0.70330000  1.0 0.0887338546
C  C157  1  0.39190000  0.26540000  0.06100000  1.0 -0.1017418447
C  C158  1  0.10810000  0.76540000  0.93900000  1.0 -0.1017418447
C  C159  1  0.60810000  0.73460000  0.93900000  1.0 -0.1017418447
C  C160  1  0.89190000  0.23460000  0.06100000  1.0 -0.1017418447
C  C161  1  0.90550000  0.59071000  0.84530000  1.0 -0.1997794787
C  C162  1  0.59450000  0.09071000  0.15470000  1.0 -0.1997794787
C  C163  1  0.09450000  0.40929000  0.15470000  1.0 -0.1997794787
C  C164  1  0.40550000  0.90929000  0.84530000  1.0 -0.1997794787
C  C165  1  0.91380000  0.63712000  0.84520000  1.0 0.0887338546
C  C166  1  0.58620000  0.13712000  0.15480000  1.0 0.0887338546
C  C167  1  0.08620000  0.36288000  0.15480000  1.0 0.0887338546
C  C168  1  0.41380000  0.86288000  0.84520000  1.0 0.0887338546
C  C169  1  0.95500000  0.65580000  0.62800000  1.0 0.0792705393
C  C170  1  0.54500000  0.15580000  0.37200000  1.0 0.0792705393
C  C171  1  0.04500000  0.34420000  0.37200000  1.0 0.0792705393
C  C172  1  0.45500000  0.84420000  0.62800000  1.0 0.0792705393
C  C173  1  0.43170000  0.29023000  0.12850000  1.0 -0.1579714994
C  C174  1  0.06830000  0.79023000  0.87150000  1.0 -0.1579714994
C  C175  1  0.56830000  0.70977000  0.87150000  1.0 -0.1579714994
C  C176  1  0.93170000  0.20977000  0.12850000  1.0 -0.1579714994
C  C177  1  0.90120000  0.51568000  0.77840000  1.0 0.0792705393
C  C178  1  0.59880000  0.01568000  0.22160000  1.0 0.0792705393
C  C179  1  0.09880000  0.48432000  0.22160000  1.0 0.0792705393
C  C180  1  0.40120000  0.98432000  0.77840000  1.0 0.0792705393
C  C181  1  0.92940000  0.65743000  0.77390000  1.0 -0.205876195
C  C182  1  0.57060000  0.15743000  0.22610000  1.0 -0.205876195
C  C183  1  0.07060000  0.34257000  0.22610000  1.0 -0.205876195
C  C184  1  0.42940000  0.84257000  0.77390000  1.0 -0.205876195
C  C185  1  0.02220000  0.65698000  0.50850000  1.0 -0.1017418447
C  C186  1  0.47780000  0.15698000  0.49150000  1.0 -0.1017418447
C  C187  1  0.97780000  0.34302000  0.49150000  1.0 -0.1017418447
C  C188  1  0.52220000  0.84302000  0.50850000  1.0 -0.1017418447
C  C189  1  0.91290000  0.56449000  0.77680000  1.0 0.0792705393
C  C190  1  0.58710000  0.06449000  0.22320000  1.0 0.0792705393
C  C191  1  0.08710000  0.43551000  0.22320000  1.0 0.0792705393
C  C192  1  0.41290000  0.93551000  0.77680000  1.0 0.0792705393
C  C193  1  0.55180000  0.51060000  0.28490000  1.0 -0.1496765342
C  C194  1  0.94820000  0.01060000  0.71510000  1.0 -0.1496765342
C  C195  1  0.44820000  0.48940000  0.71510000  1.0 -0.1496765342
C  C196  1  0.05180000  0.98940000  0.28490000  1.0 -0.1496765342
C  C197  1  0.91340000  0.69560000  0.60060000  1.0 -0.1579714994
C  C198  1  0.58660000  0.19560000  0.39940000  1.0 -0.1579714994
C  C199  1  0.08660000  0.30440000  0.39940000  1.0 -0.1579714994
C  C200  1  0.41340000  0.80440000  0.60060000  1.0 -0.1579714994
C  C201  1  0.00820000  0.63640000  0.58130000  1.0 -0.1579714994
C  C202  1  0.49180000  0.13640000  0.41870000  1.0 -0.1579714994
C  C203  1  0.99180000  0.36360000  0.41870000  1.0 -0.1579714994
C  C204  1  0.50820000  0.86360000  0.58130000  1.0 -0.1579714994
C  C205  1  0.95000000  0.48633000  0.73980000  1.0 -0.1496765342
C  C206  1  0.55000000  0.98633000  0.26020000  1.0 -0.1496765342
C  C207  1  0.05000000  0.51367000  0.26020000  1.0 -0.1496765342
C  C208  1  0.45000000  0.01367000  0.73980000  1.0 -0.1496765342
C  C209  1  0.92760000  0.71670000  0.52920000  1.0 -0.1017418447
C  C210  1  0.57240000  0.21670000  0.47080000  1.0 -0.1017418447
C  C211  1  0.07240000  0.28330000  0.47080000  1.0 -0.1017418447
C  C212  1  0.42760000  0.78330000  0.52920000  1.0 -0.1017418447
C  C213  1  0.92930000  0.58639000  0.70550000  1.0 -0.1997794787
C  C214  1  0.57070000  0.08639000  0.29450000  1.0 -0.1997794787
C  C215  1  0.07070000  0.41361000  0.29450000  1.0 -0.1997794787
C  C216  1  0.42930000  0.91361000  0.70550000  1.0 -0.1997794787
C  C217  1  0.52750000  0.55447000  0.27640000  1.0 -0.0906012143
C  C218  1  0.97250000  0.05447000  0.72360000  1.0 -0.0906012143
C  C219  1  0.47250000  0.44553000  0.72360000  1.0 -0.0906012143
C  C220  1  0.02750000  0.94553000  0.27640000  1.0 -0.0906012143
C  C221  1  0.86500000  0.19950000  0.63300000  1.0 -0.1426266219
C  C222  1  0.63500000  0.69950000  0.36700000  1.0 -0.1426266219
C  C223  1  0.13500000  0.80050000  0.36700000  1.0 -0.1426266219
C  C224  1  0.36500000  0.30050000  0.63300000  1.0 -0.1426266219
O  O1  1  0.91980000  0.21929000  0.71180000  1.0 -0.3235643815
O  O2  1  0.58020000  0.71929000  0.28820000  1.0 -0.3235643815
O  O3  1  0.08020000  0.78071000  0.28820000  1.0 -0.3235643815
O  O4  1  0.41980000  0.28071000  0.71180000  1.0 -0.3235643815
O  O5  1  0.04740000  0.70106000  0.36760000  1.0 -0.5419899459
O  O6  1  0.45260000  0.20106000  0.63240000  1.0 -0.5419899459
O  O7  1  0.95260000  0.29894000  0.63240000  1.0 -0.5419899459
O  O8  1  0.54740000  0.79894000  0.36760000  1.0 -0.5419899459
O  O9  1  0.79550000  0.28318000  0.68620000  1.0 -0.5419899459
O  O10  1  0.70450000  0.78318000  0.31380000  1.0 -0.5419899459
O  O11  1  0.20450000  0.71682000  0.31380000  1.0 -0.5419899459
O  O12  1  0.29550000  0.21682000  0.68620000  1.0 -0.5419899459
O  O13  1  0.47040000  0.64269000  0.25980000  1.0 -0.5633900847
O  O14  1  0.02960000  0.14269000  0.74020000  1.0 -0.5633900847
O  O15  1  0.52960000  0.35731000  0.74020000  1.0 -0.5633900847
O  O16  1  0.97040000  0.85731000  0.25980000  1.0 -0.5633900847
O  O17  1  0.41060000  0.23673000  0.85580000  1.0 -0.5703905092
O  O18  1  0.08940000  0.73673000  0.14420000  1.0 -0.5703905092
O  O19  1  0.58940000  0.76327000  0.14420000  1.0 -0.5703905092
O  O20  1  0.91060000  0.26327000  0.85580000  1.0 -0.5703905092
O  O21  1  0.91770000  0.34832000  0.75980000  1.0 -0.5529034272
O  O22  1  0.58230000  0.84832000  0.24020000  1.0 -0.5529034272
O  O23  1  0.08230000  0.65168000  0.24020000  1.0 -0.5529034272
O  O24  1  0.41770000  0.15168000  0.75980000  1.0 -0.5529034272
O  O25  1  0.29190000  0.23224000  0.90700000  1.0 -0.5633900847
O  O26  1  0.20810000  0.73224000  0.09300000  1.0 -0.5633900847
O  O27  1  0.70810000  0.76776000  0.09300000  1.0 -0.5633900847
O  O28  1  0.79190000  0.26776000  0.90700000  1.0 -0.5633900847
O  O29  1  0.35550000  0.62346000  0.15800000  1.0 -0.5757395263
O  O30  1  0.14450000  0.12346000  0.84200000  1.0 -0.5703905092
O  O31  1  0.64450000  0.37654000  0.84200000  1.0 -0.5757395263
O  O32  1  0.85550000  0.87654000  0.15800000  1.0 -0.5757395263
O  O33  1  0.82600000  0.35971000  0.84260000  1.0 -0.5529034272
O  O34  1  0.67400000  0.85971000  0.15740000  1.0 -0.5529034272
O  O35  1  0.17400000  0.64029000  0.15740000  1.0 -0.5529034272
O  O36  1  0.32600000  0.14029000  0.84260000  1.0 -0.5529034272
O  O37  1  0.95450000  0.75544000  0.38210000  1.0 -0.5703905092
O  O38  1  0.54550000  0.25544000  0.61790000  1.0 -0.5703905092
O  O39  1  0.04550000  0.24456000  0.61790000  1.0 -0.5703905092
O  O40  1  0.45450000  0.74456000  0.38210000  1.0 -0.5703905092
O  O41  1  0.68240000  0.30745000  0.73020000  1.0 -0.595228457
O  O42  1  0.81760000  0.80745000  0.26980000  1.0 -0.595228457
O  O43  1  0.31760000  0.69255000  0.26980000  1.0 -0.595228457
O  O44  1  0.18240000  0.19255000  0.73020000  1.0 -0.594312572
O  O45  1  0.94940000  0.72226000  0.21290000  1.0 -0.5703905092
O  O46  1  0.55060000  0.22226000  0.78710000  1.0 -0.5703905092
O  O47  1  0.05060000  0.27774000  0.78710000  1.0 -0.5703905092
O  O48  1  0.44940000  0.77774000  0.21290000  1.0 -0.5703905092
O  O49  1  0.89340000  0.78032000  0.14090000  1.0 -0.5529034272
O  O50  1  0.60660000  0.28032000  0.85910000  1.0 -0.5529034272
O  O51  1  0.10660000  0.21968000  0.85910000  1.0 -0.5529034272
O  O52  1  0.39340000  0.71968000  0.14090000  1.0 -0.5529034272
