# DDEC6 charges by PACMAN v1.1 (https://github.com/mtap-research/PACMAN-charge/)
data_KICDAF_ASR_pacman
_symmetry_space_group_name_H-M   'P 1'
_cell_length_a   15.81090000
_cell_length_b   30.02520000
_cell_length_c   16.36100000
_cell_angle_alpha   90.00000000
_cell_angle_beta   103.21900000
_cell_angle_gamma   90.00000000
_symmetry_Int_Tables_number   1
_chemical_formula_structural   Fe3H54C67O18
_chemical_formula_sum   'Fe12 H216 C268 O72'
_cell_volume   7561.18206599
_cell_formula_units_Z   4
loop_
 _symmetry_equiv_pos_site_id
 _symmetry_equiv_pos_as_xyz
  1  'x, y, z'
loop_
 _atom_site_type_symbol
 _atom_site_label
 _atom_site_symmetry_multiplicity
 _atom_site_fract_x
 _atom_site_fract_y
 _atom_site_fract_z
 _atom_site_occupancy
 _atom_site_charge
Fe  Fe1  1  0.23026000  0.82505000  0.86688000  1.0 1.0660348609
Fe  Fe2  1  0.26974000  0.32505000  0.13312000  1.0 1.0660348609
Fe  Fe3  1  0.76974000  0.17495000  0.13312000  1.0 1.0660348609
Fe  Fe4  1  0.73026000  0.67495000  0.86688000  1.0 1.0660348609
Fe  Fe5  1  0.92547000  0.71649000  0.74642000  1.0 1.0978129581
Fe  Fe6  1  0.57453000  0.21649000  0.25358000  1.0 1.0978129581
Fe  Fe7  1  0.07453000  0.28351000  0.25358000  1.0 1.0978129581
Fe  Fe8  1  0.42547000  0.78351000  0.74642000  1.0 1.0978129581
Fe  Fe9  1  0.05280000  0.79300000  0.72692000  1.0 0.9249202087
Fe  Fe10  1  0.44720000  0.29300000  0.27308000  1.0 0.9249202087
Fe  Fe11  1  0.94720000  0.20700000  0.27308000  1.0 0.9249202087
Fe  Fe12  1  0.55280000  0.70700000  0.72692000  1.0 0.9249202087
H  H1  1  0.59545000  0.86613000  0.74477000  1.0 0.1199451689
H  H2  1  0.90455000  0.36613000  0.25523000  1.0 0.1199451689
H  H3  1  0.40455000  0.13387000  0.25523000  1.0 0.1199451689
H  H4  1  0.09545000  0.63387000  0.74477000  1.0 0.1199451689
H  H5  1  0.69933000  0.86708000  0.77143000  1.0 0.0904367279
H  H6  1  0.80067000  0.36708000  0.22857000  1.0 0.0904367279
H  H7  1  0.30067000  0.13292000  0.22857000  1.0 0.0904367279
H  H8  1  0.19933000  0.63292000  0.77143000  1.0 0.0904367279
H  H9  1  0.65085000  0.83225000  0.70238000  1.0 0.1119255498
H  H10  1  0.84915000  0.33225000  0.29762000  1.0 0.1119255498
H  H11  1  0.34915000  0.16775000  0.29762000  1.0 0.1119255498
H  H12  1  0.15085000  0.66775000  0.70238000  1.0 0.1119255498
H  H13  1  0.64600000  0.08729000  0.76359000  1.0 0.1280625168
H  H14  1  0.85400000  0.58729000  0.23641000  1.0 0.1280625168
H  H15  1  0.35400000  0.91271000  0.23641000  1.0 0.1280625168
H  H16  1  0.14600000  0.41271000  0.76359000  1.0 0.1280625168
H  H17  1  0.70938000  0.09947000  0.70334000  1.0 0.1007911379
H  H18  1  0.79062000  0.59947000  0.29666000  1.0 0.1007911379
H  H19  1  0.29062000  0.90053000  0.29666000  1.0 0.1007911379
H  H20  1  0.20938000  0.40053000  0.70334000  1.0 0.1007911379
H  H21  1  0.74895000  0.08271000  0.79715000  1.0 0.1280625168
H  H22  1  0.75105000  0.58271000  0.20285000  1.0 0.1280625168
H  H23  1  0.25105000  0.91729000  0.20285000  1.0 0.1280625168
H  H24  1  0.24895000  0.41729000  0.79715000  1.0 0.1280625168
H  H25  1  0.70245000  0.08767000  0.60575000  1.0 0.0904367279
H  H26  1  0.79755000  0.58767000  0.39425000  1.0 0.0904367279
H  H27  1  0.29755000  0.91233000  0.39425000  1.0 0.0904367279
H  H28  1  0.20245000  0.41233000  0.60575000  1.0 0.0904367279
H  H29  1  0.70773000  0.07059000  0.46746000  1.0 0.2452983446
H  H30  1  0.79227000  0.57059000  0.53254000  1.0 0.2452983446
H  H31  1  0.29227000  0.92941000  0.53254000  1.0 0.2452983446
H  H32  1  0.20773000  0.42941000  0.46746000  1.0 0.2452983446
H  H33  1  0.70216000  0.99629000  0.42336000  1.0 0.1119255498
H  H34  1  0.79784000  0.49629000  0.57664000  1.0 0.1119255498
H  H35  1  0.29784000  0.00371000  0.57664000  1.0 0.1119255498
H  H36  1  0.20216000  0.50371000  0.42336000  1.0 0.1119255498
H  H37  1  0.69132000  0.93908000  0.51754000  1.0 0.1280625168
H  H38  1  0.80868000  0.43908000  0.48246000  1.0 0.1280625168
H  H39  1  0.30868000  0.06092000  0.48246000  1.0 0.1280625168
H  H40  1  0.19132000  0.56092000  0.51754000  1.0 0.1280625168
H  H41  1  0.15942000  0.76192000  0.02672000  1.0 0.1199451689
H  H42  1  0.34058000  0.26192000  0.97328000  1.0 0.1199451689
H  H43  1  0.84058000  0.23808000  0.97328000  1.0 0.1199451689
H  H44  1  0.65942000  0.73808000  0.02672000  1.0 0.1199451689
H  H45  1  0.78330000  0.70754000  0.53903000  1.0 0.1280625168
H  H46  1  0.71670000  0.20754000  0.46097000  1.0 0.1280625168
H  H47  1  0.21670000  0.29246000  0.46097000  1.0 0.1280625168
H  H48  1  0.28330000  0.79246000  0.53903000  1.0 0.1280625168
H  H49  1  0.05664000  0.65794000  0.88080000  1.0 0.1280625168
H  H50  1  0.44336000  0.15794000  0.11920000  1.0 0.1280625168
H  H51  1  0.94336000  0.34206000  0.11920000  1.0 0.1280625168
H  H52  1  0.55664000  0.84206000  0.88080000  1.0 0.1280625168
H  H53  1  0.58000000  0.69042000  0.28423000  1.0 0.1280625168
H  H54  1  0.92000000  0.19042000  0.71577000  1.0 0.1280625168
H  H55  1  0.42000000  0.30958000  0.71577000  1.0 0.1280625168
H  H56  1  0.08000000  0.80958000  0.28423000  1.0 0.1280625168
H  H57  1  0.72450000  0.68487000  0.40164000  1.0 0.1280625168
H  H58  1  0.77550000  0.18487000  0.59836000  1.0 0.1280625168
H  H59  1  0.27550000  0.31513000  0.59836000  1.0 0.1280625168
H  H60  1  0.22450000  0.81513000  0.40164000  1.0 0.1280625168
H  H61  1  0.58546000  0.56521000  0.37539000  1.0 0.1199451689
H  H62  1  0.91454000  0.06521000  0.62461000  1.0 0.1199451689
H  H63  1  0.41454000  0.43479000  0.62461000  1.0 0.1199451689
H  H64  1  0.08546000  0.93479000  0.37539000  1.0 0.1199451689
H  H65  1  0.35271000  0.45892000  0.13104000  1.0 0.1199451689
H  H66  1  0.14729000  0.95892000  0.86896000  1.0 0.1199451689
H  H67  1  0.64729000  0.54108000  0.86896000  1.0 0.1199451689
H  H68  1  0.85271000  0.04108000  0.13104000  1.0 0.1199451689
H  H69  1  0.05152000  0.61716000  0.99905000  1.0 0.1199451689
H  H70  1  0.44848000  0.11716000  0.00095000  1.0 0.1199451689
H  H71  1  0.94848000  0.38284000  0.00095000  1.0 0.1199451689
H  H72  1  0.55152000  0.88284000  0.99905000  1.0 0.1199451689
H  H73  1  0.11122000  0.57735000  0.11225000  1.0 0.1199451689
H  H74  1  0.38878000  0.07735000  0.88775000  1.0 0.1199451689
H  H75  1  0.88878000  0.42265000  0.88775000  1.0 0.1199451689
H  H76  1  0.61122000  0.92265000  0.11225000  1.0 0.1199451689
H  H77  1  0.48583000  0.68956000  0.92413000  1.0 0.1280625168
H  H78  1  0.01417000  0.18956000  0.07587000  1.0 0.1280625168
H  H79  1  0.51417000  0.31044000  0.07587000  1.0 0.1280625168
H  H80  1  0.98583000  0.81044000  0.92413000  1.0 0.1280625168
H  H81  1  0.54879000  0.64388000  0.03666000  1.0 0.1280625168
H  H82  1  0.95121000  0.14388000  0.96334000  1.0 0.1280625168
H  H83  1  0.45121000  0.35612000  0.96334000  1.0 0.1280625168
H  H84  1  0.04879000  0.85612000  0.03666000  1.0 0.1280625168
H  H85  1  0.15399000  0.72118000  0.14562000  1.0 0.1119255498
H  H86  1  0.34601000  0.22118000  0.85438000  1.0 0.1119255498
H  H87  1  0.84601000  0.27882000  0.85438000  1.0 0.1119255498
H  H88  1  0.65399000  0.77882000  0.14562000  1.0 0.1119255498
H  H89  1  0.94506000  0.64519000  0.52579000  1.0 0.1199451689
H  H90  1  0.55494000  0.14519000  0.47421000  1.0 0.1199451689
H  H91  1  0.05494000  0.35481000  0.47421000  1.0 0.1199451689
H  H92  1  0.44506000  0.85481000  0.52579000  1.0 0.1199451689
H  H93  1  0.20821000  0.43928000  0.15416000  1.0 0.1199451689
H  H94  1  0.29179000  0.93928000  0.84584000  1.0 0.1199451689
H  H95  1  0.79179000  0.56072000  0.84584000  1.0 0.1199451689
H  H96  1  0.70821000  0.06072000  0.15416000  1.0 0.1199451689
H  H97  1  0.07314000  0.69045000  0.23430000  1.0 0.1119255498
H  H98  1  0.42686000  0.19045000  0.76570000  1.0 0.1119255498
H  H99  1  0.92686000  0.30955000  0.76570000  1.0 0.1119255498
H  H100  1  0.57314000  0.80955000  0.23430000  1.0 0.1119255498
H  H101  1  0.39904000  0.53289000  0.14614000  1.0 0.1199451689
H  H102  1  0.10096000  0.03289000  0.85386000  1.0 0.1199451689
H  H103  1  0.60096000  0.46711000  0.85386000  1.0 0.1199451689
H  H104  1  0.89904000  0.96711000  0.14614000  1.0 0.1199451689
H  H105  1  0.20114000  0.51665000  0.16906000  1.0 0.1199451689
H  H106  1  0.29886000  0.01665000  0.83094000  1.0 0.1199451689
H  H107  1  0.79886000  0.48335000  0.83094000  1.0 0.1199451689
H  H108  1  0.70114000  0.98335000  0.16906000  1.0 0.1199451689
H  H109  1  0.59682000  0.63912000  0.61917000  1.0 0.1199451689
H  H110  1  0.90318000  0.13912000  0.38083000  1.0 0.1199451689
H  H111  1  0.40318000  0.36088000  0.38083000  1.0 0.1199451689
H  H112  1  0.09682000  0.86088000  0.61917000  1.0 0.1199451689
H  H113  1  0.06362000  0.57021000  0.34446000  1.0 0.1199451689
H  H114  1  0.43638000  0.07021000  0.65554000  1.0 0.1199451689
H  H115  1  0.93638000  0.42979000  0.65554000  1.0 0.1199451689
H  H116  1  0.56362000  0.92979000  0.34446000  1.0 0.1199451689
H  H117  1  0.00882000  0.42396000  0.26850000  1.0 0.1280625168
H  H118  1  0.49118000  0.92396000  0.73150000  1.0 0.1280625168
H  H119  1  0.99118000  0.57604000  0.73150000  1.0 0.1280625168
H  H120  1  0.50882000  0.07604000  0.26850000  1.0 0.1280625168
H  H121  1  0.49075000  0.58912000  0.12756000  1.0 0.1199451689
H  H122  1  0.00925000  0.08912000  0.87244000  1.0 0.1199451689
H  H123  1  0.50925000  0.41088000  0.87244000  1.0 0.1199451689
H  H124  1  0.99075000  0.91088000  0.12756000  1.0 0.1199451689
H  H125  1  0.54377000  0.61258000  0.48300000  1.0 0.1199451689
H  H126  1  0.95623000  0.11258000  0.51700000  1.0 0.1199451689
H  H127  1  0.45623000  0.38742000  0.51700000  1.0 0.1199451689
H  H128  1  0.04377000  0.88742000  0.48300000  1.0 0.1199451689
H  H129  1  0.56695000  0.42131000  0.30255000  1.0 0.1280625168
H  H130  1  0.93305000  0.92131000  0.69745000  1.0 0.1280625168
H  H131  1  0.43305000  0.57869000  0.69745000  1.0 0.1280625168
H  H132  1  0.06695000  0.07869000  0.30255000  1.0 0.1280625168
H  H133  1  0.36496000  0.75923000  0.07366000  1.0 0.1199451689
H  H134  1  0.13504000  0.25923000  0.92634000  1.0 0.1199451689
H  H135  1  0.63504000  0.24077000  0.92634000  1.0 0.1199451689
H  H136  1  0.86496000  0.74077000  0.07366000  1.0 0.1199451689
H  H137  1  0.96891000  0.60997000  0.40595000  1.0 0.1119255498
H  H138  1  0.53109000  0.10997000  0.59405000  1.0 0.1119255498
H  H139  1  0.03109000  0.39003000  0.59405000  1.0 0.1119255498
H  H140  1  0.46891000  0.89003000  0.40595000  1.0 0.1119255498
H  H141  1  0.61278000  0.49459000  0.31974000  1.0 0.1199451689
H  H142  1  0.88722000  0.99459000  0.68026000  1.0 0.1199451689
H  H143  1  0.38722000  0.50541000  0.68026000  1.0 0.1199451689
H  H144  1  0.11278000  0.00541000  0.31974000  1.0 0.1199451689
H  H145  1  0.00076000  0.50082000  0.28137000  1.0 0.1199451689
H  H146  1  0.49924000  0.00082000  0.71863000  1.0 0.1199451689
H  H147  1  0.99924000  0.49918000  0.71863000  1.0 0.1199451689
H  H148  1  0.50076000  0.99918000  0.28137000  1.0 0.1199451689
H  H149  1  0.10579000  0.74514000  0.49370000  1.0 0.1199451689
H  H150  1  0.39421000  0.24514000  0.50630000  1.0 0.1199451689
H  H151  1  0.89421000  0.25486000  0.50630000  1.0 0.1199451689
H  H152  1  0.60579000  0.75486000  0.49370000  1.0 0.1199451689
H  H153  1  0.13039000  0.71016000  0.37356000  1.0 0.1119255498
H  H154  1  0.36961000  0.21016000  0.62644000  1.0 0.1119255498
H  H155  1  0.86961000  0.28984000  0.62644000  1.0 0.1119255498
H  H156  1  0.63039000  0.78984000  0.37356000  1.0 0.1119255498
H  H157  1  0.43438000  0.71717000  0.18846000  1.0 0.1199451689
H  H158  1  0.06562000  0.21717000  0.81154000  1.0 0.1199451689
H  H159  1  0.56562000  0.28283000  0.81154000  1.0 0.1199451689
H  H160  1  0.93438000  0.78283000  0.18846000  1.0 0.1199451689
H  H161  1  0.85030000  0.80770000  0.78655000  1.0 0.1830755286
H  H162  1  0.64970000  0.30770000  0.21345000  1.0 0.1830755286
H  H163  1  0.14970000  0.19230000  0.21345000  1.0 0.1830755286
H  H164  1  0.35030000  0.69230000  0.78655000  1.0 0.1830755286
H  H165  1  0.79997000  0.80005000  0.69100000  1.0 0.0798369472
H  H166  1  0.70003000  0.30005000  0.30900000  1.0 0.0798369472
H  H167  1  0.20003000  0.19995000  0.30900000  1.0 0.0798369472
H  H168  1  0.29997000  0.69995000  0.69100000  1.0 0.0798369472
H  H169  1  0.86886000  0.83971000  0.71442000  1.0 0.138813816
H  H170  1  0.63114000  0.33971000  0.28558000  1.0 0.138813816
H  H171  1  0.13114000  0.16029000  0.28558000  1.0 0.138813816
H  H172  1  0.36886000  0.66029000  0.71442000  1.0 0.138813816
H  H173  1  0.90487000  0.82153000  0.61525000  1.0 0.0904367279
H  H174  1  0.59513000  0.32153000  0.38475000  1.0 0.0904367279
H  H175  1  0.09513000  0.17847000  0.38475000  1.0 0.0904367279
H  H176  1  0.40487000  0.67847000  0.61525000  1.0 0.0904367279
H  H177  1  0.81628000  0.80704000  0.63942000  1.0 0.0698432916
H  H178  1  0.68372000  0.30704000  0.36058000  1.0 0.0698432916
H  H179  1  0.18372000  0.19296000  0.36058000  1.0 0.0698432916
H  H180  1  0.31628000  0.69296000  0.63942000  1.0 0.0698432916
H  H181  1  0.86573000  0.77284000  0.59149000  1.0 0.1007911379
H  H182  1  0.63427000  0.27284000  0.40851000  1.0 0.1007911379
H  H183  1  0.13427000  0.22716000  0.40851000  1.0 0.1007911379
H  H184  1  0.36573000  0.72716000  0.59149000  1.0 0.1007911379
H  H185  1  0.69993000  0.83800000  0.75260000  1.0 0.0458447113
H  H186  1  0.80007000  0.33800000  0.24740000  1.0 0.0458447113
H  H187  1  0.30007000  0.16200000  0.24740000  1.0 0.0458447113
H  H188  1  0.19993000  0.66200000  0.75260000  1.0 0.0458447113
H  H189  1  0.74110000  0.78940000  0.75104000  1.0 0.1119255498
H  H190  1  0.75890000  0.28940000  0.24896000  1.0 0.1119255498
H  H191  1  0.25890000  0.21060000  0.24896000  1.0 0.1119255498
H  H192  1  0.24110000  0.71060000  0.75104000  1.0 0.1119255498
H  H193  1  0.73791000  0.81217000  0.83873000  1.0 0.1007911379
H  H194  1  0.76209000  0.31217000  0.16127000  1.0 0.1007911379
H  H195  1  0.26209000  0.18783000  0.16127000  1.0 0.1007911379
H  H196  1  0.23791000  0.68783000  0.83873000  1.0 0.1007911379
H  H197  1  0.84013000  0.85565000  0.82559000  1.0 0.2901038602
H  H198  1  0.65987000  0.35565000  0.17441000  1.0 0.2901038602
H  H199  1  0.15987000  0.14435000  0.17441000  1.0 0.2901038602
H  H200  1  0.34013000  0.64435000  0.82559000  1.0 0.2901038602
H  H201  1  0.56865000  0.04104000  0.42241000  1.0 0.0904367279
H  H202  1  0.93135000  0.54104000  0.57759000  1.0 0.0904367279
H  H203  1  0.43135000  0.95896000  0.57759000  1.0 0.0904367279
H  H204  1  0.06865000  0.45896000  0.42241000  1.0 0.0904367279
H  H205  1  0.61018000  0.05967000  0.51448000  1.0 0.1007911379
H  H206  1  0.88982000  0.55967000  0.48552000  1.0 0.1007911379
H  H207  1  0.38982000  0.94033000  0.48552000  1.0 0.1007911379
H  H208  1  0.11018000  0.44033000  0.51448000  1.0 0.1007911379
H  H209  1  0.63182000  0.01013000  0.48947000  1.0 0.0798369472
H  H210  1  0.86818000  0.51013000  0.51053000  1.0 0.0798369472
H  H211  1  0.36818000  0.98987000  0.51053000  1.0 0.0798369472
H  H212  1  0.13182000  0.48987000  0.48947000  1.0 0.0798369472
H  H213  1  0.71633000  0.07847000  0.47064000  1.0 0.2149086818
H  H214  1  0.78367000  0.57847000  0.52936000  1.0 0.2149086818
H  H215  1  0.28367000  0.92153000  0.52936000  1.0 0.215433754
H  H216  1  0.21633000  0.42153000  0.47064000  1.0 0.2149086818
C  C1  1  0.64890000  0.86240000  0.72470000  1.0 -0.2334946394
C  C2  1  0.85110000  0.36240000  0.27530000  1.0 -0.2334946394
C  C3  1  0.35110000  0.13760000  0.27530000  1.0 -0.2334946394
C  C4  1  0.14890000  0.63760000  0.72470000  1.0 -0.2334946394
C  C5  1  0.70050000  0.07950000  0.74800000  1.0 -0.1905087121
C  C6  1  0.79950000  0.57950000  0.25200000  1.0 -0.1905087121
C  C7  1  0.29950000  0.92050000  0.25200000  1.0 -0.1905087121
C  C8  1  0.20050000  0.42050000  0.74800000  1.0 -0.1905087121
C  C9  1  0.69380000  0.02350000  0.64380000  1.0 0.2323908843
C  C10  1  0.80620000  0.52350000  0.35620000  1.0 0.2323908843
C  C11  1  0.30620000  0.97650000  0.35620000  1.0 0.2323908843
C  C12  1  0.19380000  0.47650000  0.64380000  1.0 0.2323908843
C  C13  1  0.70020000  0.05750000  0.58800000  1.0 -0.4338373467
C  C14  1  0.79980000  0.55750000  0.41200000  1.0 -0.4338373467
C  C15  1  0.29980000  0.94250000  0.41200000  1.0 -0.4351904914
C  C16  1  0.20020000  0.44250000  0.58800000  1.0 -0.4351904914
C  C17  1  0.70330000  0.04740000  0.50600000  1.0 0.0602870844
C  C18  1  0.79670000  0.54740000  0.49400000  1.0 0.0602870844
C  C19  1  0.29670000  0.95260000  0.49400000  1.0 0.0602870844
C  C20  1  0.20330000  0.45260000  0.50600000  1.0 0.0602870844
C  C21  1  0.70000000  0.00320000  0.47950000  1.0 -0.0640112012
C  C22  1  0.80000000  0.50320000  0.52050000  1.0 -0.0640112012
C  C23  1  0.30000000  0.99680000  0.52050000  1.0 -0.0640112012
C  C24  1  0.20000000  0.49680000  0.47950000  1.0 -0.0640112012
C  C25  1  0.69360000  0.96920000  0.53540000  1.0 -0.1905087121
C  C26  1  0.80640000  0.46920000  0.46460000  1.0 -0.1905087121
C  C27  1  0.30640000  0.03080000  0.46460000  1.0 -0.1905087121
C  C28  1  0.19360000  0.53080000  0.53540000  1.0 -0.1905087121
C  C29  1  0.69040000  0.97940000  0.61760000  1.0 -0.1415343043
C  C30  1  0.80960000  0.47940000  0.38240000  1.0 -0.1415343043
C  C31  1  0.30960000  0.02060000  0.38240000  1.0 -0.1415343043
C  C32  1  0.19040000  0.52060000  0.61760000  1.0 -0.1415343043
C  C33  1  0.67200000  0.94570000  0.67000000  1.0 0.2429649979
C  C34  1  0.82800000  0.44570000  0.33000000  1.0 0.2429649979
C  C35  1  0.32800000  0.05430000  0.33000000  1.0 0.2429649979
C  C36  1  0.17200000  0.55430000  0.67000000  1.0 0.2429649979
C  C37  1  0.72940000  0.69441000  0.67760000  1.0 0.5974174961
C  C38  1  0.77060000  0.19441000  0.32240000  1.0 0.5974174961
C  C39  1  0.27060000  0.30559000  0.32240000  1.0 0.5974174961
C  C40  1  0.22940000  0.80559000  0.67760000  1.0 0.5974174961
C  C41  1  0.69400000  0.67732000  0.59220000  1.0 -0.0478881039
C  C42  1  0.80600000  0.17732000  0.40780000  1.0 -0.0478881039
C  C43  1  0.30600000  0.32268000  0.40780000  1.0 -0.0478881039
C  C44  1  0.19400000  0.82268000  0.59220000  1.0 -0.0478881039
C  C45  1  0.10660000  0.71384000  0.94150000  1.0 -0.0264297123
C  C46  1  0.39340000  0.21384000  0.05850000  1.0 -0.0264297123
C  C47  1  0.89340000  0.28616000  0.05850000  1.0 -0.0264297123
C  C48  1  0.60660000  0.78616000  0.94150000  1.0 -0.0264297123
C  C49  1  0.11740000  0.37469000  0.19960000  1.0 0.5910928026
C  C50  1  0.38260000  0.87469000  0.80040000  1.0 0.5910928026
C  C51  1  0.88260000  0.62531000  0.80040000  1.0 0.5910928026
C  C52  1  0.61740000  0.12531000  0.19960000  1.0 0.5910928026
C  C53  1  0.13680000  0.73248000  0.02130000  1.0 -0.0979736024
C  C54  1  0.36320000  0.23248000  0.97870000  1.0 -0.0979736024
C  C55  1  0.86320000  0.26752000  0.97870000  1.0 -0.0979736024
C  C56  1  0.63680000  0.76752000  0.02130000  1.0 -0.0979736024
C  C57  1  0.62800000  0.64683000  0.42850000  1.0 0.0602870844
C  C58  1  0.87200000  0.14683000  0.57150000  1.0 0.0602870844
C  C59  1  0.37200000  0.35317000  0.57150000  1.0 0.0602870844
C  C60  1  0.12800000  0.85317000  0.42850000  1.0 0.0602870844
C  C61  1  0.45570000  0.43267000  0.21570000  1.0 -0.0402495298
C  C62  1  0.04430000  0.93267000  0.78430000  1.0 -0.0402495298
C  C63  1  0.54430000  0.56733000  0.78430000  1.0 -0.0402495298
C  C64  1  0.95570000  0.06733000  0.21570000  1.0 -0.0402495298
C  C65  1  0.73280000  0.68933000  0.52730000  1.0 -0.1086635222
C  C66  1  0.76720000  0.18933000  0.47270000  1.0 -0.1086635222
C  C67  1  0.26720000  0.31067000  0.47270000  1.0 -0.1086635222
C  C68  1  0.23280000  0.81067000  0.52730000  1.0 -0.1086635222
C  C69  1  0.41720000  0.72820000  0.98760000  1.0 -0.0264297123
C  C70  1  0.08280000  0.22820000  0.01240000  1.0 -0.0264297123
C  C71  1  0.58280000  0.27180000  0.01240000  1.0 -0.0264297123
C  C72  1  0.91720000  0.77180000  0.98760000  1.0 -0.0264297123
C  C73  1  0.11020000  0.42367000  0.21000000  1.0 -0.0402495298
C  C74  1  0.38980000  0.92367000  0.79000000  1.0 -0.0402495298
C  C75  1  0.88980000  0.57633000  0.79000000  1.0 -0.0402495298
C  C76  1  0.61020000  0.07633000  0.21000000  1.0 -0.0402495298
C  C77  1  0.07600000  0.67100000  0.93470000  1.0 -0.0814872589
C  C78  1  0.42400000  0.17100000  0.06530000  1.0 -0.0814872589
C  C79  1  0.92400000  0.32900000  0.06530000  1.0 -0.0814872589
C  C80  1  0.57600000  0.82900000  0.93470000  1.0 -0.0814872589
C  C81  1  0.56860000  0.65952000  0.27530000  1.0 -0.2025160268
C  C82  1  0.93140000  0.15952000  0.72470000  1.0 -0.2025160268
C  C83  1  0.43140000  0.34048000  0.72470000  1.0 -0.2025160268
C  C84  1  0.06860000  0.84048000  0.27530000  1.0 -0.2025160268
C  C85  1  0.59050000  0.63071000  0.34220000  1.0 0.0904367279
C  C86  1  0.90950000  0.13071000  0.65780000  1.0 0.0904367279
C  C87  1  0.40950000  0.36929000  0.65780000  1.0 0.0904367279
C  C88  1  0.09050000  0.86929000  0.34220000  1.0 0.0904367279
C  C89  1  0.42280000  0.38554000  0.20640000  1.0 0.5910928026
C  C90  1  0.07720000  0.88554000  0.79360000  1.0 0.5910928026
C  C91  1  0.57720000  0.61446000  0.79360000  1.0 0.5910928026
C  C92  1  0.92280000  0.11446000  0.20640000  1.0 0.5910928026
C  C93  1  0.69900000  0.67514000  0.44580000  1.0 -0.1688463111
C  C94  1  0.80100000  0.17514000  0.55420000  1.0 -0.1688463111
C  C95  1  0.30100000  0.32486000  0.55420000  1.0 -0.1688463111
C  C96  1  0.19900000  0.82486000  0.44580000  1.0 -0.1688463111
C  C97  1  0.57250000  0.58525000  0.32930000  1.0 -0.2025160268
C  C98  1  0.92750000  0.08525000  0.67070000  1.0 -0.2025160268
C  C99  1  0.42750000  0.41475000  0.67070000  1.0 -0.2025160268
C  C100  1  0.07250000  0.91475000  0.32930000  1.0 -0.2025160268
C  C101  1  0.37420000  0.75653000  0.91370000  1.0 0.5910928026
C  C102  1  0.12580000  0.25653000  0.08630000  1.0 0.5910928026
C  C103  1  0.62580000  0.24347000  0.08630000  1.0 0.5910928026
C  C104  1  0.87420000  0.74347000  0.91370000  1.0 0.5910928026
C  C105  1  0.09250000  0.63799000  0.16040000  1.0 0.0904367279
C  C106  1  0.40750000  0.13799000  0.83960000  1.0 0.0904367279
C  C107  1  0.90750000  0.36201000  0.83960000  1.0 0.0904367279
C  C108  1  0.59250000  0.86201000  0.16040000  1.0 0.0904367279
C  C109  1  0.40570000  0.46622000  0.16930000  1.0 -0.1086635222
C  C110  1  0.09430000  0.96622000  0.83070000  1.0 -0.1086635222
C  C111  1  0.59430000  0.53378000  0.83070000  1.0 -0.1086635222
C  C112  1  0.90570000  0.03378000  0.16930000  1.0 -0.1086635222
C  C113  1  0.53040000  0.64468000  0.19510000  1.0 0.0798369472
C  C114  1  0.96960000  0.14468000  0.80490000  1.0 0.0798369472
C  C115  1  0.46960000  0.35532000  0.80490000  1.0 0.0798369472
C  C116  1  0.03040000  0.85532000  0.19510000  1.0 0.0798369472
C  C117  1  0.07310000  0.64679000  0.00520000  1.0 -0.1415343043
C  C118  1  0.42690000  0.14679000  0.99480000  1.0 -0.1415343043
C  C119  1  0.92690000  0.35321000  0.99480000  1.0 -0.1415343043
C  C120  1  0.57310000  0.85321000  0.00520000  1.0 -0.1415343043
C  C121  1  0.09940000  0.59177000  0.16010000  1.0 -0.2025160268
C  C122  1  0.40060000  0.09177000  0.83990000  1.0 -0.2025160268
C  C123  1  0.90060000  0.40823000  0.83990000  1.0 -0.2025160268
C  C124  1  0.59940000  0.90823000  0.16010000  1.0 -0.2025160268
C  C125  1  0.47350000  0.69446000  0.97760000  1.0 -0.1086635222
C  C126  1  0.02650000  0.19446000  0.02240000  1.0 -0.1086635222
C  C127  1  0.52650000  0.30554000  0.02240000  1.0 -0.1086635222
C  C128  1  0.97350000  0.80554000  0.97760000  1.0 -0.1086635222
C  C129  1  0.51210000  0.66771000  0.04490000  1.0 -0.1498317039
C  C130  1  0.98790000  0.16771000  0.95510000  1.0 -0.1498317039
C  C131  1  0.48790000  0.33229000  0.95510000  1.0 -0.1498317039
C  C132  1  0.01210000  0.83229000  0.04490000  1.0 -0.1498317039
C  C133  1  0.10110000  0.66452000  0.08510000  1.0 0.0798369472
C  C134  1  0.39890000  0.16452000  0.91490000  1.0 0.0798369472
C  C135  1  0.89890000  0.33548000  0.91490000  1.0 0.0798369472
C  C136  1  0.60110000  0.83548000  0.08510000  1.0 0.0798369472
C  C137  1  0.09770000  0.51664000  0.22440000  1.0 0.0698432916
C  C138  1  0.40230000  0.01664000  0.77560000  1.0 0.0698432916
C  C139  1  0.90230000  0.48336000  0.77560000  1.0 0.0698432916
C  C140  1  0.59770000  0.98336000  0.22440000  1.0 0.0698432916
C  C141  1  0.13370000  0.70824000  0.09170000  1.0 -0.1498317039
C  C142  1  0.36630000  0.20824000  0.90830000  1.0 -0.1498317039
C  C143  1  0.86630000  0.29176000  0.90830000  1.0 -0.1498317039
C  C144  1  0.63370000  0.79176000  0.09170000  1.0 -0.1498317039
C  C145  1  0.09480000  0.74178000  0.86480000  1.0 0.581450358
C  C146  1  0.40520000  0.24178000  0.13520000  1.0 0.581450358
C  C147  1  0.90520000  0.25822000  0.13520000  1.0 0.581450358
C  C148  1  0.59480000  0.75822000  0.86480000  1.0 0.581450358
C  C149  1  0.98310000  0.65824000  0.49520000  1.0 -0.087422397
C  C150  1  0.51690000  0.15824000  0.50480000  1.0 -0.087422397
C  C151  1  0.01690000  0.34176000  0.50480000  1.0 -0.087422397
C  C152  1  0.48310000  0.84176000  0.49520000  1.0 -0.087422397
C  C153  1  0.16590000  0.45171000  0.18040000  1.0 -0.0979736024
C  C154  1  0.33410000  0.95171000  0.81960000  1.0 -0.0979736024
C  C155  1  0.83410000  0.54829000  0.81960000  1.0 -0.0979736024
C  C156  1  0.66590000  0.04829000  0.18040000  1.0 -0.0979736024
C  C157  1  0.06670000  0.63389000  0.30050000  1.0 0.0904367279
C  C158  1  0.43330000  0.13389000  0.69950000  1.0 0.0904367279
C  C159  1  0.93330000  0.36611000  0.69950000  1.0 0.0904367279
C  C160  1  0.56670000  0.86611000  0.30050000  1.0 0.0904367279
C  C161  1  0.05130000  0.65638000  0.37690000  1.0 0.0798369472
C  C162  1  0.44870000  0.15638000  0.62310000  1.0 0.0798369472
C  C163  1  0.94870000  0.34362000  0.62310000  1.0 0.0798369472
C  C164  1  0.55130000  0.84362000  0.37690000  1.0 0.0798369472
C  C165  1  0.07680000  0.65890000  0.23240000  1.0 -0.2094628401
C  C166  1  0.42320000  0.15890000  0.76760000  1.0 -0.2094628401
C  C167  1  0.92320000  0.34110000  0.76760000  1.0 -0.2094628401
C  C168  1  0.57680000  0.84110000  0.23240000  1.0 -0.2094628401
C  C169  1  0.01090000  0.71997000  0.60070000  1.0 0.581450358
C  C170  1  0.48910000  0.21997000  0.39930000  1.0 0.581450358
C  C171  1  0.98910000  0.28003000  0.39930000  1.0 0.581450358
C  C172  1  0.51090000  0.78003000  0.60070000  1.0 0.581450358
C  C173  1  0.02500000  0.69823000  0.52220000  1.0 -0.0225868598
C  C174  1  0.47500000  0.19823000  0.47780000  1.0 -0.0225868598
C  C175  1  0.97500000  0.30177000  0.47780000  1.0 -0.0225868598
C  C176  1  0.52500000  0.80177000  0.52220000  1.0 -0.0225868598
C  C177  1  0.08960000  0.56610000  0.22840000  1.0 0.0904367279
C  C178  1  0.41040000  0.06610000  0.77160000  1.0 0.0904367279
C  C179  1  0.91040000  0.43390000  0.77160000  1.0 0.0904367279
C  C180  1  0.58960000  0.93390000  0.22840000  1.0 0.0904367279
C  C181  1  0.43290000  0.51026000  0.17870000  1.0 -0.1599573389
C  C182  1  0.06710000  0.01026000  0.82130000  1.0 -0.1599573389
C  C183  1  0.56710000  0.48974000  0.82130000  1.0 -0.1599573389
C  C184  1  0.93290000  0.98974000  0.17870000  1.0 -0.1599573389
C  C185  1  0.49780000  0.67534000  0.12360000  1.0 0.0698432916
C  C186  1  0.00220000  0.17534000  0.87640000  1.0 0.0698432916
C  C187  1  0.50220000  0.32466000  0.87640000  1.0 0.0698432916
C  C188  1  0.99780000  0.82466000  0.12360000  1.0 0.0698432916
C  C189  1  0.16120000  0.49800000  0.18830000  1.0 -0.1599573389
C  C190  1  0.33880000  0.99800000  0.81170000  1.0 -0.1599573389
C  C191  1  0.83880000  0.50200000  0.81170000  1.0 -0.1599573389
C  C192  1  0.66120000  0.00200000  0.18830000  1.0 -0.1599573389
C  C193  1  0.62310000  0.64828000  0.57520000  1.0 -0.1086635222
C  C194  1  0.87690000  0.14828000  0.42480000  1.0 -0.1086635222
C  C195  1  0.37690000  0.35172000  0.42480000  1.0 -0.1086635222
C  C196  1  0.12310000  0.85172000  0.57520000  1.0 -0.1086635222
C  C197  1  0.53540000  0.56918000  0.24870000  1.0 0.0904367279
C  C198  1  0.96460000  0.06918000  0.75130000  1.0 0.0904367279
C  C199  1  0.46460000  0.43082000  0.75130000  1.0 0.0904367279
C  C200  1  0.03540000  0.93082000  0.24870000  1.0 0.1007911379
C  C201  1  0.07200000  0.58733000  0.29820000  1.0 -0.2094628401
C  C202  1  0.42800000  0.08733000  0.70180000  1.0 -0.2094628401
C  C203  1  0.92800000  0.41267000  0.70180000  1.0 -0.2094628401
C  C204  1  0.57200000  0.91267000  0.29820000  1.0 -0.2094628401
C  C205  1  0.04780000  0.44255000  0.24770000  1.0 -0.087422397
C  C206  1  0.45220000  0.94255000  0.75230000  1.0 -0.087422397
C  C207  1  0.95220000  0.55745000  0.75230000  1.0 -0.087422397
C  C208  1  0.54780000  0.05745000  0.24770000  1.0 -0.087422397
C  C209  1  0.51540000  0.59968000  0.18260000  1.0 -0.2025160268
C  C210  1  0.98460000  0.09968000  0.81740000  1.0 -0.2025160268
C  C211  1  0.48460000  0.40032000  0.81740000  1.0 -0.2025160268
C  C212  1  0.01540000  0.90032000  0.18260000  1.0 -0.2025160268
C  C213  1  0.50950000  0.52139000  0.23560000  1.0 0.0798369472
C  C214  1  0.99050000  0.02139000  0.76440000  1.0 0.0798369472
C  C215  1  0.49050000  0.47861000  0.76440000  1.0 0.0798369472
C  C216  1  0.00950000  0.97861000  0.23560000  1.0 0.0798369472
C  C217  1  0.59120000  0.63285000  0.49410000  1.0 -0.1599573389
C  C218  1  0.90880000  0.13285000  0.50590000  1.0 -0.1599573389
C  C219  1  0.40880000  0.36715000  0.50590000  1.0 -0.1599573389
C  C220  1  0.09120000  0.86715000  0.49410000  1.0 -0.1599573389
C  C221  1  0.53230000  0.44403000  0.27100000  1.0 -0.087422397
C  C222  1  0.96770000  0.94403000  0.72900000  1.0 -0.087422397
C  C223  1  0.46770000  0.55597000  0.72900000  1.0 -0.087422397
C  C224  1  0.03230000  0.05597000  0.27100000  1.0 -0.087422397
C  C225  1  0.40320000  0.73596000  0.06610000  1.0 -0.0979736024
C  C226  1  0.09680000  0.23596000  0.93390000  1.0 -0.0979736024
C  C227  1  0.59680000  0.26404000  0.93390000  1.0 -0.0979736024
C  C228  1  0.90320000  0.76404000  0.06610000  1.0 -0.0979736024
C  C229  1  0.99690000  0.63747000  0.42350000  1.0 -0.1599573389
C  C230  1  0.50310000  0.13747000  0.57650000  1.0 -0.1599573389
C  C231  1  0.00310000  0.36253000  0.57650000  1.0 -0.1599573389
C  C232  1  0.49690000  0.86253000  0.42350000  1.0 -0.1599573389
C  C233  1  0.55970000  0.48753000  0.28140000  1.0 -0.1415343043
C  C234  1  0.94030000  0.98753000  0.71860000  1.0 -0.1415343043
C  C235  1  0.44030000  0.51247000  0.71860000  1.0 -0.1415343043
C  C236  1  0.05970000  0.01247000  0.28140000  1.0 -0.1415343043
C  C237  1  0.04290000  0.48842000  0.25490000  1.0 -0.1415343043
C  C238  1  0.45710000  0.98842000  0.74510000  1.0 -0.1415343043
C  C239  1  0.95710000  0.51158000  0.74510000  1.0 -0.1415343043
C  C240  1  0.54290000  0.01158000  0.25490000  1.0 -0.1415343043
C  C241  1  0.07840000  0.71748000  0.47610000  1.0 -0.087422397
C  C242  1  0.42160000  0.21748000  0.52390000  1.0 -0.087422397
C  C243  1  0.92160000  0.28252000  0.52390000  1.0 -0.087422397
C  C244  1  0.57840000  0.78252000  0.47610000  1.0 -0.087422397
C  C245  1  0.09270000  0.69684000  0.40420000  1.0 -0.1599573389
C  C246  1  0.40730000  0.19684000  0.59580000  1.0 -0.1599573389
C  C247  1  0.90730000  0.30316000  0.59580000  1.0 -0.1599573389
C  C248  1  0.59270000  0.80316000  0.40420000  1.0 -0.1599573389
C  C249  1  0.44350000  0.71066000  0.13430000  1.0 -0.1498317039
C  C250  1  0.05650000  0.21066000  0.86570000  1.0 -0.1498317039
C  C251  1  0.55650000  0.28934000  0.86570000  1.0 -0.1498317039
C  C252  1  0.94350000  0.78934000  0.13430000  1.0 -0.1498317039
C  C253  1  0.85520000  0.80910000  0.72800000  1.0 0.0016846196
C  C254  1  0.64480000  0.30910000  0.27200000  1.0 0.0016846196
C  C255  1  0.14480000  0.19090000  0.27200000  1.0 0.0016846196
C  C256  1  0.35520000  0.69090000  0.72800000  1.0 0.0016846196
C  C257  1  0.87330000  0.79670000  0.63340000  1.0 -0.1762264148
C  C258  1  0.62670000  0.29670000  0.36660000  1.0 -0.1762264148
C  C259  1  0.12670000  0.20330000  0.36660000  1.0 -0.1762264148
C  C260  1  0.37330000  0.70330000  0.63340000  1.0 -0.1762264148
C  C261  1  0.74540000  0.81760000  0.78180000  1.0 -0.2973567769
C  C262  1  0.75460000  0.31760000  0.21820000  1.0 -0.2973567769
C  C263  1  0.25460000  0.18240000  0.21820000  1.0 -0.2973567769
C  C264  1  0.24540000  0.68240000  0.78180000  1.0 -0.2973567769
C  C265  1  0.62000000  0.04070000  0.46900000  1.0 -0.1688463111
C  C266  1  0.88000000  0.54070000  0.53100000  1.0 -0.1688463111
C  C267  1  0.38000000  0.95930000  0.53100000  1.0 -0.1688463111
C  C268  1  0.12000000  0.45930000  0.46900000  1.0 -0.1688463111
O  O1  1  0.65050000  0.89640000  0.65570000  1.0 -0.3185170218
O  O2  1  0.84950000  0.39640000  0.34430000  1.0 -0.3185170218
O  O3  1  0.34950000  0.10360000  0.34430000  1.0 -0.3185170218
O  O4  1  0.15050000  0.60360000  0.65570000  1.0 -0.3185170218
O  O5  1  0.69640000  0.03700000  0.72060000  1.0 -0.0979736024
O  O6  1  0.80360000  0.53700000  0.27940000  1.0 -0.0979736024
O  O7  1  0.30360000  0.96300000  0.27940000  1.0 -0.0979736024
O  O8  1  0.19640000  0.46300000  0.72060000  1.0 -0.0979736024
O  O9  1  0.70100000  0.95370000  0.76600000  1.0 -0.5365978206
O  O10  1  0.79900000  0.45370000  0.23400000  1.0 -0.5365978206
O  O11  1  0.29900000  0.04630000  0.23400000  1.0 -0.5365978206
O  O12  1  0.20100000  0.54630000  0.76600000  1.0 -0.5365978206
O  O13  1  0.06930000  0.34973000  0.23379000  1.0 -0.559733592
O  O14  1  0.43070000  0.84973000  0.76621000  1.0 -0.559733592
O  O15  1  0.93070000  0.65027000  0.76621000  1.0 -0.559733592
O  O16  1  0.56930000  0.15027000  0.23379000  1.0 -0.559733592
O  O17  1  0.96080000  0.70062000  0.63834000  1.0 -0.5365978206
O  O18  1  0.53920000  0.20062000  0.36166000  1.0 -0.5365978206
O  O19  1  0.03920000  0.29938000  0.36166000  1.0 -0.5365978206
O  O20  1  0.46080000  0.79938000  0.63834000  1.0 -0.5365978206
O  O21  1  0.35320000  0.37785000  0.15518000  1.0 -0.5688434566
O  O22  1  0.14680000  0.87785000  0.84482000  1.0 -0.5688434566
O  O23  1  0.64680000  0.62215000  0.84482000  1.0 -0.5688434566
O  O24  1  0.85320000  0.12215000  0.15518000  1.0 -0.5688434566
O  O25  1  0.16760000  0.36091000  0.15770000  1.0 -0.559733592
O  O26  1  0.33240000  0.86091000  0.84230000  1.0 -0.559733592
O  O27  1  0.83240000  0.63909000  0.84230000  1.0 -0.559733592
O  O28  1  0.66760000  0.13909000  0.15770000  1.0 -0.559733592
O  O29  1  0.80160000  0.71336000  0.69170000  1.0 -0.5365978206
O  O30  1  0.69840000  0.21336000  0.30830000  1.0 -0.5365978206
O  O31  1  0.19840000  0.28664000  0.30830000  1.0 -0.5365978206
O  O32  1  0.30160000  0.78664000  0.69170000  1.0 -0.5365978206
O  O33  1  0.46910000  0.35763000  0.25420000  1.0 -0.5688434566
O  O34  1  0.03090000  0.85763000  0.74580000  1.0 -0.5688434566
O  O35  1  0.53090000  0.64237000  0.74580000  1.0 -0.5688434566
O  O36  1  0.96910000  0.14237000  0.25420000  1.0 -0.5688434566
O  O37  1  0.11430000  0.78155000  0.86640000  1.0 -0.5347009227
O  O38  1  0.38570000  0.28155000  0.13360000  1.0 -0.5347009227
O  O39  1  0.88570000  0.21845000  0.13360000  1.0 -0.5347009227
O  O40  1  0.61430000  0.71845000  0.86640000  1.0 -0.5347009227
O  O41  1  0.41650000  0.76417000  0.85994000  1.0 -0.5518651034
O  O42  1  0.08350000  0.26417000  0.14006000  1.0 -0.5518651034
O  O43  1  0.58350000  0.23583000  0.14006000  1.0 -0.5518651034
O  O44  1  0.91650000  0.73583000  0.85994000  1.0 -0.5518651034
O  O45  1  0.05890000  0.72380000  0.79331000  1.0 -0.5518651034
O  O46  1  0.44110000  0.22380000  0.20669000  1.0 -0.5518651034
O  O47  1  0.94110000  0.27620000  0.20669000  1.0 -0.5518651034
O  O48  1  0.55890000  0.77620000  0.79331000  1.0 -0.5518651034
O  O49  1  0.29870000  0.77036000  0.91230000  1.0 -0.5688434566
O  O50  1  0.20130000  0.27036000  0.08770000  1.0 -0.5688434566
O  O51  1  0.70130000  0.22964000  0.08770000  1.0 -0.5688434566
O  O52  1  0.79870000  0.72964000  0.91230000  1.0 -0.5688434566
O  O53  1  0.05230000  0.75569000  0.62345000  1.0 -0.5518651034
O  O54  1  0.44770000  0.25569000  0.37655000  1.0 -0.5518651034
O  O55  1  0.94770000  0.24431000  0.37655000  1.0 -0.5518651034
O  O56  1  0.55230000  0.74431000  0.62345000  1.0 -0.5518651034
O  O57  1  0.68597000  0.69076000  0.73430000  1.0 -0.5866484717
O  O58  1  0.81403000  0.19076000  0.26570000  1.0 -0.5866484717
O  O59  1  0.31403000  0.30924000  0.26570000  1.0 -0.5866484717
O  O60  1  0.18597000  0.80924000  0.73430000  1.0 -0.5866484717
O  O61  1  0.92390000  0.77944000  0.71600000  1.0 -0.37112616
O  O62  1  0.57610000  0.27944000  0.28400000  1.0 -0.37112616
O  O63  1  0.07610000  0.22056000  0.28400000  1.0 -0.37112616
O  O64  1  0.42390000  0.72056000  0.71600000  1.0 -0.37112616
O  O65  1  0.82910000  0.83720000  0.78600000  1.0 -0.2350243256
O  O66  1  0.67090000  0.33720000  0.21400000  1.0 -0.2350243256
O  O67  1  0.17090000  0.16280000  0.21400000  1.0 -0.2350243256
O  O68  1  0.32910000  0.66280000  0.78600000  1.0 -0.2350243256
O  O69  1  0.69400000  0.05720000  0.44000000  1.0 -0.1498317039
O  O70  1  0.80600000  0.55720000  0.56000000  1.0 -0.1498317039
O  O71  1  0.30600000  0.94280000  0.56000000  1.0 -0.1498317039
O  O72  1  0.19400000  0.44280000  0.44000000  1.0 -0.1498317039
