# DDEC6 charges by PACMAN v1.1 (https://github.com/mtap-research/PACMAN-charge/)
data_KICFEL_ASR_pacman
_symmetry_space_group_name_H-M   'P 1'
_cell_length_a   15.84710000
_cell_length_b   30.01100000
_cell_length_c   16.36640000
_cell_angle_alpha   90.00000000
_cell_angle_beta   103.10000000
_cell_angle_gamma   90.00000000
_symmetry_Int_Tables_number   1
_chemical_formula_structural   Fe3H68C80N2Cl2O17
_chemical_formula_sum   'Fe12 H272 C320 N8 Cl8 O68'
_cell_volume   7581.09026125
_cell_formula_units_Z   4
loop_
 _symmetry_equiv_pos_site_id
 _symmetry_equiv_pos_as_xyz
  1  'x, y, z'
loop_
 _atom_site_type_symbol
 _atom_site_label
 _atom_site_symmetry_multiplicity
 _atom_site_fract_x
 _atom_site_fract_y
 _atom_site_fract_z
 _atom_site_occupancy
 _atom_site_charge
Fe  Fe1  1  0.22986000  0.82461000  0.86597000  1.0 1.066735415
Fe  Fe2  1  0.27014000  0.32461000  0.13403000  1.0 1.066735415
Fe  Fe3  1  0.77014000  0.17539000  0.13403000  1.0 1.066735415
Fe  Fe4  1  0.72986000  0.67539000  0.86597000  1.0 1.066735415
Fe  Fe5  1  0.05301000  0.79295000  0.72636000  1.0 0.9225361628
Fe  Fe6  1  0.44699000  0.29295000  0.27364000  1.0 0.9225361628
Fe  Fe7  1  0.94699000  0.20705000  0.27364000  1.0 0.9225361628
Fe  Fe8  1  0.55301000  0.70705000  0.72636000  1.0 0.9225361628
Fe  Fe9  1  0.92460000  0.71708000  0.74509000  1.0 1.106070487
Fe  Fe10  1  0.57540000  0.21708000  0.25491000  1.0 1.106070487
Fe  Fe11  1  0.07540000  0.28292000  0.25491000  1.0 1.1035699529
Fe  Fe12  1  0.42460000  0.78292000  0.74509000  1.0 1.106070487
H  H1  1  0.79088000  0.83500000  0.24563000  1.0 0.1204052038
H  H2  1  0.70912000  0.33500000  0.75437000  1.0 0.1204052038
H  H3  1  0.20912000  0.16500000  0.75437000  1.0 0.1204052038
H  H4  1  0.29088000  0.66500000  0.24563000  1.0 0.1204052038
H  H5  1  0.86404000  0.77405000  0.45945000  1.0 0.1472734544
H  H6  1  0.63596000  0.27405000  0.54055000  1.0 0.1472734544
H  H7  1  0.13596000  0.22595000  0.54055000  1.0 0.1472734544
H  H8  1  0.36404000  0.72595000  0.45945000  1.0 0.1472734544
H  H9  1  0.91021000  0.83502000  0.53108000  1.0 0.1002837272
H  H10  1  0.58979000  0.33502000  0.46892000  1.0 0.1002837272
H  H11  1  0.08979000  0.16498000  0.46892000  1.0 0.1002837272
H  H12  1  0.41021000  0.66498000  0.53108000  1.0 0.1002837272
H  H13  1  0.95198000  0.01738000  0.43281000  1.0 0.1204052038
H  H14  1  0.54802000  0.51738000  0.56719000  1.0 0.1204052038
H  H15  1  0.04802000  0.98262000  0.56719000  1.0 0.1204052038
H  H16  1  0.45198000  0.48262000  0.43281000  1.0 0.1204052038
H  H17  1  0.87060000  0.02030000  0.47530000  1.0 0.1290954518
H  H18  1  0.62940000  0.52030000  0.52470000  1.0 0.1290954518
H  H19  1  0.12940000  0.97970000  0.52470000  1.0 0.1290954518
H  H20  1  0.37060000  0.47970000  0.47530000  1.0 0.1290954518
H  H21  1  0.95775000  0.99620000  0.52365000  1.0 0.1290954518
H  H22  1  0.54225000  0.49620000  0.47635000  1.0 0.1290954518
H  H23  1  0.04225000  0.00380000  0.47635000  1.0 0.1290954518
H  H24  1  0.45775000  0.50380000  0.52365000  1.0 0.1290954518
H  H25  1  0.82766000  0.98969000  0.31742000  1.0 0.1002837272
H  H26  1  0.67234000  0.48969000  0.68258000  1.0 0.1002837272
H  H27  1  0.17234000  0.01031000  0.68258000  1.0 0.1002837272
H  H28  1  0.32766000  0.51031000  0.31742000  1.0 0.1002837272
H  H29  1  0.79785000  0.91531000  0.24198000  1.0 0.1290954518
H  H30  1  0.70215000  0.41531000  0.75802000  1.0 0.1290954518
H  H31  1  0.20215000  0.08469000  0.75802000  1.0 0.1290954518
H  H32  1  0.29785000  0.58469000  0.24198000  1.0 0.1290954518
H  H33  1  0.48479000  0.68921000  0.92484000  1.0 0.1389725353
H  H34  1  0.01521000  0.18921000  0.07516000  1.0 0.1389725353
H  H35  1  0.51521000  0.31079000  0.07516000  1.0 0.1389725353
H  H36  1  0.98479000  0.81079000  0.92484000  1.0 0.1389725353
H  H37  1  0.78013000  0.70999000  0.53631000  1.0 0.1204052038
H  H38  1  0.71987000  0.20999000  0.46369000  1.0 0.1204052038
H  H39  1  0.21987000  0.29001000  0.46369000  1.0 0.1204052038
H  H40  1  0.28013000  0.79001000  0.53631000  1.0 0.1204052038
H  H41  1  0.57311000  0.69203000  0.28516000  1.0 0.1290954518
H  H42  1  0.92689000  0.19203000  0.71484000  1.0 0.1290954518
H  H43  1  0.42689000  0.30797000  0.71484000  1.0 0.1290954518
H  H44  1  0.07311000  0.80797000  0.28516000  1.0 0.1290954518
H  H45  1  0.35230000  0.45898000  0.12769000  1.0 0.1204052038
H  H46  1  0.14770000  0.95898000  0.87231000  1.0 0.1204052038
H  H47  1  0.64770000  0.54102000  0.87231000  1.0 0.1204052038
H  H48  1  0.85230000  0.04102000  0.12769000  1.0 0.1204052038
H  H49  1  0.15909000  0.76193000  0.02448000  1.0 0.1204052038
H  H50  1  0.34091000  0.26193000  0.97552000  1.0 0.1204052038
H  H51  1  0.84091000  0.23807000  0.97552000  1.0 0.1204052038
H  H52  1  0.65909000  0.73807000  0.02448000  1.0 0.1204052038
H  H53  1  0.54415000  0.61259000  0.48686000  1.0 0.1290954518
H  H54  1  0.95585000  0.11259000  0.51314000  1.0 0.1290954518
H  H55  1  0.45585000  0.38741000  0.51314000  1.0 0.1290954518
H  H56  1  0.04415000  0.88741000  0.48686000  1.0 0.1290954518
H  H57  1  0.05737000  0.65731000  0.88030000  1.0 0.1290954518
H  H58  1  0.44263000  0.15731000  0.11970000  1.0 0.1290954518
H  H59  1  0.94263000  0.34269000  0.11970000  1.0 0.1290954518
H  H60  1  0.55737000  0.84269000  0.88030000  1.0 0.1290954518
H  H61  1  0.19413000  0.51601000  0.15843000  1.0 0.1290954518
H  H62  1  0.30587000  0.01601000  0.84157000  1.0 0.1290954518
H  H63  1  0.80587000  0.48399000  0.84157000  1.0 0.1290954518
H  H64  1  0.69413000  0.98399000  0.15843000  1.0 0.1290954518
H  H65  1  0.54703000  0.64452000  0.03962000  1.0 0.1290954518
H  H66  1  0.95297000  0.14452000  0.96038000  1.0 0.1290954518
H  H67  1  0.45297000  0.35548000  0.96038000  1.0 0.1290954518
H  H68  1  0.04703000  0.85548000  0.03962000  1.0 0.1290954518
H  H69  1  0.58113000  0.56648000  0.37611000  1.0 0.1290954518
H  H70  1  0.91887000  0.06648000  0.62389000  1.0 0.1290954518
H  H71  1  0.41887000  0.43352000  0.62389000  1.0 0.1290954518
H  H72  1  0.08113000  0.93352000  0.37611000  1.0 0.1290954518
H  H73  1  0.05397000  0.61607000  0.99918000  1.0 0.1204052038
H  H74  1  0.44603000  0.11607000  0.00082000  1.0 0.1204052038
H  H75  1  0.94603000  0.38393000  0.00082000  1.0 0.1204052038
H  H76  1  0.55397000  0.88393000  0.99918000  1.0 0.1204052038
H  H77  1  0.20246000  0.43902000  0.14505000  1.0 0.1204052038
H  H78  1  0.29754000  0.93902000  0.85495000  1.0 0.1204052038
H  H79  1  0.79754000  0.56098000  0.85495000  1.0 0.1204052038
H  H80  1  0.70246000  0.06098000  0.14505000  1.0 0.1204052038
H  H81  1  0.48439000  0.58956000  0.12917000  1.0 0.1204052038
H  H82  1  0.01561000  0.08956000  0.87083000  1.0 0.1204052038
H  H83  1  0.51561000  0.41044000  0.87083000  1.0 0.1204052038
H  H84  1  0.98439000  0.91044000  0.12917000  1.0 0.1204052038
H  H85  1  0.60151000  0.63859000  0.62271000  1.0 0.1204052038
H  H86  1  0.89849000  0.13859000  0.37729000  1.0 0.1204052038
H  H87  1  0.39849000  0.36141000  0.37729000  1.0 0.1204052038
H  H88  1  0.10151000  0.86141000  0.62271000  1.0 0.1204052038
H  H89  1  0.06979000  0.69034000  0.23082000  1.0 0.1204052038
H  H90  1  0.43021000  0.19034000  0.76918000  1.0 0.1204052038
H  H91  1  0.93021000  0.30966000  0.76918000  1.0 0.1204052038
H  H92  1  0.56979000  0.80966000  0.23082000  1.0 0.1204052038
H  H93  1  0.71803000  0.68637000  0.39955000  1.0 0.1204052038
H  H94  1  0.78197000  0.18637000  0.60045000  1.0 0.1204052038
H  H95  1  0.28197000  0.31363000  0.60045000  1.0 0.1204052038
H  H96  1  0.21803000  0.81363000  0.39955000  1.0 0.1204052038
H  H97  1  0.39602000  0.53298000  0.14557000  1.0 0.1204052038
H  H98  1  0.10398000  0.03298000  0.85443000  1.0 0.1204052038
H  H99  1  0.60398000  0.46702000  0.85443000  1.0 0.1204052038
H  H100  1  0.89602000  0.96702000  0.14557000  1.0 0.1204052038
H  H101  1  0.35645000  0.75876000  0.07026000  1.0 0.1290954518
H  H102  1  0.14355000  0.25876000  0.92974000  1.0 0.1290954518
H  H103  1  0.64355000  0.24124000  0.92974000  1.0 0.1290954518
H  H104  1  0.85645000  0.74124000  0.07026000  1.0 0.1290954518
H  H105  1  0.15598000  0.72081000  0.14451000  1.0 0.1104414941
H  H106  1  0.34402000  0.22081000  0.85549000  1.0 0.1104414941
H  H107  1  0.84402000  0.27919000  0.85549000  1.0 0.1104414941
H  H108  1  0.65598000  0.77919000  0.14451000  1.0 0.1104414941
H  H109  1  0.11471000  0.57770000  0.11239000  1.0 0.1204052038
H  H110  1  0.38529000  0.07770000  0.88761000  1.0 0.1204052038
H  H111  1  0.88529000  0.42230000  0.88761000  1.0 0.1204052038
H  H112  1  0.61471000  0.92230000  0.11239000  1.0 0.1204052038
H  H113  1  0.01827000  0.42404000  0.27955000  1.0 0.1389725353
H  H114  1  0.48173000  0.92404000  0.72045000  1.0 0.1389725353
H  H115  1  0.98173000  0.57596000  0.72045000  1.0 0.1389725353
H  H116  1  0.51827000  0.07596000  0.27955000  1.0 0.1389725353
H  H117  1  0.06783000  0.57040000  0.34504000  1.0 0.1204052038
H  H118  1  0.43217000  0.07040000  0.65496000  1.0 0.1204052038
H  H119  1  0.93217000  0.42960000  0.65496000  1.0 0.1204052038
H  H120  1  0.56783000  0.92960000  0.34504000  1.0 0.1204052038
H  H121  1  0.42568000  0.71762000  0.18647000  1.0 0.1104414941
H  H122  1  0.07432000  0.21762000  0.81353000  1.0 0.1104414941
H  H123  1  0.57432000  0.28238000  0.81353000  1.0 0.1104414941
H  H124  1  0.92568000  0.78238000  0.18647000  1.0 0.1104414941
H  H125  1  0.60374000  0.49650000  0.32707000  1.0 0.1389725353
H  H126  1  0.89626000  0.99650000  0.67293000  1.0 0.1389725353
H  H127  1  0.39626000  0.50350000  0.67293000  1.0 0.1389725353
H  H128  1  0.10374000  0.00350000  0.32707000  1.0 0.1389725353
H  H129  1  0.94391000  0.64521000  0.52437000  1.0 0.1290954518
H  H130  1  0.55609000  0.14521000  0.47563000  1.0 0.1290954518
H  H131  1  0.05609000  0.35479000  0.47563000  1.0 0.1290954518
H  H132  1  0.44391000  0.85479000  0.52437000  1.0 0.1290954518
H  H133  1  0.12358000  0.71125000  0.36943000  1.0 0.1204052038
H  H134  1  0.37642000  0.21125000  0.63057000  1.0 0.1204052038
H  H135  1  0.87642000  0.28875000  0.63057000  1.0 0.1204052038
H  H136  1  0.62358000  0.78875000  0.36943000  1.0 0.1204052038
H  H137  1  0.10218000  0.74570000  0.49101000  1.0 0.1204052038
H  H138  1  0.39782000  0.24570000  0.50899000  1.0 0.1204052038
H  H139  1  0.89782000  0.25430000  0.50899000  1.0 0.1204052038
H  H140  1  0.60218000  0.75430000  0.49101000  1.0 0.1204052038
H  H141  1  0.96690000  0.61009000  0.40448000  1.0 0.1290954518
H  H142  1  0.53310000  0.11009000  0.59552000  1.0 0.1290954518
H  H143  1  0.03310000  0.38991000  0.59552000  1.0 0.1290954518
H  H144  1  0.46690000  0.88991000  0.40448000  1.0 0.1290954518
H  H145  1  0.55828000  0.42265000  0.31060000  1.0 0.1637774987
H  H146  1  0.94172000  0.92265000  0.68940000  1.0 0.1637774987
H  H147  1  0.44172000  0.57735000  0.68940000  1.0 0.1637774987
H  H148  1  0.05828000  0.07735000  0.31060000  1.0 0.1637774987
H  H149  1  0.01033000  0.50101000  0.29136000  1.0 0.1290954518
H  H150  1  0.48967000  0.00101000  0.70864000  1.0 0.1290954518
H  H151  1  0.98967000  0.49899000  0.70864000  1.0 0.1290954518
H  H152  1  0.51033000  0.99899000  0.29136000  1.0 0.1290954518
H  H153  1  0.86834000  0.83861000  0.69808000  1.0 0.0798643655
H  H154  1  0.63166000  0.33861000  0.30192000  1.0 0.0798643655
H  H155  1  0.13166000  0.16139000  0.30192000  1.0 0.0713066215
H  H156  1  0.36834000  0.66139000  0.69808000  1.0 0.0798643655
H  H157  1  0.84902000  0.81190000  0.77649000  1.0 0.1290954518
H  H158  1  0.65098000  0.31190000  0.22351000  1.0 0.1290954518
H  H159  1  0.15098000  0.18810000  0.22351000  1.0 0.1290954518
H  H160  1  0.34902000  0.68810000  0.77649000  1.0 0.1290954518
H  H161  1  0.80209000  0.79759000  0.68304000  1.0 0.047706606
H  H162  1  0.69791000  0.29759000  0.31696000  1.0 0.047706606
H  H163  1  0.19791000  0.20241000  0.31696000  1.0 0.047706606
H  H164  1  0.30209000  0.70241000  0.68304000  1.0 0.047706606
H  H165  1  0.82748000  0.92403000  0.38764000  1.0 0.0798643655
H  H166  1  0.67252000  0.42403000  0.61236000  1.0 0.0798643655
H  H167  1  0.17252000  0.07597000  0.61236000  1.0 0.0798643655
H  H168  1  0.32748000  0.57597000  0.38764000  1.0 0.0798643655
H  H169  1  0.86623000  0.97061000  0.42664000  1.0 0.1389725353
H  H170  1  0.63377000  0.47061000  0.57336000  1.0 0.1389725353
H  H171  1  0.13377000  0.02939000  0.57336000  1.0 0.1389725353
H  H172  1  0.36623000  0.52939000  0.42664000  1.0 0.1389725353
H  H173  1  0.77806000  0.96950000  0.35589000  1.0 0.0798643655
H  H174  1  0.72194000  0.46950000  0.64411000  1.0 0.0798643655
H  H175  1  0.22194000  0.03050000  0.64411000  1.0 0.0798643655
H  H176  1  0.27806000  0.53050000  0.35589000  1.0 0.0798643655
H  H177  1  0.75000000  0.97600000  0.48500000  1.0 0.1104414941
H  H178  1  0.75000000  0.47600000  0.51500000  1.0 0.1104414941
H  H179  1  0.25000000  0.02400000  0.51500000  1.0 0.1104414941
H  H180  1  0.25000000  0.52400000  0.48500000  1.0 0.1104414941
H  H181  1  0.70016000  0.90072000  0.49559000  1.0 0.1389725353
H  H182  1  0.79984000  0.40072000  0.50441000  1.0 0.1389725353
H  H183  1  0.29984000  0.09928000  0.50441000  1.0 0.1389725353
H  H184  1  0.20016000  0.59928000  0.49559000  1.0 0.1389725353
H  H185  1  0.68739000  0.85017000  0.60096000  1.0 0.1389725353
H  H186  1  0.81261000  0.35017000  0.39904000  1.0 0.1389725353
H  H187  1  0.31261000  0.14983000  0.39904000  1.0 0.1389725353
H  H188  1  0.18739000  0.64983000  0.60096000  1.0 0.1389725353
H  H189  1  0.69301000  0.86039000  0.78879000  1.0 0.1104414941
H  H190  1  0.80699000  0.36039000  0.21121000  1.0 0.1104414941
H  H191  1  0.30699000  0.13961000  0.21121000  1.0 0.1104414941
H  H192  1  0.19301000  0.63961000  0.78879000  1.0 0.1104414941
H  H193  1  0.59406000  0.86624000  0.73990000  1.0 0.1472734544
H  H194  1  0.90594000  0.36624000  0.26010000  1.0 0.1472734544
H  H195  1  0.40594000  0.13376000  0.26010000  1.0 0.1472734544
H  H196  1  0.09406000  0.63376000  0.73990000  1.0 0.1472734544
H  H197  1  0.65673000  0.83387000  0.70320000  1.0 0.1104414941
H  H198  1  0.84327000  0.33387000  0.29680000  1.0 0.1104414941
H  H199  1  0.34327000  0.16613000  0.29680000  1.0 0.1104414941
H  H200  1  0.15673000  0.66613000  0.70320000  1.0 0.1104414941
H  H201  1  0.89101000  0.82701000  0.62469000  1.0 0.0798643655
H  H202  1  0.60899000  0.32701000  0.37531000  1.0 0.0798643655
H  H203  1  0.10899000  0.17299000  0.37531000  1.0 0.0798643655
H  H204  1  0.39101000  0.67299000  0.62469000  1.0 0.0798643655
H  H205  1  0.80915000  0.80446000  0.65023000  1.0 0.062031015
H  H206  1  0.69085000  0.30446000  0.34977000  1.0 0.062031015
H  H207  1  0.19085000  0.19554000  0.34977000  1.0 0.062031015
H  H208  1  0.30915000  0.69554000  0.65023000  1.0 0.062031015
H  H209  1  0.86142000  0.77781000  0.59282000  1.0 0.0798643655
H  H210  1  0.63858000  0.27781000  0.40718000  1.0 0.0798643655
H  H211  1  0.13858000  0.22219000  0.40718000  1.0 0.0798643655
H  H212  1  0.36142000  0.72219000  0.59282000  1.0 0.0798643655
H  H213  1  0.70019000  0.08009000  0.61689000  1.0 0.0911087216
H  H214  1  0.79981000  0.58009000  0.38311000  1.0 0.0911087216
H  H215  1  0.29981000  0.91991000  0.38311000  1.0 0.0911087216
H  H216  1  0.20019000  0.41991000  0.61689000  1.0 0.0911087216
H  H217  1  0.68623000  0.02187000  0.71630000  1.0 0.1290954518
H  H218  1  0.81377000  0.52187000  0.28370000  1.0 0.1290954518
H  H219  1  0.31377000  0.97813000  0.28370000  1.0 0.1290954518
H  H220  1  0.18623000  0.47813000  0.71630000  1.0 0.1290954518
H  H221  1  0.72482000  0.98034000  0.43978000  1.0 0.1204052038
H  H222  1  0.77518000  0.48034000  0.56022000  1.0 0.1204052038
H  H223  1  0.27518000  0.01966000  0.56022000  1.0 0.1204052038
H  H224  1  0.22482000  0.51966000  0.43978000  1.0 0.1204052038
H  H225  1  0.85240000  0.83170000  0.75372000  1.0 0.1104414941
H  H226  1  0.64760000  0.33170000  0.24628000  1.0 0.1104414941
H  H227  1  0.14760000  0.16830000  0.24628000  1.0 0.1104414941
H  H228  1  0.35240000  0.66830000  0.75372000  1.0 0.1104414941
H  H229  1  0.74156000  0.80315000  0.82859000  1.0 0.1104414941
H  H230  1  0.75844000  0.30315000  0.17141000  1.0 0.1104414941
H  H231  1  0.25844000  0.19685000  0.17141000  1.0 0.1104414941
H  H232  1  0.24156000  0.69685000  0.82859000  1.0 0.1104414941
H  H233  1  0.73371000  0.80558000  0.72947000  1.0 0.0713066215
H  H234  1  0.76629000  0.30558000  0.27053000  1.0 0.0713066215
H  H235  1  0.26629000  0.19442000  0.27053000  1.0 0.0713066215
H  H236  1  0.23371000  0.69442000  0.72947000  1.0 0.0713066215
H  H237  1  0.70866000  0.84796000  0.77842000  1.0 0.0798643655
H  H238  1  0.79134000  0.34796000  0.22158000  1.0 0.0798643655
H  H239  1  0.29134000  0.15204000  0.22158000  1.0 0.0798643655
H  H240  1  0.20866000  0.65204000  0.77842000  1.0 0.0798643655
H  H241  1  0.77703000  0.05309000  0.36307000  1.0 0.3116542978
H  H242  1  0.72297000  0.55309000  0.63693000  1.0 0.3116542978
H  H243  1  0.22297000  0.94691000  0.63693000  1.0 0.3116542978
H  H244  1  0.27703000  0.44691000  0.36307000  1.0 0.3116542978
H  H245  1  0.76724000  0.04712000  0.50187000  1.0 0.1002837272
H  H246  1  0.73276000  0.54712000  0.49813000  1.0 0.1002837272
H  H247  1  0.23276000  0.95288000  0.49813000  1.0 0.1002837272
H  H248  1  0.26724000  0.45288000  0.50187000  1.0 0.1002837272
H  H249  1  0.68249000  0.03935000  0.42878000  1.0 0.1204052038
H  H250  1  0.81751000  0.53935000  0.57122000  1.0 0.1204052038
H  H251  1  0.31751000  0.96065000  0.57122000  1.0 0.1204052038
H  H252  1  0.18249000  0.46065000  0.42878000  1.0 0.1204052038
H  H253  1  0.73801000  0.99760000  0.47189000  1.0 0.0798643655
H  H254  1  0.76199000  0.49760000  0.52811000  1.0 0.0798643655
H  H255  1  0.26199000  0.00240000  0.52811000  1.0 0.0798643655
H  H256  1  0.23801000  0.50240000  0.47189000  1.0 0.0798643655
H  H257  1  0.90816000  0.82192000  0.38379000  1.0 0.1290954518
H  H258  1  0.59184000  0.32192000  0.61621000  1.0 0.1290954518
H  H259  1  0.09184000  0.17808000  0.61621000  1.0 0.1290954518
H  H260  1  0.40816000  0.67808000  0.38379000  1.0 0.1290954518
H  H261  1  0.88185000  0.88540000  0.43410000  1.0 0.1472734544
H  H262  1  0.61815000  0.38540000  0.56590000  1.0 0.1472734544
H  H263  1  0.11815000  0.11460000  0.56590000  1.0 0.1472734544
H  H264  1  0.38185000  0.61460000  0.43410000  1.0 0.1472734544
H  H265  1  0.78499000  0.86950000  0.43202000  1.0 0.1104414941
H  H266  1  0.71501000  0.36950000  0.56798000  1.0 0.1104414941
H  H267  1  0.21501000  0.13050000  0.56798000  1.0 0.1104414941
H  H268  1  0.28499000  0.63050000  0.43202000  1.0 0.1104414941
H  H269  1  0.81091000  0.88470000  0.34723000  1.0 0.0911087216
H  H270  1  0.68909000  0.38470000  0.65277000  1.0 0.0911087216
H  H271  1  0.18909000  0.11530000  0.65277000  1.0 0.0911087216
H  H272  1  0.31091000  0.61530000  0.34723000  1.0 0.0911087216
C  C1  1  0.81370000  0.83710000  0.30440000  1.0 -0.0911623371
C  C2  1  0.68630000  0.33710000  0.69560000  1.0 -0.0911623371
C  C3  1  0.18630000  0.16290000  0.69560000  1.0 -0.0911623371
C  C4  1  0.31370000  0.66290000  0.30440000  1.0 -0.0911623371
C  C5  1  0.82850000  0.80170000  0.34900000  1.0 0.0713066215
C  C6  1  0.67150000  0.30170000  0.65100000  1.0 0.0713066215
C  C7  1  0.17150000  0.19830000  0.65100000  1.0 0.0713066215
C  C8  1  0.32850000  0.69830000  0.34900000  1.0 0.0713066215
C  C9  1  0.83290000  0.88260000  0.34590000  1.0 0.0139038266
C  C10  1  0.66710000  0.38260000  0.65410000  1.0 0.0139038266
C  C11  1  0.16710000  0.11740000  0.65410000  1.0 0.0139038266
C  C12  1  0.33290000  0.61740000  0.34590000  1.0 0.0139038266
C  C13  1  0.85930000  0.80180000  0.43070000  1.0 -0.0911623371
C  C14  1  0.64070000  0.30180000  0.56930000  1.0 -0.0911623371
C  C15  1  0.14070000  0.19820000  0.56930000  1.0 -0.0911623371
C  C16  1  0.35930000  0.69820000  0.43070000  1.0 -0.0911623371
C  C17  1  0.88280000  0.83660000  0.47320000  1.0 -0.0491189564
C  C18  1  0.61720000  0.33660000  0.52680000  1.0 -0.0491189564
C  C19  1  0.11720000  0.16340000  0.52680000  1.0 -0.0491189564
C  C20  1  0.38280000  0.66340000  0.47320000  1.0 -0.0491189564
C  C21  1  0.86600000  0.88000000  0.42950000  1.0 0.1104414941
C  C22  1  0.63400000  0.38000000  0.57050000  1.0 0.1104414941
C  C23  1  0.13400000  0.12000000  0.57050000  1.0 0.1104414941
C  C24  1  0.36600000  0.62000000  0.42950000  1.0 0.1104414941
C  C25  1  0.88390000  0.95500000  0.42560000  1.0 0.1002837272
C  C26  1  0.61610000  0.45500000  0.57440000  1.0 0.1002837272
C  C27  1  0.11610000  0.04500000  0.57440000  1.0 0.1002837272
C  C28  1  0.38390000  0.54500000  0.42560000  1.0 0.1002837272
C  C29  1  0.91960000  0.00180000  0.46860000  1.0 -0.5025577264
C  C30  1  0.58040000  0.50180000  0.53140000  1.0 -0.5025577264
C  C31  1  0.08040000  0.99820000  0.53140000  1.0 -0.5025577264
C  C32  1  0.41960000  0.49820000  0.46860000  1.0 -0.5025577264
C  C33  1  0.84150000  0.96150000  0.34340000  1.0 -0.1686304676
C  C34  1  0.65850000  0.46150000  0.65660000  1.0 -0.1686304676
C  C35  1  0.15850000  0.03850000  0.65660000  1.0 -0.1686304676
C  C36  1  0.34150000  0.53850000  0.34340000  1.0 -0.1686304676
C  C37  1  0.82020000  0.91720000  0.30090000  1.0 -0.2394515293
C  C38  1  0.67980000  0.41720000  0.69910000  1.0 -0.2394515293
C  C39  1  0.17980000  0.08280000  0.69910000  1.0 -0.2394515293
C  C40  1  0.32020000  0.58280000  0.30090000  1.0 -0.2394515293
C  C41  1  0.72870000  0.69588000  0.67760000  1.0 0.5914390414
C  C42  1  0.77130000  0.19588000  0.32240000  1.0 0.5914390414
C  C43  1  0.27130000  0.30412000  0.32240000  1.0 0.5914390414
C  C44  1  0.22870000  0.80412000  0.67760000  1.0 0.5914390414
C  C45  1  0.10580000  0.71402000  0.94080000  1.0 -0.0305776547
C  C46  1  0.39420000  0.21402000  0.05920000  1.0 -0.0305776547
C  C47  1  0.89420000  0.28598000  0.05920000  1.0 -0.0305776547
C  C48  1  0.60580000  0.78598000  0.94080000  1.0 -0.0305776547
C  C49  1  0.69390000  0.67819000  0.59190000  1.0 -0.0305776547
C  C50  1  0.80610000  0.17819000  0.40810000  1.0 -0.0305776547
C  C51  1  0.30610000  0.32181000  0.40810000  1.0 -0.0305776547
C  C52  1  0.19390000  0.82181000  0.59190000  1.0 -0.0305776547
C  C53  1  0.58440000  0.63150000  0.34340000  1.0 0.0911087216
C  C54  1  0.91560000  0.13150000  0.65660000  1.0 0.0911087216
C  C55  1  0.41560000  0.36850000  0.65660000  1.0 0.0911087216
C  C56  1  0.08440000  0.86850000  0.34340000  1.0 0.0911087216
C  C57  1  0.11870000  0.37420000  0.20130000  1.0 0.5952639265
C  C58  1  0.38130000  0.87420000  0.79870000  1.0 0.5952639265
C  C59  1  0.88130000  0.62580000  0.79870000  1.0 0.5914390414
C  C60  1  0.61870000  0.12580000  0.20130000  1.0 0.5952639265
C  C61  1  0.45190000  0.43333000  0.21820000  1.0 -0.0305776547
C  C62  1  0.04810000  0.93333000  0.78180000  1.0 -0.0305776547
C  C63  1  0.54810000  0.56667000  0.78180000  1.0 -0.0305776547
C  C64  1  0.95190000  0.06667000  0.21820000  1.0 -0.0305776547
C  C65  1  0.41440000  0.72784000  0.98590000  1.0 -0.0235200208
C  C66  1  0.08560000  0.22784000  0.01410000  1.0 -0.0235200208
C  C67  1  0.58560000  0.27216000  0.01410000  1.0 -0.0235200208
C  C68  1  0.91440000  0.77216000  0.98590000  1.0 -0.0235200208
C  C69  1  0.09370000  0.74121000  0.86410000  1.0 0.578888504
C  C70  1  0.40630000  0.24121000  0.13590000  1.0 0.578888504
C  C71  1  0.90630000  0.25879000  0.13590000  1.0 0.578888504
C  C72  1  0.59370000  0.75879000  0.86410000  1.0 0.578888504
C  C73  1  0.11120000  0.42346000  0.21080000  1.0 -0.0382148827
C  C74  1  0.38880000  0.92346000  0.78920000  1.0 -0.0382148827
C  C75  1  0.88880000  0.57654000  0.78920000  1.0 -0.0382148827
C  C76  1  0.61120000  0.07654000  0.21080000  1.0 -0.0382148827
C  C77  1  0.37200000  0.75605000  0.91230000  1.0 0.5914390414
C  C78  1  0.12800000  0.25605000  0.08770000  1.0 0.5914390414
C  C79  1  0.62800000  0.24395000  0.08770000  1.0 0.5914390414
C  C80  1  0.87200000  0.74395000  0.91230000  1.0 0.5914390414
C  C81  1  0.42070000  0.38598000  0.20780000  1.0 0.5914390414
C  C82  1  0.07930000  0.88598000  0.79220000  1.0 0.5914390414
C  C83  1  0.57930000  0.61402000  0.79220000  1.0 0.5914390414
C  C84  1  0.92070000  0.11402000  0.20780000  1.0 0.5914390414
C  C85  1  0.62390000  0.64783000  0.42900000  1.0 0.0713066215
C  C86  1  0.87610000  0.14783000  0.57100000  1.0 0.0713066215
C  C87  1  0.37610000  0.35217000  0.57100000  1.0 0.0713066215
C  C88  1  0.12390000  0.85217000  0.42900000  1.0 0.0713066215
C  C89  1  0.00940000  0.72050000  0.59860000  1.0 0.5686257763
C  C90  1  0.49060000  0.22050000  0.40140000  1.0 0.5686257763
C  C91  1  0.99060000  0.27950000  0.40140000  1.0 0.5686257763
C  C92  1  0.50940000  0.77950000  0.59860000  1.0 0.5686257763
C  C93  1  0.47120000  0.69439000  0.97770000  1.0 -0.0911623371
C  C94  1  0.02880000  0.19439000  0.02230000  1.0 -0.0911623371
C  C95  1  0.52880000  0.30561000  0.02230000  1.0 -0.0911623371
C  C96  1  0.97120000  0.80561000  0.97770000  1.0 -0.0911623371
C  C97  1  0.73060000  0.69121000  0.52600000  1.0 -0.080428981
C  C98  1  0.76940000  0.19121000  0.47400000  1.0 -0.080428981
C  C99  1  0.26940000  0.30879000  0.47400000  1.0 -0.080428981
C  C100  1  0.23060000  0.80879000  0.52600000  1.0 -0.080428981
C  C101  1  0.56210000  0.66109000  0.27630000  1.0 -0.1994061971
C  C102  1  0.93790000  0.16109000  0.72370000  1.0 -0.1994061971
C  C103  1  0.43790000  0.33891000  0.72370000  1.0 -0.1994061971
C  C104  1  0.06210000  0.83891000  0.27630000  1.0 -0.1994061971
C  C105  1  0.40310000  0.46664000  0.16850000  1.0 -0.1006962295
C  C106  1  0.09690000  0.96664000  0.83150000  1.0 -0.1006962295
C  C107  1  0.59690000  0.53336000  0.83150000  1.0 -0.1006962295
C  C108  1  0.90310000  0.03336000  0.16850000  1.0 -0.1006962295
C  C109  1  0.13650000  0.73247000  0.01940000  1.0 -0.080428981
C  C110  1  0.36350000  0.23247000  0.98060000  1.0 -0.080428981
C  C111  1  0.86350000  0.26753000  0.98060000  1.0 -0.080428981
C  C112  1  0.63650000  0.76753000  0.01940000  1.0 -0.080428981
C  C113  1  0.59080000  0.63324000  0.49640000  1.0 -0.2323964358
C  C114  1  0.90920000  0.13324000  0.50360000  1.0 -0.2323964358
C  C115  1  0.40920000  0.36676000  0.50360000  1.0 -0.2323964358
C  C116  1  0.09080000  0.86676000  0.49640000  1.0 -0.2323964358
C  C117  1  0.07630000  0.67047000  0.93410000  1.0 -0.080428981
C  C118  1  0.42370000  0.17047000  0.06590000  1.0 -0.080428981
C  C119  1  0.92370000  0.32953000  0.06590000  1.0 -0.080428981
C  C120  1  0.57630000  0.82953000  0.93410000  1.0 -0.080428981
C  C121  1  0.52350000  0.64540000  0.19610000  1.0 0.0911087216
C  C122  1  0.97650000  0.14540000  0.80390000  1.0 0.0911087216
C  C123  1  0.47650000  0.35460000  0.80390000  1.0 0.0911087216
C  C124  1  0.02350000  0.85460000  0.19610000  1.0 0.0911087216
C  C125  1  0.15770000  0.49735000  0.18230000  1.0 -0.1551864462
C  C126  1  0.34230000  0.99735000  0.81770000  1.0 -0.1551864462
C  C127  1  0.84230000  0.50265000  0.81770000  1.0 -0.1551864462
C  C128  1  0.65770000  0.00265000  0.18230000  1.0 -0.1551864462
C  C129  1  0.49130000  0.67615000  0.12450000  1.0 0.0713066215
C  C130  1  0.00870000  0.17615000  0.87550000  1.0 0.0713066215
C  C131  1  0.50870000  0.32385000  0.87550000  1.0 0.0713066215
C  C132  1  0.99130000  0.82385000  0.12450000  1.0 0.0713066215
C  C133  1  0.50900000  0.66806000  0.04620000  1.0 -0.1408699157
C  C134  1  0.99100000  0.16806000  0.95380000  1.0 -0.1408699157
C  C135  1  0.49100000  0.33194000  0.95380000  1.0 -0.1408699157
C  C136  1  0.00900000  0.83194000  0.04620000  1.0 -0.1408699157
C  C137  1  0.56670000  0.58655000  0.33020000  1.0 -0.2323964358
C  C138  1  0.93330000  0.08655000  0.66980000  1.0 -0.2323964358
C  C139  1  0.43330000  0.41345000  0.66980000  1.0 -0.2323964358
C  C140  1  0.06670000  0.91345000  0.33020000  1.0 -0.2323964358
C  C141  1  0.07410000  0.64598000  0.00500000  1.0 -0.1408699157
C  C142  1  0.42590000  0.14598000  0.99500000  1.0 -0.1408699157
C  C143  1  0.92590000  0.35402000  0.99500000  1.0 -0.1408699157
C  C144  1  0.57410000  0.85402000  0.00500000  1.0 -0.1408699157
C  C145  1  0.52800000  0.57009000  0.25060000  1.0 0.1002837272
C  C146  1  0.97200000  0.07009000  0.74940000  1.0 0.1002837272
C  C147  1  0.47200000  0.42991000  0.74940000  1.0 0.1002837272
C  C148  1  0.02800000  0.92991000  0.25060000  1.0 0.1002837272
C  C149  1  0.16320000  0.45147000  0.17480000  1.0 -0.1006962295
C  C150  1  0.33680000  0.95147000  0.82520000  1.0 -0.1006962295
C  C151  1  0.83680000  0.54853000  0.82520000  1.0 -0.1006962295
C  C152  1  0.66320000  0.04853000  0.17480000  1.0 -0.1006962295
C  C153  1  0.10080000  0.66430000  0.08490000  1.0 0.0713066215
C  C154  1  0.39920000  0.16430000  0.91510000  1.0 0.0713066215
C  C155  1  0.89920000  0.33570000  0.91510000  1.0 0.0713066215
C  C156  1  0.60080000  0.83570000  0.08490000  1.0 0.0713066215
C  C157  1  0.50850000  0.60031000  0.18410000  1.0 -0.1994061971
C  C158  1  0.99150000  0.10031000  0.81590000  1.0 -0.1994061971
C  C159  1  0.49150000  0.39969000  0.81590000  1.0 -0.1994061971
C  C160  1  0.00850000  0.89969000  0.18410000  1.0 -0.1994061971
C  C161  1  0.02100000  0.69891000  0.51970000  1.0 -0.0235200208
C  C162  1  0.47900000  0.19891000  0.48030000  1.0 -0.0235200208
C  C163  1  0.97900000  0.30109000  0.48030000  1.0 -0.0235200208
C  C164  1  0.52100000  0.80109000  0.51970000  1.0 -0.0235200208
C  C165  1  0.06640000  0.63380000  0.30000000  1.0 0.0911087216
C  C166  1  0.43360000  0.13380000  0.70000000  1.0 0.0911087216
C  C167  1  0.93360000  0.36620000  0.70000000  1.0 0.0911087216
C  C168  1  0.56640000  0.86620000  0.30000000  1.0 0.0911087216
C  C169  1  0.09970000  0.51640000  0.22420000  1.0 0.0713066215
C  C170  1  0.40030000  0.01640000  0.77580000  1.0 0.0713066215
C  C171  1  0.90030000  0.48360000  0.77580000  1.0 0.0713066215
C  C172  1  0.59970000  0.98360000  0.22420000  1.0 0.0713066215
C  C173  1  0.62510000  0.64850000  0.57750000  1.0 -0.1506335966
C  C174  1  0.87490000  0.14850000  0.42250000  1.0 -0.1506335966
C  C175  1  0.37490000  0.35150000  0.42250000  1.0 -0.1506335966
C  C176  1  0.12510000  0.85150000  0.57750000  1.0 -0.1506335966
C  C177  1  0.07570000  0.65885000  0.23010000  1.0 -0.1994061971
C  C178  1  0.42430000  0.15885000  0.76990000  1.0 -0.1994061971
C  C179  1  0.92430000  0.34115000  0.76990000  1.0 -0.1994061971
C  C180  1  0.57570000  0.84115000  0.23010000  1.0 -0.1994061971
C  C181  1  0.69420000  0.67654000  0.44470000  1.0 -0.1408699157
C  C182  1  0.80580000  0.17654000  0.55530000  1.0 -0.1408699157
C  C183  1  0.30580000  0.32346000  0.55530000  1.0 -0.1408699157
C  C184  1  0.19420000  0.82346000  0.44470000  1.0 -0.1408699157
C  C185  1  0.42920000  0.51052000  0.17920000  1.0 -0.1408699157
C  C186  1  0.07080000  0.01052000  0.82080000  1.0 -0.1408699157
C  C187  1  0.57080000  0.48948000  0.82080000  1.0 -0.1408699157
C  C188  1  0.92920000  0.98948000  0.17920000  1.0 -0.1408699157
C  C189  1  0.39630000  0.73598000  0.06430000  1.0 -0.0911623371
C  C190  1  0.10370000  0.23598000  0.93570000  1.0 -0.0911623371
C  C191  1  0.60370000  0.26402000  0.93570000  1.0 -0.0911623371
C  C192  1  0.89630000  0.76402000  0.06430000  1.0 -0.0911623371
C  C193  1  0.13440000  0.70795000  0.09080000  1.0 -0.1506335966
C  C194  1  0.36560000  0.20795000  0.90920000  1.0 -0.1506335966
C  C195  1  0.86560000  0.29205000  0.90920000  1.0 -0.1506335966
C  C196  1  0.63440000  0.79205000  0.09080000  1.0 -0.1506335966
C  C197  1  0.09350000  0.63827000  0.15990000  1.0 0.1002837272
C  C198  1  0.40650000  0.13827000  0.84010000  1.0 0.1002837272
C  C199  1  0.90650000  0.36173000  0.84010000  1.0 0.1002837272
C  C200  1  0.59350000  0.86173000  0.15990000  1.0 0.1002837272
C  C201  1  0.10140000  0.59189000  0.15980000  1.0 -0.1994061971
C  C202  1  0.39860000  0.09189000  0.84020000  1.0 -0.1994061971
C  C203  1  0.89860000  0.40811000  0.84020000  1.0 -0.1994061971
C  C204  1  0.60140000  0.90811000  0.15980000  1.0 -0.1994061971
C  C205  1  0.05390000  0.44257000  0.25440000  1.0 -0.1006962295
C  C206  1  0.44610000  0.94257000  0.74560000  1.0 -0.1006962295
C  C207  1  0.94610000  0.55743000  0.74560000  1.0 -0.1006962295
C  C208  1  0.55390000  0.05743000  0.25440000  1.0 -0.1006962295
C  C209  1  0.50330000  0.52233000  0.23830000  1.0 0.0798643655
C  C210  1  0.99670000  0.02233000  0.76170000  1.0 0.0798643655
C  C211  1  0.49670000  0.47767000  0.76170000  1.0 0.0798643655
C  C212  1  0.00330000  0.97767000  0.23830000  1.0 0.0911087216
C  C213  1  0.07390000  0.58753000  0.29790000  1.0 -0.2323964358
C  C214  1  0.42610000  0.08753000  0.70210000  1.0 -0.2323964358
C  C215  1  0.92610000  0.41247000  0.70210000  1.0 -0.2323964358
C  C216  1  0.57390000  0.91247000  0.29790000  1.0 -0.2323964358
C  C217  1  0.09040000  0.56587000  0.22680000  1.0 0.0911087216
C  C218  1  0.40960000  0.06587000  0.77320000  1.0 0.0911087216
C  C219  1  0.90960000  0.43413000  0.77320000  1.0 0.1002837272
C  C220  1  0.59040000  0.93413000  0.22680000  1.0 0.0911087216
C  C221  1  0.04950000  0.65691000  0.37600000  1.0 0.0798643655
C  C222  1  0.45050000  0.15691000  0.62400000  1.0 0.0798643655
C  C223  1  0.95050000  0.34309000  0.62400000  1.0 0.0798643655
C  C224  1  0.54950000  0.84309000  0.37600000  1.0 0.0798643655
C  C225  1  0.43610000  0.71097000  0.13290000  1.0 -0.1506335966
C  C226  1  0.06390000  0.21097000  0.86710000  1.0 -0.1506335966
C  C227  1  0.56390000  0.28903000  0.86710000  1.0 -0.1506335966
C  C228  1  0.93610000  0.78903000  0.13290000  1.0 -0.1506335966
C  C229  1  0.55230000  0.48901000  0.28710000  1.0 -0.1408699157
C  C230  1  0.94770000  0.98901000  0.71290000  1.0 -0.1408699157
C  C231  1  0.44770000  0.51099000  0.71290000  1.0 -0.1408699157
C  C232  1  0.05230000  0.01099000  0.28710000  1.0 -0.1408699157
C  C233  1  0.98110000  0.65856000  0.49330000  1.0 -0.080428981
C  C234  1  0.51890000  0.15856000  0.50670000  1.0 -0.080428981
C  C235  1  0.01890000  0.34144000  0.50670000  1.0 -0.080428981
C  C236  1  0.48110000  0.84144000  0.49330000  1.0 -0.080428981
C  C237  1  0.08780000  0.69741000  0.40140000  1.0 -0.1757514345
C  C238  1  0.41220000  0.19741000  0.59860000  1.0 -0.1757514345
C  C239  1  0.91220000  0.30259000  0.59860000  1.0 -0.1686304676
C  C240  1  0.58780000  0.80259000  0.40140000  1.0 -0.1757514345
C  C241  1  0.07440000  0.71815000  0.47350000  1.0 -0.1152105795
C  C242  1  0.42560000  0.21815000  0.52650000  1.0 -0.1152105795
C  C243  1  0.92560000  0.28185000  0.52650000  1.0 -0.1152105795
C  C244  1  0.57440000  0.78185000  0.47350000  1.0 -0.1152105795
C  C245  1  0.99470000  0.63762000  0.42210000  1.0 -0.1271198558
C  C246  1  0.50530000  0.13762000  0.57790000  1.0 -0.1271198558
C  C247  1  0.00530000  0.36238000  0.57790000  1.0 -0.1271198558
C  C248  1  0.49470000  0.86238000  0.42210000  1.0 -0.1271198558
C  C249  1  0.52540000  0.44510000  0.27670000  1.0 -0.080428981
C  C250  1  0.97460000  0.94510000  0.72330000  1.0 -0.080428981
C  C251  1  0.47460000  0.55490000  0.72330000  1.0 -0.080428981
C  C252  1  0.02540000  0.05490000  0.27670000  1.0 -0.080428981
C  C253  1  0.04900000  0.48842000  0.26110000  1.0 -0.1506335966
C  C254  1  0.45100000  0.98842000  0.73890000  1.0 -0.1506335966
C  C255  1  0.95100000  0.51158000  0.73890000  1.0 -0.1506335966
C  C256  1  0.54900000  0.01158000  0.26110000  1.0 -0.1506335966
C  C257  1  0.85580000  0.80920000  0.71860000  1.0 -0.080428981
C  C258  1  0.64420000  0.30920000  0.28140000  1.0 -0.080428981
C  C259  1  0.14420000  0.19080000  0.28140000  1.0 -0.080428981
C  C260  1  0.35580000  0.69080000  0.71860000  1.0 -0.080428981
C  C261  1  0.81290000  0.95390000  0.40500000  1.0 -0.0558304598
C  C262  1  0.68710000  0.45390000  0.59500000  1.0 -0.0558304598
C  C263  1  0.18710000  0.04610000  0.59500000  1.0 -0.0558304598
C  C264  1  0.31290000  0.54610000  0.40500000  1.0 -0.0558304598
C  C265  1  0.67670000  0.89680000  0.68860000  1.0 0.2590053959
C  C266  1  0.82330000  0.39680000  0.31140000  1.0 0.2590053959
C  C267  1  0.32330000  0.10320000  0.31140000  1.0 0.2590053959
C  C268  1  0.17670000  0.60320000  0.68860000  1.0 0.2590053959
C  C269  1  0.68240000  0.97240000  0.64080000  1.0 0.1812904386
C  C270  1  0.81760000  0.47240000  0.35920000  1.0 0.1812904386
C  C271  1  0.31760000  0.02760000  0.35920000  1.0 0.1812904386
C  C272  1  0.18240000  0.52760000  0.64080000  1.0 0.1812904386
C  C273  1  0.69180000  0.95690000  0.56340000  1.0 -0.1061707379
C  C274  1  0.80820000  0.45690000  0.43660000  1.0 -0.1061707379
C  C275  1  0.30820000  0.04310000  0.43660000  1.0 -0.1061707379
C  C276  1  0.19180000  0.54310000  0.56340000  1.0 -0.1061707379
C  C277  1  0.69370000  0.91130000  0.54850000  1.0 -0.2204683104
C  C278  1  0.80630000  0.41130000  0.45150000  1.0 -0.2204683104
C  C279  1  0.30630000  0.08870000  0.45150000  1.0 -0.2204683104
C  C280  1  0.19370000  0.58870000  0.54850000  1.0 -0.2204683104
C  C281  1  0.68610000  0.88130000  0.61110000  1.0 -0.2674454576
C  C282  1  0.81390000  0.38130000  0.38890000  1.0 -0.2648042457
C  C283  1  0.31390000  0.11870000  0.38890000  1.0 -0.2674454576
C  C284  1  0.18610000  0.61870000  0.61110000  1.0 -0.2674454576
C  C285  1  0.65340000  0.86180000  0.73330000  1.0 -0.3572495299
C  C286  1  0.84660000  0.36180000  0.26670000  1.0 -0.3572495299
C  C287  1  0.34660000  0.13820000  0.26670000  1.0 -0.3572495299
C  C288  1  0.15340000  0.63820000  0.73330000  1.0 -0.3572495299
C  C289  1  0.86660000  0.79890000  0.63940000  1.0 -0.1895038788
C  C290  1  0.63340000  0.29890000  0.36060000  1.0 -0.1895038788
C  C291  1  0.13340000  0.20110000  0.36060000  1.0 -0.1895038788
C  C292  1  0.36660000  0.70110000  0.63940000  1.0 -0.1895038788
C  C293  1  0.70560000  0.03340000  0.51810000  1.0 -0.0698566826
C  C294  1  0.79440000  0.53340000  0.48190000  1.0 -0.0698566826
C  C295  1  0.29440000  0.96660000  0.48190000  1.0 -0.0698566826
C  C296  1  0.20560000  0.46660000  0.51810000  1.0 -0.0698566826
C  C297  1  0.69840000  0.04940000  0.60230000  1.0 -0.0911623371
C  C298  1  0.80160000  0.54940000  0.39770000  1.0 -0.0911623371
C  C299  1  0.30160000  0.95060000  0.39770000  1.0 -0.0911623371
C  C300  1  0.19840000  0.45060000  0.60230000  1.0 -0.0911623371
C  C301  1  0.68840000  0.01380000  0.66070000  1.0 -0.1895038788
C  C302  1  0.81160000  0.51380000  0.33930000  1.0 -0.1895038788
C  C303  1  0.31160000  0.98620000  0.33930000  1.0 -0.1895038788
C  C304  1  0.18840000  0.48620000  0.66070000  1.0 -0.1895038788
C  C305  1  0.71160000  0.98940000  0.49110000  1.0 -0.0698566826
C  C306  1  0.78840000  0.48940000  0.50890000  1.0 -0.0698566826
C  C307  1  0.28840000  0.01060000  0.50890000  1.0 -0.0698566826
C  C308  1  0.21160000  0.51060000  0.49110000  1.0 -0.0698566826
C  C309  1  0.74790000  0.82250000  0.78210000  1.0 -0.1895038788
C  C310  1  0.75210000  0.32250000  0.21790000  1.0 -0.1895038788
C  C311  1  0.25210000  0.17750000  0.21790000  1.0 -0.1895038788
C  C312  1  0.24790000  0.67750000  0.78210000  1.0 -0.1895038788
C  C313  1  0.74100000  0.02850000  0.45360000  1.0 -0.0305776547
C  C314  1  0.75900000  0.52850000  0.54640000  1.0 -0.0305776547
C  C315  1  0.25900000  0.97150000  0.54640000  1.0 -0.0305776547
C  C316  1  0.24100000  0.47150000  0.45360000  1.0 -0.0305776547
C  C317  1  0.83100000  0.86960000  0.40100000  1.0 -0.0558304598
C  C318  1  0.66900000  0.36960000  0.59900000  1.0 -0.0558304598
C  C319  1  0.16900000  0.13040000  0.59900000  1.0 -0.0558304598
C  C320  1  0.33100000  0.63040000  0.40100000  1.0 -0.0558304598
N  N1  1  0.89920000  0.91750000  0.46900000  1.0 -0.2674454576
N  N2  1  0.60080000  0.41750000  0.53100000  1.0 -0.2674454576
N  N3  1  0.10080000  0.08250000  0.53100000  1.0 -0.2674454576
N  N4  1  0.39920000  0.58250000  0.46900000  1.0 -0.2674454576
N  N5  1  0.67480000  0.94240000  0.70340000  1.0 -0.3725322502
N  N6  1  0.82520000  0.44240000  0.29660000  1.0 -0.3725322502
N  N7  1  0.32520000  0.05760000  0.29660000  1.0 -0.3725322502
N  N8  1  0.17480000  0.55760000  0.70340000  1.0 -0.3725322502
Cl  Cl1  1  0.79980000  0.74680000  0.29850000  1.0 -0.2674454576
Cl  Cl2  1  0.70020000  0.24680000  0.70150000  1.0 -0.2674454576
Cl  Cl3  1  0.20020000  0.25320000  0.70150000  1.0 -0.2674454576
Cl  Cl4  1  0.29980000  0.75320000  0.29850000  1.0 -0.2674454576
Cl  Cl5  1  0.70750000  0.07310000  0.44890000  1.0 -0.0911623371
Cl  Cl6  1  0.79250000  0.57310000  0.55110000  1.0 -0.0911623371
Cl  Cl7  1  0.29250000  0.92690000  0.55110000  1.0 -0.0911623371
Cl  Cl8  1  0.20750000  0.42690000  0.44890000  1.0 -0.0911623371
O  O1  1  0.68634000  0.69154000  0.73371000  1.0 -0.5770321207
O  O2  1  0.81366000  0.19154000  0.26629000  1.0 -0.5770321207
O  O3  1  0.31366000  0.30846000  0.26629000  1.0 -0.5770321207
O  O4  1  0.18634000  0.80846000  0.73371000  1.0 -0.5770321207
O  O5  1  0.95880000  0.70120000  0.63684000  1.0 -0.5378694551
O  O6  1  0.54120000  0.20120000  0.36316000  1.0 -0.5378694551
O  O7  1  0.04120000  0.29880000  0.36316000  1.0 -0.5378694551
O  O8  1  0.45880000  0.79880000  0.63684000  1.0 -0.5378694551
O  O9  1  0.11242000  0.78193000  0.86539000  1.0 -0.5592005687
O  O10  1  0.38758000  0.28193000  0.13461000  1.0 -0.5592005687
O  O11  1  0.88758000  0.21807000  0.13461000  1.0 -0.5592005687
O  O12  1  0.61242000  0.71807000  0.86539000  1.0 -0.5592005687
O  O13  1  0.16830000  0.36009000  0.15861000  1.0 -0.5770321207
O  O14  1  0.33170000  0.86009000  0.84139000  1.0 -0.5770321207
O  O15  1  0.83170000  0.63991000  0.84139000  1.0 -0.5770321207
O  O16  1  0.66830000  0.13991000  0.15861000  1.0 -0.5770321207
O  O17  1  0.46672000  0.35771000  0.25601000  1.0 -0.5592005687
O  O18  1  0.03328000  0.85771000  0.74399000  1.0 -0.5592005687
O  O19  1  0.53328000  0.64229000  0.74399000  1.0 -0.5592005687
O  O20  1  0.96672000  0.14229000  0.25601000  1.0 -0.5592005687
O  O21  1  0.07170000  0.34949000  0.23663000  1.0 -0.5592005687
O  O22  1  0.42830000  0.84949000  0.76337000  1.0 -0.5592005687
O  O23  1  0.92830000  0.65051000  0.76337000  1.0 -0.5592005687
O  O24  1  0.57170000  0.15051000  0.23663000  1.0 -0.5592005687
O  O25  1  0.35283000  0.37794000  0.15456000  1.0 -0.5742053108
O  O26  1  0.14717000  0.87794000  0.84544000  1.0 -0.5742053108
O  O27  1  0.64717000  0.62206000  0.84544000  1.0 -0.5742053108
O  O28  1  0.85283000  0.12206000  0.15456000  1.0 -0.5742053108
O  O29  1  0.05839000  0.72351000  0.79240000  1.0 -0.5592005687
O  O30  1  0.44161000  0.22351000  0.20760000  1.0 -0.5592005687
O  O31  1  0.94161000  0.27649000  0.20760000  1.0 -0.5592005687
O  O32  1  0.55839000  0.77649000  0.79240000  1.0 -0.5592005687
O  O33  1  0.80091000  0.71484000  0.69068000  1.0 -0.5378694551
O  O34  1  0.69909000  0.21484000  0.30932000  1.0 -0.5378694551
O  O35  1  0.19909000  0.28516000  0.30932000  1.0 -0.5378694551
O  O36  1  0.30091000  0.78516000  0.69068000  1.0 -0.5378694551
O  O37  1  0.29650000  0.76890000  0.90861000  1.0 -0.5592005687
O  O38  1  0.20350000  0.26890000  0.09139000  1.0 -0.5592005687
O  O39  1  0.70350000  0.23110000  0.09139000  1.0 -0.5592005687
O  O40  1  0.79650000  0.73110000  0.90861000  1.0 -0.5592005687
O  O41  1  0.41670000  0.76407000  0.85967000  1.0 -0.5544550138
O  O42  1  0.08330000  0.26407000  0.14033000  1.0 -0.5544550138
O  O43  1  0.58330000  0.23593000  0.14033000  1.0 -0.5544550138
O  O44  1  0.91670000  0.73593000  0.85967000  1.0 -0.5544550138
O  O45  1  0.05060000  0.75599000  0.62182000  1.0 -0.5378694551
O  O46  1  0.44940000  0.25599000  0.37818000  1.0 -0.5378694551
O  O47  1  0.94940000  0.24401000  0.37818000  1.0 -0.5378694551
O  O48  1  0.55060000  0.74401000  0.62182000  1.0 -0.5378694551
O  O49  1  0.92469000  0.77985000  0.71616000  1.0 -0.3410678895
O  O50  1  0.57531000  0.27985000  0.28384000  1.0 -0.3410678895
O  O51  1  0.07531000  0.22015000  0.28384000  1.0 -0.3410678895
O  O52  1  0.42469000  0.72015000  0.71616000  1.0 -0.3410678895
O  O53  1  0.76440000  0.95010000  0.46820000  1.0 -0.2323964358
O  O54  1  0.73560000  0.45010000  0.53180000  1.0 -0.2323964358
O  O55  1  0.23560000  0.04990000  0.53180000  1.0 -0.2323964358
O  O56  1  0.26440000  0.54990000  0.46820000  1.0 -0.2323964358
O  O57  1  0.83230000  0.83750000  0.79580000  1.0 -0.2075939195
O  O58  1  0.66770000  0.33750000  0.20420000  1.0 -0.2075939195
O  O59  1  0.16770000  0.16250000  0.20420000  1.0 -0.2075939195
O  O60  1  0.33230000  0.66250000  0.79580000  1.0 -0.2075939195
O  O61  1  0.79150000  0.03070000  0.39380000  1.0 -0.4180214273
O  O62  1  0.70850000  0.53070000  0.60620000  1.0 -0.4180214273
O  O63  1  0.20850000  0.96930000  0.60620000  1.0 -0.4180214273
O  O64  1  0.29150000  0.46930000  0.39380000  1.0 -0.4180214273
O  O65  1  0.85590000  0.82280000  0.38640000  1.0 -0.0090689322
O  O66  1  0.64410000  0.32280000  0.61360000  1.0 -0.0090689322
O  O67  1  0.14410000  0.17720000  0.61360000  1.0 -0.0090689322
O  O68  1  0.35590000  0.67720000  0.38640000  1.0 -0.0090689322
