# DDEC6 charges by PACMAN v1.1 (https://github.com/mtap-research/PACMAN-charge/)
data_KICFAH_ASR_pacman
_symmetry_space_group_name_H-M   'P 1'
_cell_length_a   15.83030000
_cell_length_b   30.12420000
_cell_length_c   16.28790000
_cell_angle_alpha   90.00000000
_cell_angle_beta   103.46600000
_cell_angle_gamma   90.00000000
_symmetry_Int_Tables_number   1
_chemical_formula_structural   Fe3H58C77(NO7)2
_chemical_formula_sum   'Fe12 H232 C308 N8 O56'
_cell_volume   7553.75802752
_cell_formula_units_Z   4
loop_
 _symmetry_equiv_pos_site_id
 _symmetry_equiv_pos_as_xyz
  1  'x, y, z'
loop_
 _atom_site_type_symbol
 _atom_site_label
 _atom_site_symmetry_multiplicity
 _atom_site_fract_x
 _atom_site_fract_y
 _atom_site_fract_z
 _atom_site_occupancy
 _atom_site_charge
Fe  Fe1  1  0.23374000  0.17694000  0.86551000  1.0 1.0697217987
Fe  Fe2  1  0.26626000  0.67694000  0.13449000  1.0 1.0697217987
Fe  Fe3  1  0.76626000  0.82306000  0.13449000  1.0 1.0697217987
Fe  Fe4  1  0.73374000  0.32306000  0.86551000  1.0 1.0697217987
Fe  Fe5  1  0.92785000  0.28343000  0.74261000  1.0 1.0914457844
Fe  Fe6  1  0.57215000  0.78343000  0.25739000  1.0 1.0914457844
Fe  Fe7  1  0.07215000  0.71657000  0.25739000  1.0 1.0914457844
Fe  Fe8  1  0.42785000  0.21657000  0.74261000  1.0 1.0914457844
Fe  Fe9  1  0.05622000  0.20771000  0.72456000  1.0 0.9133484916
Fe  Fe10  1  0.44378000  0.70771000  0.27544000  1.0 0.9133484916
Fe  Fe11  1  0.94378000  0.79229000  0.27544000  1.0 0.9133484916
Fe  Fe12  1  0.55622000  0.29229000  0.72456000  1.0 0.9133484916
H  H1  1  0.58213000  0.43617000  0.37417000  1.0 0.1203520574
H  H2  1  0.91787000  0.93617000  0.62583000  1.0 0.1203520574
H  H3  1  0.41787000  0.56383000  0.62583000  1.0 0.1203520574
H  H4  1  0.08213000  0.06383000  0.37417000  1.0 0.1203520574
H  H5  1  0.57691000  0.31145000  0.28069000  1.0 0.1203520574
H  H6  1  0.92309000  0.81145000  0.71931000  1.0 0.1203520574
H  H7  1  0.42309000  0.68855000  0.71931000  1.0 0.1203520574
H  H8  1  0.07691000  0.18855000  0.28069000  1.0 0.1203520574
H  H9  1  0.78218000  0.29271000  0.53280000  1.0 0.1293866631
H  H10  1  0.71782000  0.79271000  0.46720000  1.0 0.1293866631
H  H11  1  0.21782000  0.70729000  0.46720000  1.0 0.1293866631
H  H12  1  0.28218000  0.20729000  0.53280000  1.0 0.1293866631
H  H13  1  0.16277000  0.23946000  0.02499000  1.0 0.1203520574
H  H14  1  0.33723000  0.73946000  0.97501000  1.0 0.1203520574
H  H15  1  0.83723000  0.76054000  0.97501000  1.0 0.1203520574
H  H16  1  0.66277000  0.26054000  0.02499000  1.0 0.1203520574
H  H17  1  0.20438000  0.56358000  0.14825000  1.0 0.1203520574
H  H18  1  0.29562000  0.06358000  0.85175000  1.0 0.1203520574
H  H19  1  0.79562000  0.43642000  0.85175000  1.0 0.1203520574
H  H20  1  0.70438000  0.93642000  0.14825000  1.0 0.1203520574
H  H21  1  0.34832000  0.54287000  0.12624000  1.0 0.1203520574
H  H22  1  0.15168000  0.04287000  0.87376000  1.0 0.1203520574
H  H23  1  0.65168000  0.45713000  0.87376000  1.0 0.1203520574
H  H24  1  0.84832000  0.95713000  0.12624000  1.0 0.1203520574
H  H25  1  0.60023000  0.36107000  0.61939000  1.0 0.1203520574
H  H26  1  0.89977000  0.86107000  0.38061000  1.0 0.1203520574
H  H27  1  0.39977000  0.63893000  0.38061000  1.0 0.1203520574
H  H28  1  0.10023000  0.13893000  0.61939000  1.0 0.1203520574
H  H29  1  0.06526000  0.34432000  0.87705000  1.0 0.1293866631
H  H30  1  0.43474000  0.84432000  0.12295000  1.0 0.1293866631
H  H31  1  0.93474000  0.65568000  0.12295000  1.0 0.1293866631
H  H32  1  0.56526000  0.15568000  0.87705000  1.0 0.1293866631
H  H33  1  0.54208000  0.38700000  0.48385000  1.0 0.1293866631
H  H34  1  0.95792000  0.88700000  0.51615000  1.0 0.1293866631
H  H35  1  0.45792000  0.61300000  0.51615000  1.0 0.1293866631
H  H36  1  0.04208000  0.11300000  0.48385000  1.0 0.1293866631
H  H37  1  0.19814000  0.48693000  0.15981000  1.0 0.1203520574
H  H38  1  0.30186000  0.98693000  0.84019000  1.0 0.1203520574
H  H39  1  0.80186000  0.51307000  0.84019000  1.0 0.1203520574
H  H40  1  0.69814000  0.01307000  0.15981000  1.0 0.1203520574
H  H41  1  0.39464000  0.46926000  0.14282000  1.0 0.1203520574
H  H42  1  0.10536000  0.96926000  0.85718000  1.0 0.1203520574
H  H43  1  0.60536000  0.53074000  0.85718000  1.0 0.1203520574
H  H44  1  0.89464000  0.03074000  0.14282000  1.0 0.1203520574
H  H45  1  0.72219000  0.31814000  0.39659000  1.0 0.1203520574
H  H46  1  0.77781000  0.81814000  0.60341000  1.0 0.1203520574
H  H47  1  0.27781000  0.68186000  0.60341000  1.0 0.1203520574
H  H48  1  0.22219000  0.18186000  0.39659000  1.0 0.1203520574
H  H49  1  0.06233000  0.38556000  0.99697000  1.0 0.1203520574
H  H50  1  0.43767000  0.88556000  0.00303000  1.0 0.1203520574
H  H51  1  0.93767000  0.61444000  0.00303000  1.0 0.1203520574
H  H52  1  0.56233000  0.11444000  0.99697000  1.0 0.1203520574
H  H53  1  0.16107000  0.28115000  0.14368000  1.0 0.1203520574
H  H54  1  0.33893000  0.78115000  0.85632000  1.0 0.1203520574
H  H55  1  0.83893000  0.71885000  0.85632000  1.0 0.1203520574
H  H56  1  0.66107000  0.21885000  0.14368000  1.0 0.1203520574
H  H57  1  0.55190000  0.35757000  0.03537000  1.0 0.1293866631
H  H58  1  0.94810000  0.85757000  0.96463000  1.0 0.1293866631
H  H59  1  0.44810000  0.64243000  0.96463000  1.0 0.1293866631
H  H60  1  0.05190000  0.14243000  0.03537000  1.0 0.1293866631
H  H61  1  0.49251000  0.31170000  0.92118000  1.0 0.1203520574
H  H62  1  0.00749000  0.81170000  0.07882000  1.0 0.1203520574
H  H63  1  0.50749000  0.68830000  0.07882000  1.0 0.1203520574
H  H64  1  0.99251000  0.18830000  0.92118000  1.0 0.1203520574
H  H65  1  0.48638000  0.41389000  0.12515000  1.0 0.1203520574
H  H66  1  0.01362000  0.91389000  0.87485000  1.0 0.1203520574
H  H67  1  0.51362000  0.58611000  0.87485000  1.0 0.1203520574
H  H68  1  0.98638000  0.08611000  0.12515000  1.0 0.1203520574
H  H69  1  0.01695000  0.57586000  0.27687000  1.0 0.1393736309
H  H70  1  0.48305000  0.07586000  0.72313000  1.0 0.1393736309
H  H71  1  0.98305000  0.42414000  0.72313000  1.0 0.1393736309
H  H72  1  0.51695000  0.92414000  0.27687000  1.0 0.1393736309
H  H73  1  0.11811000  0.42424000  0.11000000  1.0 0.1114492011
H  H74  1  0.38189000  0.92424000  0.89000000  1.0 0.1203520574
H  H75  1  0.88189000  0.57576000  0.89000000  1.0 0.1114492011
H  H76  1  0.61811000  0.07576000  0.11000000  1.0 0.1114492011
H  H77  1  0.08077000  0.31175000  0.23152000  1.0 0.1203520574
H  H78  1  0.41923000  0.81175000  0.76848000  1.0 0.1203520574
H  H79  1  0.91923000  0.68825000  0.76848000  1.0 0.1203520574
H  H80  1  0.58077000  0.18825000  0.23152000  1.0 0.1203520574
H  H81  1  0.55894000  0.57994000  0.30706000  1.0 0.1393736309
H  H82  1  0.94106000  0.07994000  0.69294000  1.0 0.1393736309
H  H83  1  0.44106000  0.42006000  0.69294000  1.0 0.1393736309
H  H84  1  0.05894000  0.92006000  0.30706000  1.0 0.1393736309
H  H85  1  0.07063000  0.43064000  0.34345000  1.0 0.1203520574
H  H86  1  0.42937000  0.93064000  0.65655000  1.0 0.1203520574
H  H87  1  0.92937000  0.56936000  0.65655000  1.0 0.1203520574
H  H88  1  0.57063000  0.06936000  0.34345000  1.0 0.1203520574
H  H89  1  0.60530000  0.50598000  0.32300000  1.0 0.1293866631
H  H90  1  0.89470000  0.00598000  0.67700000  1.0 0.1293866631
H  H91  1  0.39470000  0.49402000  0.67700000  1.0 0.1293866631
H  H92  1  0.10530000  0.99402000  0.32300000  1.0 0.1293866631
H  H93  1  0.35814000  0.24540000  0.06676000  1.0 0.1203520574
H  H94  1  0.14186000  0.74540000  0.93324000  1.0 0.1203520574
H  H95  1  0.64186000  0.75460000  0.93324000  1.0 0.1203520574
H  H96  1  0.85814000  0.25460000  0.06676000  1.0 0.1203520574
H  H97  1  0.94814000  0.35563000  0.52152000  1.0 0.1293866631
H  H98  1  0.55186000  0.85563000  0.47848000  1.0 0.1293866631
H  H99  1  0.05186000  0.64437000  0.47848000  1.0 0.1293866631
H  H100  1  0.44814000  0.14437000  0.52152000  1.0 0.1293866631
H  H101  1  0.00651000  0.49926000  0.28439000  1.0 0.1293866631
H  H102  1  0.49349000  0.99926000  0.71561000  1.0 0.1293866631
H  H103  1  0.99349000  0.50074000  0.71561000  1.0 0.1293866631
H  H104  1  0.50651000  0.00074000  0.28439000  1.0 0.1293866631
H  H105  1  0.96964000  0.38962000  0.40099000  1.0 0.1203520574
H  H106  1  0.53036000  0.88962000  0.59901000  1.0 0.1203520574
H  H107  1  0.03036000  0.61038000  0.59901000  1.0 0.1203520574
H  H108  1  0.46964000  0.11038000  0.40099000  1.0 0.1203520574
H  H109  1  0.42921000  0.28708000  0.18334000  1.0 0.1203520574
H  H110  1  0.07079000  0.78708000  0.81666000  1.0 0.1203520574
H  H111  1  0.57079000  0.71292000  0.81666000  1.0 0.1203520574
H  H112  1  0.92921000  0.21292000  0.18334000  1.0 0.1203520574
H  H113  1  0.13664000  0.29180000  0.37258000  1.0 0.1203520574
H  H114  1  0.36336000  0.79180000  0.62742000  1.0 0.1203520574
H  H115  1  0.86336000  0.70820000  0.62742000  1.0 0.1203520574
H  H116  1  0.63664000  0.20820000  0.37258000  1.0 0.1203520574
H  H117  1  0.11337000  0.25705000  0.49266000  1.0 0.1203520574
H  H118  1  0.38663000  0.75705000  0.50734000  1.0 0.1203520574
H  H119  1  0.88663000  0.74295000  0.50734000  1.0 0.1203520574
H  H120  1  0.61337000  0.24295000  0.49266000  1.0 0.1203520574
H  H121  1  0.87538000  0.16104000  0.71111000  1.0 0.1293866631
H  H122  1  0.62462000  0.66104000  0.28889000  1.0 0.1293866631
H  H123  1  0.12462000  0.83896000  0.28889000  1.0 0.1293866631
H  H124  1  0.37538000  0.33896000  0.71111000  1.0 0.1293866631
H  H125  1  0.80513000  0.19973000  0.68410000  1.0 0.070895206
H  H126  1  0.69487000  0.69973000  0.31590000  1.0 0.070895206
H  H127  1  0.19487000  0.80027000  0.31590000  1.0 0.070895206
H  H128  1  0.30513000  0.30027000  0.68410000  1.0 0.070895206
H  H129  1  0.85383000  0.19358000  0.78117000  1.0 0.1293866631
H  H130  1  0.64617000  0.69358000  0.21883000  1.0 0.1293866631
H  H131  1  0.14617000  0.80642000  0.21883000  1.0 0.1293866631
H  H132  1  0.35383000  0.30642000  0.78117000  1.0 0.1293866631
H  H133  1  0.68358000  0.96071000  0.71836000  1.0 0.1293866631
H  H134  1  0.81642000  0.46071000  0.28164000  1.0 0.1293866631
H  H135  1  0.31642000  0.03929000  0.28164000  1.0 0.1293866631
H  H136  1  0.18358000  0.53929000  0.71836000  1.0 0.1293866631
H  H137  1  0.70321000  0.90924000  0.61682000  1.0 0.1114492011
H  H138  1  0.79679000  0.40924000  0.38318000  1.0 0.1114492011
H  H139  1  0.29679000  0.09076000  0.38318000  1.0 0.1114492011
H  H140  1  0.20321000  0.59076000  0.61682000  1.0 0.1114492011
H  H141  1  0.71769000  0.93373000  0.48445000  1.0 0.1203520574
H  H142  1  0.78231000  0.43373000  0.51555000  1.0 0.1203520574
H  H143  1  0.28231000  0.06627000  0.51555000  1.0 0.1203520574
H  H144  1  0.21769000  0.56627000  0.48445000  1.0 0.1203520574
H  H145  1  0.71255000  0.00969000  0.45362000  1.0 0.1114492011
H  H146  1  0.78745000  0.50969000  0.54638000  1.0 0.1114492011
H  H147  1  0.28745000  0.99031000  0.54638000  1.0 0.1114492011
H  H148  1  0.21255000  0.49031000  0.45362000  1.0 0.1114492011
H  H149  1  0.58902000  0.13802000  0.71374000  1.0 0.1522464485
H  H150  1  0.91098000  0.63802000  0.28626000  1.0 0.1522464485
H  H151  1  0.41098000  0.86198000  0.28626000  1.0 0.1522464485
H  H152  1  0.08902000  0.36198000  0.71374000  1.0 0.1522464485
H  H153  1  0.67838000  0.16162000  0.70917000  1.0 0.1114492011
H  H154  1  0.82162000  0.66162000  0.29083000  1.0 0.1114492011
H  H155  1  0.32162000  0.83838000  0.29083000  1.0 0.1114492011
H  H156  1  0.17838000  0.33838000  0.70917000  1.0 0.1114492011
H  H157  1  0.67592000  0.12726000  0.78351000  1.0 0.1114492011
H  H158  1  0.82408000  0.62726000  0.21649000  1.0 0.1114492011
H  H159  1  0.32408000  0.87274000  0.21649000  1.0 0.1114492011
H  H160  1  0.17592000  0.37274000  0.78351000  1.0 0.1114492011
H  H161  1  0.67274000  0.13107000  0.55690000  1.0 0.1393736309
H  H162  1  0.82726000  0.63107000  0.44310000  1.0 0.1393736309
H  H163  1  0.32726000  0.86893000  0.44310000  1.0 0.1393736309
H  H164  1  0.17274000  0.36893000  0.55690000  1.0 0.1393736309
H  H165  1  0.70575000  0.07421000  0.48434000  1.0 0.1293866631
H  H166  1  0.79425000  0.57421000  0.51566000  1.0 0.1293866631
H  H167  1  0.29425000  0.92579000  0.51566000  1.0 0.1293866631
H  H168  1  0.20575000  0.42579000  0.48434000  1.0 0.1293866631
H  H169  1  0.30544000  0.36879000  0.22909000  1.0 0.1114492011
H  H170  1  0.19456000  0.86879000  0.77091000  1.0 0.1114492011
H  H171  1  0.69456000  0.63121000  0.77091000  1.0 0.1114492011
H  H172  1  0.80544000  0.13121000  0.22909000  1.0 0.1114492011
H  H173  1  0.31914000  0.44541000  0.25202000  1.0 0.1203520574
H  H174  1  0.18086000  0.94541000  0.74798000  1.0 0.1203520574
H  H175  1  0.68086000  0.55459000  0.74798000  1.0 0.1203520574
H  H176  1  0.81914000  0.05459000  0.25202000  1.0 0.1203520574
H  H177  1  0.41929000  0.49330000  0.45183000  1.0 0.1636553028
H  H178  1  0.08071000  0.99330000  0.54817000  1.0 0.1636553028
H  H179  1  0.58071000  0.50670000  0.54817000  1.0 0.1636553028
H  H180  1  0.91929000  0.00670000  0.45183000  1.0 0.1636553028
H  H181  1  0.32021000  0.50583000  0.41080000  1.0 0.1522464485
H  H182  1  0.17979000  0.00583000  0.58920000  1.0 0.1522464485
H  H183  1  0.67979000  0.49417000  0.58920000  1.0 0.1522464485
H  H184  1  0.82021000  0.99417000  0.41080000  1.0 0.1522464485
H  H185  1  0.38978000  0.50520000  0.35355000  1.0 0.1522464485
H  H186  1  0.11022000  0.00520000  0.64645000  1.0 0.1522464485
H  H187  1  0.61022000  0.49480000  0.64645000  1.0 0.1522464485
H  H188  1  0.88978000  0.99480000  0.35355000  1.0 0.1522464485
H  H189  1  0.35895000  0.28030000  0.54667000  1.0 0.0897631732
H  H190  1  0.14105000  0.78030000  0.45333000  1.0 0.0897631732
H  H191  1  0.64105000  0.71970000  0.45333000  1.0 0.0897631732
H  H192  1  0.85895000  0.21970000  0.54667000  1.0 0.0897631732
H  H193  1  0.34481000  0.28976000  0.28768000  1.0 0.1203520574
H  H194  1  0.15519000  0.78976000  0.71232000  1.0 0.1203520574
H  H195  1  0.65519000  0.71024000  0.71232000  1.0 0.1203520574
H  H196  1  0.84481000  0.21024000  0.28768000  1.0 0.1203520574
H  H197  1  0.34327000  0.24851000  0.41018000  1.0 0.1114492011
H  H198  1  0.15673000  0.74851000  0.58982000  1.0 0.1114492011
H  H199  1  0.65673000  0.75149000  0.58982000  1.0 0.1114492011
H  H200  1  0.84327000  0.25149000  0.41018000  1.0 0.1114492011
H  H201  1  0.39316000  0.35359000  0.55567000  1.0 0.1114492011
H  H202  1  0.10684000  0.85359000  0.44433000  1.0 0.1114492011
H  H203  1  0.60684000  0.64641000  0.44433000  1.0 0.1114492011
H  H204  1  0.89316000  0.14641000  0.55567000  1.0 0.1114492011
H  H205  1  0.87602000  0.22393000  0.58633000  1.0 0.0897631732
H  H206  1  0.62398000  0.72393000  0.41367000  1.0 0.0897631732
H  H207  1  0.12398000  0.77607000  0.41367000  1.0 0.0897631732
H  H208  1  0.37602000  0.27607000  0.58633000  1.0 0.0897631732
H  H209  1  0.81613000  0.19777000  0.63687000  1.0 0.0784751137
H  H210  1  0.68387000  0.69777000  0.36313000  1.0 0.0784751137
H  H211  1  0.18387000  0.80223000  0.36313000  1.0 0.0784751137
H  H212  1  0.31613000  0.30223000  0.63687000  1.0 0.0784751137
H  H213  1  0.90156000  0.17469000  0.61998000  1.0 0.0597405819
H  H214  1  0.59844000  0.67469000  0.38002000  1.0 0.0597405819
H  H215  1  0.09844000  0.82531000  0.38002000  1.0 0.0597405819
H  H216  1  0.40156000  0.32531000  0.61998000  1.0 0.0597405819
H  H217  1  0.70811000  0.15364000  0.75520000  1.0 0.0784751137
H  H218  1  0.79189000  0.65364000  0.24480000  1.0 0.0784751137
H  H219  1  0.29189000  0.84636000  0.24480000  1.0 0.0784751137
H  H220  1  0.20811000  0.34636000  0.75520000  1.0 0.0784751137
H  H221  1  0.73584000  0.19106000  0.82611000  1.0 0.1114492011
H  H222  1  0.76416000  0.69106000  0.17389000  1.0 0.1114492011
H  H223  1  0.26416000  0.80894000  0.17389000  1.0 0.1114492011
H  H224  1  0.23584000  0.30894000  0.82611000  1.0 0.1114492011
H  H225  1  0.73840000  0.20148000  0.73037000  1.0 0.0897631732
H  H226  1  0.76160000  0.70148000  0.26963000  1.0 0.0897631732
H  H227  1  0.26160000  0.79852000  0.26963000  1.0 0.0897631732
H  H228  1  0.23840000  0.29852000  0.73037000  1.0 0.0897631732
H  H229  1  0.86397000  0.18231000  0.82128000  1.0 0.1873127197
H  H230  1  0.63603000  0.68231000  0.17872000  1.0 0.1873127197
H  H231  1  0.13603000  0.81769000  0.17872000  1.0 0.1873127197
H  H232  1  0.36397000  0.31769000  0.82128000  1.0 0.1873127197
C  C1  1  0.69590000  0.32310000  0.58900000  1.0 -0.0379359607
C  C2  1  0.80410000  0.82310000  0.41100000  1.0 -0.0379359607
C  C3  1  0.30410000  0.67690000  0.41100000  1.0 -0.0379359607
C  C4  1  0.19590000  0.17690000  0.58900000  1.0 -0.0379359607
C  C5  1  0.73210000  0.30535000  0.67490000  1.0 0.5909877227
C  C6  1  0.76790000  0.80535000  0.32510000  1.0 0.5909877227
C  C7  1  0.26790000  0.69465000  0.32510000  1.0 0.5909877227
C  C8  1  0.23210000  0.19465000  0.67490000  1.0 0.5909877227
C  C9  1  0.11570000  0.62670000  0.20080000  1.0 0.5998338268
C  C10  1  0.38430000  0.12670000  0.79920000  1.0 0.5998338268
C  C11  1  0.88430000  0.37330000  0.79920000  1.0 0.5998338268
C  C12  1  0.61570000  0.87330000  0.20080000  1.0 0.5998338268
C  C13  1  0.11120000  0.28736000  0.93890000  1.0 -0.0281543729
C  C14  1  0.38880000  0.78736000  0.06110000  1.0 -0.0281543729
C  C15  1  0.88880000  0.71264000  0.06110000  1.0 -0.0281543729
C  C16  1  0.61120000  0.21264000  0.93890000  1.0 -0.0281543729
C  C17  1  0.58670000  0.37157000  0.34050000  1.0 0.0897631732
C  C18  1  0.91330000  0.87157000  0.65950000  1.0 0.0897631732
C  C19  1  0.41330000  0.62843000  0.65950000  1.0 0.0897631732
C  C20  1  0.08670000  0.12843000  0.34050000  1.0 0.0897631732
C  C21  1  0.44950000  0.56880000  0.21600000  1.0 -0.0379359607
C  C22  1  0.05050000  0.06880000  0.78400000  1.0 -0.0379359607
C  C23  1  0.55050000  0.43120000  0.78400000  1.0 -0.0379359607
C  C24  1  0.94950000  0.93120000  0.21600000  1.0 -0.0379359607
C  C25  1  0.41790000  0.61589000  0.20630000  1.0 0.5909877227
C  C26  1  0.08210000  0.11589000  0.79370000  1.0 0.5909877227
C  C27  1  0.58210000  0.38411000  0.79370000  1.0 0.5909877227
C  C28  1  0.91790000  0.88411000  0.20630000  1.0 0.5909877227
C  C29  1  0.11010000  0.57713000  0.21010000  1.0 -0.0281543729
C  C30  1  0.38990000  0.07713000  0.78990000  1.0 -0.0281543729
C  C31  1  0.88990000  0.42287000  0.78990000  1.0 -0.0281543729
C  C32  1  0.61010000  0.92287000  0.21010000  1.0 -0.0281543729
C  C33  1  0.56800000  0.41636000  0.32760000  1.0 -0.1801572746
C  C34  1  0.93200000  0.91636000  0.67240000  1.0 -0.1801572746
C  C35  1  0.43200000  0.58364000  0.67240000  1.0 -0.1801572746
C  C36  1  0.06800000  0.08364000  0.32760000  1.0 -0.1801572746
C  C37  1  0.56480000  0.34222000  0.27240000  1.0 -0.1922419506
C  C38  1  0.93520000  0.84222000  0.72760000  1.0 -0.1922419506
C  C39  1  0.43520000  0.65778000  0.72760000  1.0 -0.1922419506
C  C40  1  0.06480000  0.15778000  0.27240000  1.0 -0.1922419506
C  C41  1  0.41720000  0.27423000  0.98230000  1.0 -0.0379359607
C  C42  1  0.08280000  0.77423000  0.01770000  1.0 -0.0379359607
C  C43  1  0.58280000  0.72577000  0.01770000  1.0 -0.0379359607
C  C44  1  0.91720000  0.22577000  0.98230000  1.0 -0.0379359607
C  C45  1  0.62570000  0.35495000  0.42620000  1.0 0.0784751137
C  C46  1  0.87430000  0.85495000  0.57380000  1.0 0.0784751137
C  C47  1  0.37430000  0.64505000  0.57380000  1.0 0.0784751137
C  C48  1  0.12570000  0.14505000  0.42620000  1.0 0.0784751137
C  C49  1  0.09770000  0.25990000  0.86140000  1.0 0.5794606315
C  C50  1  0.40230000  0.75990000  0.13860000  1.0 0.5794606315
C  C51  1  0.90230000  0.74010000  0.13860000  1.0 0.5794606315
C  C52  1  0.59770000  0.24010000  0.86140000  1.0 0.5794606315
C  C53  1  0.73250000  0.31142000  0.52280000  1.0 -0.0997479848
C  C54  1  0.76750000  0.81142000  0.47720000  1.0 -0.0997479848
C  C55  1  0.26750000  0.68858000  0.47720000  1.0 -0.0997479848
C  C56  1  0.23250000  0.18858000  0.52280000  1.0 -0.0997479848
C  C57  1  0.37570000  0.24561000  0.90880000  1.0 0.5794606315
C  C58  1  0.12430000  0.74561000  0.09120000  1.0 0.5794606315
C  C59  1  0.62430000  0.75439000  0.09120000  1.0 0.5794606315
C  C60  1  0.87570000  0.25439000  0.90880000  1.0 0.5794606315
C  C61  1  0.14130000  0.26903000  0.01910000  1.0 -0.0909059417
C  C62  1  0.35870000  0.76903000  0.98090000  1.0 -0.0909059417
C  C63  1  0.85870000  0.73097000  0.98090000  1.0 -0.0909059417
C  C64  1  0.64130000  0.23097000  0.01910000  1.0 -0.0909059417
C  C65  1  0.16430000  0.55052000  0.17630000  1.0 -0.0997479848
C  C66  1  0.33570000  0.05052000  0.82370000  1.0 -0.0997479848
C  C67  1  0.83570000  0.44948000  0.82370000  1.0 -0.0997479848
C  C68  1  0.66430000  0.94948000  0.17630000  1.0 -0.0997479848
C  C69  1  0.40020000  0.53547000  0.16640000  1.0 -0.1100464636
C  C70  1  0.09980000  0.03547000  0.83360000  1.0 -0.0997479848
C  C71  1  0.59980000  0.46453000  0.83360000  1.0 -0.1100464636
C  C72  1  0.90020000  0.96453000  0.16640000  1.0 -0.1100464636
C  C73  1  0.62480000  0.35207000  0.57410000  1.0 -0.0909059417
C  C74  1  0.87520000  0.85207000  0.42590000  1.0 -0.0909059417
C  C75  1  0.37520000  0.64793000  0.42590000  1.0 -0.0909059417
C  C76  1  0.12480000  0.14793000  0.57410000  1.0 -0.0909059417
C  C77  1  0.52510000  0.35802000  0.19220000  1.0 0.0784751137
C  C78  1  0.97490000  0.85802000  0.80780000  1.0 0.0784751137
C  C79  1  0.47490000  0.64198000  0.80780000  1.0 0.0784751137
C  C80  1  0.02510000  0.14198000  0.19220000  1.0 0.0784751137
C  C81  1  0.08330000  0.33115000  0.93130000  1.0 -0.0835845514
C  C82  1  0.41670000  0.83115000  0.06870000  1.0 -0.0835845514
C  C83  1  0.91670000  0.66885000  0.06870000  1.0 -0.0835845514
C  C84  1  0.58330000  0.16885000  0.93130000  1.0 -0.0835845514
C  C85  1  0.01520000  0.28077000  0.59700000  1.0 0.5544353829
C  C86  1  0.48480000  0.78077000  0.40300000  1.0 0.5544353829
C  C87  1  0.98480000  0.71923000  0.40300000  1.0 0.5544353829
C  C88  1  0.51520000  0.21923000  0.59700000  1.0 0.5544353829
C  C89  1  0.49320000  0.32735000  0.11990000  1.0 0.070895206
C  C90  1  0.00680000  0.82735000  0.88010000  1.0 0.070895206
C  C91  1  0.50680000  0.67265000  0.88010000  1.0 0.070895206
C  C92  1  0.99320000  0.17265000  0.11990000  1.0 0.070895206
C  C93  1  0.52900000  0.43304000  0.24780000  1.0 0.0897631732
C  C94  1  0.97100000  0.93304000  0.75220000  1.0 0.0897631732
C  C95  1  0.47100000  0.56696000  0.75220000  1.0 0.0897631732
C  C96  1  0.02900000  0.06696000  0.24780000  1.0 0.0897631732
C  C97  1  0.59050000  0.36748000  0.49360000  1.0 -0.1396480842
C  C98  1  0.90950000  0.86748000  0.50640000  1.0 -0.1396480842
C  C99  1  0.40950000  0.63252000  0.50640000  1.0 -0.1396480842
C  C100  1  0.09050000  0.13252000  0.49360000  1.0 -0.1396480842
C  C101  1  0.16030000  0.50487000  0.18320000  1.0 -0.1518125295
C  C102  1  0.33970000  0.00487000  0.81680000  1.0 -0.1518125295
C  C103  1  0.83970000  0.49513000  0.81680000  1.0 -0.1518125295
C  C104  1  0.66030000  0.99513000  0.18320000  1.0 -0.1518125295
C  C105  1  0.50300000  0.48011000  0.23500000  1.0 0.070895206
C  C106  1  0.99700000  0.98011000  0.76500000  1.0 0.070895206
C  C107  1  0.49700000  0.51989000  0.76500000  1.0 0.070895206
C  C108  1  0.00300000  0.01989000  0.23500000  1.0 0.070895206
C  C109  1  0.10780000  0.33754000  0.08320000  1.0 0.070895206
C  C110  1  0.39220000  0.83754000  0.91680000  1.0 0.070895206
C  C111  1  0.89220000  0.66246000  0.91680000  1.0 0.070895206
C  C112  1  0.60780000  0.16246000  0.08320000  1.0 0.070895206
C  C113  1  0.42790000  0.49171000  0.17660000  1.0 -0.1586512998
C  C114  1  0.07210000  0.99171000  0.82340000  1.0 -0.1586512998
C  C115  1  0.57210000  0.50829000  0.82340000  1.0 -0.1586512998
C  C116  1  0.92790000  0.00829000  0.17660000  1.0 -0.1586512998
C  C117  1  0.10270000  0.48481000  0.22310000  1.0 0.0784751137
C  C118  1  0.39730000  0.98481000  0.77690000  1.0 0.0784751137
C  C119  1  0.89730000  0.51519000  0.77690000  1.0 0.0784751137
C  C120  1  0.60270000  0.01519000  0.22310000  1.0 0.0784751137
C  C121  1  0.10020000  0.36368000  0.15810000  1.0 0.0897631732
C  C122  1  0.39980000  0.86368000  0.84190000  1.0 0.0897631732
C  C123  1  0.89980000  0.63632000  0.84190000  1.0 0.0897631732
C  C124  1  0.60020000  0.13632000  0.15810000  1.0 0.0897631732
C  C125  1  0.69720000  0.32686000  0.44180000  1.0 -0.1586512998
C  C126  1  0.80280000  0.82686000  0.55820000  1.0 -0.1586512998
C  C127  1  0.30280000  0.67314000  0.55820000  1.0 -0.1586512998
C  C128  1  0.19720000  0.17314000  0.44180000  1.0 -0.1586512998
C  C129  1  0.08170000  0.35563000  0.00300000  1.0 -0.1396480842
C  C130  1  0.41830000  0.85563000  0.99700000  1.0 -0.1396480842
C  C131  1  0.91830000  0.64437000  0.99700000  1.0 -0.1396480842
C  C132  1  0.58170000  0.14437000  0.00300000  1.0 -0.1396480842
C  C133  1  0.13990000  0.29382000  0.08940000  1.0 -0.1586512998
C  C134  1  0.36010000  0.79382000  0.91060000  1.0 -0.1586512998
C  C135  1  0.86010000  0.70618000  0.91060000  1.0 -0.1586512998
C  C136  1  0.63990000  0.20618000  0.08940000  1.0 -0.1586512998
C  C137  1  0.51330000  0.33436000  0.04170000  1.0 -0.1396480842
C  C138  1  0.98670000  0.83436000  0.95830000  1.0 -0.1396480842
C  C139  1  0.48670000  0.66564000  0.95830000  1.0 -0.1396480842
C  C140  1  0.01330000  0.16564000  0.04170000  1.0 -0.1396480842
C  C141  1  0.02880000  0.30278000  0.51990000  1.0 -0.0379359607
C  C142  1  0.47120000  0.80278000  0.48010000  1.0 -0.0379359607
C  C143  1  0.97120000  0.69722000  0.48010000  1.0 -0.0379359607
C  C144  1  0.52880000  0.19722000  0.51990000  1.0 -0.0379359607
C  C145  1  0.47710000  0.30762000  0.97370000  1.0 -0.1100464636
C  C146  1  0.02290000  0.80762000  0.02630000  1.0 -0.1100464636
C  C147  1  0.52290000  0.69238000  0.02630000  1.0 -0.1100464636
C  C148  1  0.97710000  0.19238000  0.97370000  1.0 -0.1100464636
C  C149  1  0.51010000  0.40303000  0.18050000  1.0 -0.1922419506
C  C150  1  0.98990000  0.90303000  0.81950000  1.0 -0.1922419506
C  C151  1  0.48990000  0.59697000  0.81950000  1.0 -0.1922419506
C  C152  1  0.01010000  0.09697000  0.18050000  1.0 -0.1922419506
C  C153  1  0.07220000  0.36739000  0.29830000  1.0 0.0897631732
C  C154  1  0.42780000  0.86739000  0.70170000  1.0 0.0897631732
C  C155  1  0.92780000  0.63261000  0.70170000  1.0 0.0897631732
C  C156  1  0.57220000  0.13261000  0.29830000  1.0 0.0897631732
C  C157  1  0.05300000  0.55765000  0.25180000  1.0 -0.0909059417
C  C158  1  0.44700000  0.05765000  0.74820000  1.0 -0.0909059417
C  C159  1  0.94700000  0.44235000  0.74820000  1.0 -0.0909059417
C  C160  1  0.55300000  0.94235000  0.25180000  1.0 -0.0909059417
C  C161  1  0.09540000  0.43532000  0.22650000  1.0 0.0897631732
C  C162  1  0.40460000  0.93532000  0.77350000  1.0 0.0897631732
C  C163  1  0.90460000  0.56468000  0.77350000  1.0 0.0897631732
C  C164  1  0.59540000  0.06468000  0.22650000  1.0 0.0897631732
C  C165  1  0.10630000  0.40976000  0.15790000  1.0 -0.1981610289
C  C166  1  0.39370000  0.90976000  0.84210000  1.0 -0.1981610289
C  C167  1  0.89370000  0.59024000  0.84210000  1.0 -0.1981610289
C  C168  1  0.60630000  0.09024000  0.15790000  1.0 -0.1981610289
C  C169  1  0.08390000  0.34322000  0.22980000  1.0 -0.1922419506
C  C170  1  0.41610000  0.84322000  0.77020000  1.0 -0.1922419506
C  C171  1  0.91610000  0.65678000  0.77020000  1.0 -0.1922419506
C  C172  1  0.58390000  0.15678000  0.22980000  1.0 -0.1922419506
C  C173  1  0.52530000  0.55745000  0.27370000  1.0 -0.0909059417
C  C174  1  0.97470000  0.05745000  0.72630000  1.0 -0.0909059417
C  C175  1  0.47470000  0.44255000  0.72630000  1.0 -0.0909059417
C  C176  1  0.02530000  0.94255000  0.27370000  1.0 -0.0909059417
C  C177  1  0.05650000  0.34477000  0.37420000  1.0 0.0784751137
C  C178  1  0.44350000  0.84477000  0.62580000  1.0 0.0784751137
C  C179  1  0.94350000  0.65523000  0.62580000  1.0 0.0784751137
C  C180  1  0.55650000  0.15523000  0.37420000  1.0 0.0784751137
C  C181  1  0.07830000  0.41374000  0.29650000  1.0 -0.1922419506
C  C182  1  0.42170000  0.91374000  0.70350000  1.0 -0.1922419506
C  C183  1  0.92170000  0.58626000  0.70350000  1.0 -0.1922419506
C  C184  1  0.57830000  0.08626000  0.29650000  1.0 -0.1922419506
C  C185  1  0.55290000  0.51339000  0.28360000  1.0 -0.1286475851
C  C186  1  0.94710000  0.01339000  0.71640000  1.0 -0.1286475851
C  C187  1  0.44710000  0.48661000  0.71640000  1.0 -0.1286475851
C  C188  1  0.05290000  0.98661000  0.28360000  1.0 -0.1286475851
C  C189  1  0.39870000  0.26760000  0.06020000  1.0 -0.0909059417
C  C190  1  0.10130000  0.76760000  0.93980000  1.0 -0.0909059417
C  C191  1  0.60130000  0.73240000  0.93980000  1.0 -0.0909059417
C  C192  1  0.89870000  0.23240000  0.06020000  1.0 -0.0909059417
C  C193  1  0.98640000  0.34257000  0.49130000  1.0 -0.0909059417
C  C194  1  0.51360000  0.84257000  0.50870000  1.0 -0.0909059417
C  C195  1  0.01360000  0.65743000  0.50870000  1.0 -0.0909059417
C  C196  1  0.48640000  0.15743000  0.49130000  1.0 -0.0909059417
C  C197  1  0.04760000  0.51219000  0.25730000  1.0 -0.1396480842
C  C198  1  0.45240000  0.01219000  0.74270000  1.0 -0.1396480842
C  C199  1  0.95240000  0.48781000  0.74270000  1.0 -0.1396480842
C  C200  1  0.54760000  0.98781000  0.25730000  1.0 -0.1396480842
C  C201  1  0.99960000  0.36283000  0.41990000  1.0 -0.1518125295
C  C202  1  0.50040000  0.86283000  0.58010000  1.0 -0.1518125295
C  C203  1  0.00040000  0.63717000  0.58010000  1.0 -0.1518125295
C  C204  1  0.49960000  0.13717000  0.41990000  1.0 -0.1518125295
C  C205  1  0.43920000  0.29329000  0.12920000  1.0 -0.1518125295
C  C206  1  0.06080000  0.79329000  0.87080000  1.0 -0.1518125295
C  C207  1  0.56080000  0.70671000  0.87080000  1.0 -0.1518125295
C  C208  1  0.93920000  0.20671000  0.12920000  1.0 -0.1518125295
C  C209  1  0.09830000  0.30486000  0.40270000  1.0 -0.1518125295
C  C210  1  0.40170000  0.80486000  0.59730000  1.0 -0.1518125295
C  C211  1  0.90170000  0.69514000  0.59730000  1.0 -0.1518125295
C  C212  1  0.59830000  0.19514000  0.40270000  1.0 -0.1518125295
C  C213  1  0.08460000  0.28419000  0.47430000  1.0 -0.0909059417
C  C214  1  0.41540000  0.78419000  0.52570000  1.0 -0.0909059417
C  C215  1  0.91540000  0.71581000  0.52570000  1.0 -0.0909059417
C  C216  1  0.58460000  0.21581000  0.47430000  1.0 -0.0909059417
C  C217  1  0.86010000  0.19150000  0.72280000  1.0 -0.0181467111
C  C218  1  0.63990000  0.69150000  0.27720000  1.0 -0.0181467111
C  C219  1  0.13990000  0.80850000  0.27720000  1.0 -0.0181467111
C  C220  1  0.36010000  0.30850000  0.72280000  1.0 -0.0181467111
C  C221  1  0.69500000  0.03030000  0.56770000  1.0 0.0192702053
C  C222  1  0.80500000  0.53030000  0.43230000  1.0 0.0192702053
C  C223  1  0.30500000  0.96970000  0.43230000  1.0 0.0192702053
C  C224  1  0.19500000  0.46970000  0.56770000  1.0 0.0192702053
C  C225  1  0.68640000  0.01580000  0.64630000  1.0 0.1873127197
C  C226  1  0.81360000  0.51580000  0.35370000  1.0 0.1873127197
C  C227  1  0.31360000  0.98420000  0.35370000  1.0 0.1873127197
C  C228  1  0.18640000  0.48420000  0.64630000  1.0 0.1873127197
C  C229  1  0.68950000  0.97070000  0.66460000  1.0 -0.1801572746
C  C230  1  0.81050000  0.47070000  0.33540000  1.0 -0.1801572746
C  C231  1  0.31050000  0.02930000  0.33540000  1.0 -0.1801572746
C  C232  1  0.18950000  0.52930000  0.66460000  1.0 -0.1801572746
C  C233  1  0.70110000  0.94010000  0.60430000  1.0 -0.0909059417
C  C234  1  0.79890000  0.44010000  0.39570000  1.0 -0.0909059417
C  C235  1  0.29890000  0.05990000  0.39570000  1.0 -0.0909059417
C  C236  1  0.20110000  0.55990000  0.60430000  1.0 -0.0909059417
C  C237  1  0.70970000  0.95460000  0.52570000  1.0 -0.1100464636
C  C238  1  0.79030000  0.45460000  0.47430000  1.0 -0.1100464636
C  C239  1  0.29030000  0.04540000  0.47430000  1.0 -0.1100464636
C  C240  1  0.20970000  0.54540000  0.52570000  1.0 -0.1100464636
C  C241  1  0.70670000  0.99970000  0.50740000  1.0 -0.1518125295
C  C242  1  0.79330000  0.49970000  0.49260000  1.0 -0.1518125295
C  C243  1  0.29330000  0.00030000  0.49260000  1.0 -0.1518125295
C  C244  1  0.20670000  0.50030000  0.50740000  1.0 -0.1518125295
C  C245  1  0.65210000  0.13420000  0.72380000  1.0 -0.3938619389
C  C246  1  0.84790000  0.63420000  0.27620000  1.0 -0.3938619389
C  C247  1  0.34790000  0.86580000  0.27620000  1.0 -0.3938619389
C  C248  1  0.15210000  0.36580000  0.72380000  1.0 -0.3938619389
C  C249  1  0.67950000  0.10220000  0.58120000  1.0 -0.2192108135
C  C250  1  0.82050000  0.60220000  0.41880000  1.0 -0.2192108135
C  C251  1  0.32050000  0.89780000  0.41880000  1.0 -0.2192108135
C  C252  1  0.17950000  0.39780000  0.58120000  1.0 -0.2192108135
C  C253  1  0.67250000  0.09550000  0.66840000  1.0 0.295230876
C  C254  1  0.82750000  0.59550000  0.33160000  1.0 0.295230876
C  C255  1  0.32750000  0.90450000  0.33160000  1.0 0.295230876
C  C256  1  0.17250000  0.40450000  0.66840000  1.0 0.2945819007
C  C257  1  0.69460000  0.06960000  0.53850000  1.0 -0.0997479848
C  C258  1  0.80540000  0.56960000  0.46150000  1.0 -0.0997479848
C  C259  1  0.30540000  0.93040000  0.46150000  1.0 -0.0997479848
C  C260  1  0.19460000  0.43040000  0.53850000  1.0 -0.0997479848
C  C261  1  0.33550000  0.35110000  0.35330000  1.0 0.038954872
C  C262  1  0.16450000  0.85110000  0.64670000  1.0 0.038954872
C  C263  1  0.66450000  0.64890000  0.64670000  1.0 0.038954872
C  C264  1  0.83550000  0.14890000  0.35330000  1.0 0.038954872
C  C265  1  0.32090000  0.38010000  0.28500000  1.0 -0.1100464636
C  C266  1  0.17910000  0.88010000  0.71500000  1.0 -0.1100464636
C  C267  1  0.67910000  0.61990000  0.71500000  1.0 -0.1100464636
C  C268  1  0.82090000  0.11990000  0.28500000  1.0 -0.1100464636
C  C269  1  0.32910000  0.42560000  0.29870000  1.0 -0.2306882671
C  C270  1  0.17090000  0.92560000  0.70130000  1.0 -0.2306882671
C  C271  1  0.67090000  0.57440000  0.70130000  1.0 -0.2306882671
C  C272  1  0.82910000  0.07440000  0.29870000  1.0 -0.2306882671
C  C273  1  0.35170000  0.44210000  0.38050000  1.0 0.3118022488
C  C274  1  0.14830000  0.94210000  0.61950000  1.0 0.3118022488
C  C275  1  0.64830000  0.55790000  0.61950000  1.0 0.3118022488
C  C276  1  0.85170000  0.05790000  0.38050000  1.0 0.3118022488
C  C277  1  0.35810000  0.36760000  0.43520000  1.0 0.1636553028
C  C278  1  0.14190000  0.86760000  0.56480000  1.0 0.1636553028
C  C279  1  0.64190000  0.63240000  0.56480000  1.0 0.1636553028
C  C280  1  0.85810000  0.13240000  0.43520000  1.0 0.1636553028
C  C281  1  0.37210000  0.49100000  0.40100000  1.0 -0.5136721923
C  C282  1  0.12790000  0.99100000  0.59900000  1.0 -0.5136721923
C  C283  1  0.62790000  0.50900000  0.59900000  1.0 -0.5136721923
C  C284  1  0.87210000  0.00900000  0.40100000  1.0 -0.5136721923
C  C285  1  0.36000000  0.29780000  0.49850000  1.0 -0.1286475851
C  C286  1  0.14000000  0.79780000  0.50150000  1.0 -0.1286475851
C  C287  1  0.64000000  0.70220000  0.50150000  1.0 -0.1286475851
C  C288  1  0.86000000  0.20220000  0.49850000  1.0 -0.1286475851
C  C289  1  0.34330000  0.30310000  0.34020000  1.0 -0.1586512998
C  C290  1  0.15670000  0.80310000  0.65980000  1.0 -0.1586512998
C  C291  1  0.65670000  0.69690000  0.65980000  1.0 -0.1586512998
C  C292  1  0.84330000  0.19690000  0.34020000  1.0 -0.1586512998
C  C293  1  0.34830000  0.27990000  0.41490000  1.0 -0.1186583589
C  C294  1  0.15170000  0.77990000  0.58510000  1.0 -0.1186583589
C  C295  1  0.65170000  0.72010000  0.58510000  1.0 -0.1186583589
C  C296  1  0.84830000  0.22010000  0.41490000  1.0 -0.1186583589
C  C297  1  0.37230000  0.34060000  0.50160000  1.0 -0.1586512998
C  C298  1  0.12770000  0.84060000  0.49840000  1.0 -0.1586512998
C  C299  1  0.62770000  0.65940000  0.49840000  1.0 -0.1586512998
C  C300  1  0.87230000  0.15940000  0.50160000  1.0 -0.1586512998
C  C301  1  0.87600000  0.20290000  0.63210000  1.0 -0.1586512998
C  C302  1  0.62400000  0.70290000  0.36790000  1.0 -0.1586512998
C  C303  1  0.12400000  0.79710000  0.36790000  1.0 -0.1586512998
C  C304  1  0.37600000  0.29710000  0.63210000  1.0 -0.1586512998
C  C305  1  0.74750000  0.17860000  0.77430000  1.0 -0.2383419915
C  C306  1  0.75250000  0.67860000  0.22570000  1.0 -0.2383419915
C  C307  1  0.25250000  0.82140000  0.22570000  1.0 -0.2383419915
C  C308  1  0.24750000  0.32140000  0.77430000  1.0 -0.2383419915
N  N1  1  0.67520000  0.05130000  0.70750000  1.0 -0.4874912171
N  N2  1  0.82480000  0.55130000  0.29250000  1.0 -0.4874912171
N  N3  1  0.32480000  0.94870000  0.29250000  1.0 -0.4874912171
N  N4  1  0.17520000  0.44870000  0.70750000  1.0 -0.4874912171
N  N5  1  0.36630000  0.41310000  0.44880000  1.0 -0.4096206209
N  N6  1  0.13370000  0.91310000  0.55120000  1.0 -0.4096206209
N  N7  1  0.63370000  0.58690000  0.55120000  1.0 -0.4096206209
N  N8  1  0.86630000  0.08690000  0.44880000  1.0 -0.4096206209
O  O1  1  0.68960000  0.30874000  0.73194000  1.0 -0.5774333148
O  O2  1  0.81040000  0.80874000  0.26806000  1.0 -0.5774333148
O  O3  1  0.31040000  0.69126000  0.26806000  1.0 -0.5774333148
O  O4  1  0.18960000  0.19126000  0.73194000  1.0 -0.5774333148
O  O5  1  0.96269000  0.29949000  0.63429000  1.0 -0.53992552
O  O6  1  0.53731000  0.79949000  0.36571000  1.0 -0.53992552
O  O7  1  0.03731000  0.70051000  0.36571000  1.0 -0.53992552
O  O8  1  0.46269000  0.20051000  0.63429000  1.0 -0.53992552
O  O9  1  0.34883000  0.62367000  0.15465000  1.0 -0.5608128204
O  O10  1  0.15117000  0.12367000  0.84535000  1.0 -0.5608128204
O  O11  1  0.65117000  0.37633000  0.84535000  1.0 -0.5608128204
O  O12  1  0.84883000  0.87633000  0.15465000  1.0 -0.5682314305
O  O13  1  0.16343000  0.64130000  0.15705000  1.0 -0.5682314305
O  O14  1  0.33657000  0.14130000  0.84295000  1.0 -0.5682314305
O  O15  1  0.83657000  0.35870000  0.84295000  1.0 -0.5682314305
O  O16  1  0.66343000  0.85870000  0.15705000  1.0 -0.5682314305
O  O17  1  0.46475000  0.64388000  0.25527000  1.0 -0.5774333148
O  O18  1  0.03525000  0.14388000  0.74473000  1.0 -0.5774333148
O  O19  1  0.53525000  0.35612000  0.74473000  1.0 -0.5774333148
O  O20  1  0.96475000  0.85612000  0.25527000  1.0 -0.5774333148
O  O21  1  0.11665000  0.21969000  0.86346000  1.0 -0.5484633241
O  O22  1  0.38335000  0.71969000  0.13654000  1.0 -0.5484633241
O  O23  1  0.88335000  0.78031000  0.13654000  1.0 -0.5484633241
O  O24  1  0.61665000  0.28031000  0.86346000  1.0 -0.5484633241
O  O25  1  0.06935000  0.65048000  0.23825000  1.0 -0.5608128204
O  O26  1  0.43065000  0.15048000  0.76175000  1.0 -0.5608128204
O  O27  1  0.93065000  0.34952000  0.76175000  1.0 -0.5608128204
O  O28  1  0.56935000  0.84952000  0.23825000  1.0 -0.5608128204
O  O29  1  0.06158000  0.27776000  0.79014000  1.0 -0.5484633241
O  O30  1  0.43842000  0.77776000  0.20986000  1.0 -0.5484633241
O  O31  1  0.93842000  0.72224000  0.20986000  1.0 -0.5484633241
O  O32  1  0.56158000  0.22224000  0.79014000  1.0 -0.5484633241
O  O33  1  0.80431000  0.28627000  0.68758000  1.0 -0.5337099625
O  O34  1  0.69569000  0.78627000  0.31242000  1.0 -0.5337099625
O  O35  1  0.19569000  0.71373000  0.31242000  1.0 -0.5337099625
O  O36  1  0.30431000  0.21373000  0.68758000  1.0 -0.5337099625
O  O37  1  0.42134000  0.23632000  0.85703000  1.0 -0.5608128204
O  O38  1  0.07866000  0.73632000  0.14297000  1.0 -0.5682314305
O  O39  1  0.57866000  0.76368000  0.14297000  1.0 -0.5682314305
O  O40  1  0.92134000  0.26368000  0.85703000  1.0 -0.5682314305
O  O41  1  0.30012000  0.23295000  0.90382000  1.0 -0.5484633241
O  O42  1  0.19988000  0.73295000  0.09618000  1.0 -0.5484633241
O  O43  1  0.69988000  0.76705000  0.09618000  1.0 -0.5484633241
O  O44  1  0.80012000  0.26705000  0.90382000  1.0 -0.5484633241
O  O45  1  0.05710000  0.24554000  0.62170000  1.0 -0.53992552
O  O46  1  0.44290000  0.74554000  0.37830000  1.0 -0.53992552
O  O47  1  0.94290000  0.75446000  0.37830000  1.0 -0.53992552
O  O48  1  0.55710000  0.25446000  0.62170000  1.0 -0.53992552
O  O49  1  0.92683000  0.22095000  0.71138000  1.0 -0.4096206209
O  O50  1  0.57317000  0.72095000  0.28862000  1.0 -0.4096206209
O  O51  1  0.07317000  0.77905000  0.28862000  1.0 -0.4096206209
O  O52  1  0.42683000  0.27905000  0.71138000  1.0 -0.4096206209
O  O53  1  0.83150000  0.16400000  0.78990000  1.0 -0.2192108135
O  O54  1  0.66850000  0.66400000  0.21010000  1.0 -0.2192108135
O  O55  1  0.16850000  0.83600000  0.21010000  1.0 -0.2192108135
O  O56  1  0.33150000  0.33600000  0.78990000  1.0 -0.2192108135
