# DDEC6 charges by PACMAN v1.1 (https://github.com/mtap-research/PACMAN-charge/)
data_KICFUB_FSR_pacman
_symmetry_space_group_name_H-M   'P 1'
_cell_length_a   15.84210000
_cell_length_b   29.91450000
_cell_length_c   16.39230000
_cell_angle_alpha   90.00000000
_cell_angle_beta   103.22000000
_cell_angle_gamma   90.00000000
_symmetry_Int_Tables_number   1
_chemical_formula_structural   Fe3H44C58O15
_chemical_formula_sum   'Fe12 H176 C232 O60'
_cell_volume   7562.57965173
_cell_formula_units_Z   4
loop_
 _symmetry_equiv_pos_site_id
 _symmetry_equiv_pos_as_xyz
  1  'x, y, z'
loop_
 _atom_site_type_symbol
 _atom_site_label
 _atom_site_symmetry_multiplicity
 _atom_site_fract_x
 _atom_site_fract_y
 _atom_site_fract_z
 _atom_site_occupancy
 _atom_site_charge
Fe  Fe1  1  0.43148000  0.71774000  0.24518000  1.0 1.0974244651
Fe  Fe2  1  0.06852000  0.21774000  0.75482000  1.0 1.0974244651
Fe  Fe3  1  0.56852000  0.28226000  0.75482000  1.0 1.0974244651
Fe  Fe4  1  0.93148000  0.78226000  0.24518000  1.0 1.0974244651
Fe  Fe5  1  0.23815000  0.67537000  0.36735000  1.0 1.0236000196
Fe  Fe6  1  0.26185000  0.17537000  0.63265000  1.0 1.0236000196
Fe  Fe7  1  0.76185000  0.32463000  0.63265000  1.0 1.025505143
Fe  Fe8  1  0.73815000  0.82463000  0.36735000  1.0 1.0236000196
Fe  Fe9  1  0.56119000  0.79319000  0.22704000  1.0 0.9176817711
Fe  Fe10  1  0.93881000  0.29319000  0.77296000  1.0 0.9176817711
Fe  Fe11  1  0.43881000  0.20681000  0.77296000  1.0 0.9176817711
Fe  Fe12  1  0.06119000  0.70681000  0.22704000  1.0 0.9176817711
H  H1  1  0.10657000  0.64013000  0.12349000  1.0 0.1183654913
H  H2  1  0.39343000  0.14013000  0.87651000  1.0 0.1183654913
H  H3  1  0.89343000  0.35987000  0.87651000  1.0 0.1183654913
H  H4  1  0.60657000  0.85987000  0.12349000  1.0 0.1183654913
H  H5  1  0.23681000  0.62628000  0.48667000  1.0 0.3412115973
H  H6  1  0.26319000  0.12628000  0.51333000  1.0 0.3412115973
H  H7  1  0.76319000  0.37372000  0.51333000  1.0 0.3412115973
H  H8  1  0.73681000  0.87372000  0.48667000  1.0 0.3412115973
H  H9  1  0.04755000  0.61336000  0.98771000  1.0 0.1183654913
H  H10  1  0.45245000  0.11336000  0.01229000  1.0 0.1183654913
H  H11  1  0.95245000  0.38664000  0.01229000  1.0 0.1183654913
H  H12  1  0.54755000  0.88664000  0.98771000  1.0 0.1183654913
H  H13  1  0.28679000  0.70896000  0.03566000  1.0 0.1283201179
H  H14  1  0.21321000  0.20896000  0.96434000  1.0 0.1283201179
H  H15  1  0.71321000  0.29104000  0.96434000  1.0 0.1283201179
H  H16  1  0.78679000  0.79104000  0.03566000  1.0 0.1283201179
H  H17  1  0.65727000  0.72010000  0.64473000  1.0 0.1124300689
H  H18  1  0.84273000  0.22010000  0.35527000  1.0 0.1124300689
H  H19  1  0.34273000  0.27990000  0.35527000  1.0 0.1124300689
H  H20  1  0.15727000  0.77990000  0.64473000  1.0 0.1124300689
H  H21  1  0.56266000  0.65756000  0.37876000  1.0 0.1183654913
H  H22  1  0.93734000  0.15756000  0.62124000  1.0 0.1183654913
H  H23  1  0.43734000  0.34244000  0.62124000  1.0 0.1183654913
H  H24  1  0.06266000  0.84244000  0.37876000  1.0 0.1183654913
H  H25  1  0.99560000  0.68906000  0.42702000  1.0 0.1183654913
H  H26  1  0.50440000  0.18906000  0.57298000  1.0 0.1183654913
H  H27  1  0.00440000  0.31094000  0.57298000  1.0 0.1183654913
H  H28  1  0.49560000  0.81094000  0.42702000  1.0 0.1183654913
H  H29  1  0.55212000  0.61661000  0.49690000  1.0 0.1124300689
H  H30  1  0.94788000  0.11661000  0.50310000  1.0 0.1124300689
H  H31  1  0.44788000  0.38339000  0.50310000  1.0 0.1124300689
H  H32  1  0.05212000  0.88339000  0.49690000  1.0 0.1124300689
H  H33  1  0.22553000  0.68388000  0.90081000  1.0 0.1183654913
H  H34  1  0.27447000  0.18388000  0.09919000  1.0 0.1183654913
H  H35  1  0.77447000  0.31612000  0.09919000  1.0 0.1183654913
H  H36  1  0.72553000  0.81612000  0.90081000  1.0 0.1183654913
H  H37  1  0.08584000  0.69056000  0.78613000  1.0 0.1183654913
H  H38  1  0.41416000  0.19056000  0.21387000  1.0 0.1183654913
H  H39  1  0.91416000  0.30944000  0.21387000  1.0 0.1183654913
H  H40  1  0.58584000  0.80944000  0.78613000  1.0 0.1183654913
H  H41  1  0.57644000  0.69070000  0.73117000  1.0 0.1124300689
H  H42  1  0.92356000  0.19070000  0.26883000  1.0 0.1124300689
H  H43  1  0.42356000  0.30930000  0.26883000  1.0 0.1124300689
H  H44  1  0.07644000  0.80930000  0.73117000  1.0 0.1124300689
H  H45  1  0.44532000  0.64786000  0.02316000  1.0 0.1283201179
H  H46  1  0.05468000  0.14786000  0.97684000  1.0 0.1283201179
H  H47  1  0.55468000  0.35214000  0.97684000  1.0 0.1283201179
H  H48  1  0.94532000  0.85214000  0.02316000  1.0 0.1283201179
H  H49  1  0.08202000  0.56528000  0.87746000  1.0 0.1124300689
H  H50  1  0.41798000  0.06528000  0.12254000  1.0 0.1124300689
H  H51  1  0.91798000  0.43472000  0.12254000  1.0 0.1124300689
H  H52  1  0.58202000  0.93472000  0.87746000  1.0 0.1124300689
H  H53  1  0.84290000  0.46053000  0.63162000  1.0 0.1183654913
H  H54  1  0.65710000  0.96053000  0.36838000  1.0 0.1183654913
H  H55  1  0.15710000  0.53947000  0.36838000  1.0 0.1183654913
H  H56  1  0.34290000  0.03947000  0.63162000  1.0 0.1183654913
H  H57  1  0.46948000  0.61109000  0.90382000  1.0 0.1183654913
H  H58  1  0.03052000  0.11109000  0.09618000  1.0 0.1183654913
H  H59  1  0.53052000  0.38891000  0.09618000  1.0 0.1183654913
H  H60  1  0.96948000  0.88891000  0.90382000  1.0 0.1183654913
H  H61  1  0.63124000  0.71020000  0.87071000  1.0 0.1124300689
H  H62  1  0.86876000  0.21020000  0.12929000  1.0 0.1124300689
H  H63  1  0.36876000  0.28980000  0.12929000  1.0 0.1124300689
H  H64  1  0.13124000  0.78980000  0.87071000  1.0 0.1124300689
H  H65  1  0.66487000  0.76130000  0.52747000  1.0 0.1183654913
H  H66  1  0.83513000  0.26130000  0.47253000  1.0 0.1183654913
H  H67  1  0.33513000  0.23870000  0.47253000  1.0 0.1183654913
H  H68  1  0.16487000  0.73870000  0.52747000  1.0 0.1183654913
H  H69  1  0.93673000  0.71771000  0.68826000  1.0 0.1183654913
H  H70  1  0.56327000  0.21771000  0.31174000  1.0 0.1183654913
H  H71  1  0.06327000  0.28229000  0.31174000  1.0 0.1183654913
H  H72  1  0.43673000  0.78229000  0.68826000  1.0 0.1183654913
H  H73  1  0.98478000  0.58911000  0.63201000  1.0 0.1124300689
H  H74  1  0.51522000  0.08911000  0.36799000  1.0 0.1124300689
H  H75  1  0.01522000  0.41089000  0.36799000  1.0 0.1183654913
H  H76  1  0.48478000  0.91089000  0.63201000  1.0 0.1183654913
H  H77  1  0.88999000  0.53472000  0.65122000  1.0 0.1124300689
H  H78  1  0.61001000  0.03472000  0.34878000  1.0 0.1124300689
H  H79  1  0.11001000  0.46528000  0.34878000  1.0 0.1124300689
H  H80  1  0.38999000  0.96528000  0.65122000  1.0 0.1124300689
H  H81  1  0.05059000  0.42177000  0.81032000  1.0 0.1183654913
H  H82  1  0.44941000  0.92177000  0.18968000  1.0 0.1183654913
H  H83  1  0.94941000  0.57823000  0.18968000  1.0 0.1183654913
H  H84  1  0.55059000  0.07823000  0.81032000  1.0 0.1183654913
H  H85  1  0.86798000  0.75919000  0.57090000  1.0 0.1183654913
H  H86  1  0.63202000  0.25919000  0.42910000  1.0 0.1183654913
H  H87  1  0.13202000  0.24081000  0.42910000  1.0 0.1183654913
H  H88  1  0.36798000  0.74081000  0.57090000  1.0 0.1183654913
H  H89  1  0.61399000  0.74393000  0.99278000  1.0 0.1124300689
H  H90  1  0.88601000  0.24393000  0.00722000  1.0 0.1124300689
H  H91  1  0.38601000  0.25607000  0.00722000  1.0 0.1124300689
H  H92  1  0.11399000  0.75607000  0.99278000  1.0 0.1124300689
H  H93  1  0.39082000  0.66480000  0.53017000  1.0 0.1183654913
H  H94  1  0.10918000  0.16480000  0.46983000  1.0 0.1183654913
H  H95  1  0.60918000  0.33520000  0.46983000  1.0 0.1183654913
H  H96  1  0.89082000  0.83520000  0.53017000  1.0 0.1183654913
H  H97  1  0.37181000  0.61276000  0.51214000  1.0 0.1183654913
H  H98  1  0.12819000  0.11276000  0.48786000  1.0 0.1183654913
H  H99  1  0.62819000  0.38724000  0.48786000  1.0 0.1183654913
H  H100  1  0.87181000  0.88724000  0.51214000  1.0 0.1183654913
H  H101  1  0.35639000  0.63474000  0.59655000  1.0 0.1183654913
H  H102  1  0.14361000  0.13474000  0.40345000  1.0 0.1183654913
H  H103  1  0.64361000  0.36526000  0.40345000  1.0 0.1183654913
H  H104  1  0.85639000  0.86526000  0.59655000  1.0 0.1183654913
H  H105  1  0.68958000  0.51488000  0.65993000  1.0 0.1124300689
H  H106  1  0.81042000  0.01488000  0.34007000  1.0 0.1124300689
H  H107  1  0.31042000  0.48512000  0.34007000  1.0 0.1124300689
H  H108  1  0.18958000  0.98512000  0.65993000  1.0 0.1124300689
H  H109  1  0.10150000  0.49462000  0.82367000  1.0 0.1183654913
H  H110  1  0.39850000  0.99462000  0.17633000  1.0 0.1183654913
H  H111  1  0.89850000  0.50538000  0.17633000  1.0 0.1183654913
H  H112  1  0.60150000  0.00538000  0.82367000  1.0 0.1183654913
H  H113  1  0.69648000  0.43770000  0.64540000  1.0 0.1124300689
H  H114  1  0.80352000  0.93770000  0.35460000  1.0 0.1124300689
H  H115  1  0.30352000  0.56230000  0.35460000  1.0 0.1124300689
H  H116  1  0.19648000  0.06230000  0.64540000  1.0 0.1124300689
H  H117  1  0.61013000  0.57682000  0.60917000  1.0 0.1124300689
H  H118  1  0.88987000  0.07682000  0.39083000  1.0 0.1124300689
H  H119  1  0.38987000  0.42318000  0.39083000  1.0 0.1124300689
H  H120  1  0.11013000  0.92318000  0.60917000  1.0 0.1124300689
H  H121  1  0.49685000  0.50159000  0.78223000  1.0 0.1124300689
H  H122  1  0.00315000  0.00159000  0.21777000  1.0 0.1124300689
H  H123  1  0.50315000  0.49841000  0.21777000  1.0 0.1124300689
H  H124  1  0.99685000  0.99841000  0.78223000  1.0 0.1124300689
H  H125  1  0.56151000  0.57060000  0.84184000  1.0 0.1124300689
H  H126  1  0.93849000  0.07060000  0.15816000  1.0 0.1124300689
H  H127  1  0.43849000  0.42940000  0.15816000  1.0 0.1124300689
H  H128  1  0.06151000  0.92940000  0.84184000  1.0 0.1124300689
H  H129  1  0.05586000  0.64362000  0.54196000  1.0 0.1183654913
H  H130  1  0.44414000  0.14362000  0.45804000  1.0 0.1183654913
H  H131  1  0.94414000  0.35638000  0.45804000  1.0 0.1183654913
H  H132  1  0.55586000  0.85638000  0.54196000  1.0 0.1183654913
H  H133  1  0.50940000  0.42374000  0.77699000  1.0 0.1283201179
H  H134  1  0.99060000  0.92374000  0.22301000  1.0 0.1283201179
H  H135  1  0.49060000  0.57626000  0.22301000  1.0 0.1283201179
H  H136  1  0.00940000  0.07626000  0.77699000  1.0 0.1283201179
H  H137  1  0.38247000  0.84199000  0.22875000  1.0 0.1003377193
H  H138  1  0.11753000  0.34199000  0.77125000  1.0 0.1003377193
H  H139  1  0.61753000  0.15801000  0.77125000  1.0 0.1003377193
H  H140  1  0.88247000  0.65801000  0.22875000  1.0 0.1003377193
H  H141  1  0.37588000  0.80774000  0.30204000  1.0 0.1973368105
H  H142  1  0.12412000  0.30774000  0.69796000  1.0 0.1973368105
H  H143  1  0.62412000  0.19226000  0.69796000  1.0 0.1973368105
H  H144  1  0.87588000  0.69226000  0.30204000  1.0 0.1973368105
H  H145  1  0.31067000  0.80337000  0.21210000  1.0 0.1003377193
H  H146  1  0.18933000  0.30337000  0.78790000  1.0 0.1003377193
H  H147  1  0.68933000  0.19663000  0.78790000  1.0 0.1003377193
H  H148  1  0.81067000  0.69663000  0.21210000  1.0 0.1003377193
H  H149  1  0.39955000  0.78261000  0.08619000  1.0 0.1183654913
H  H150  1  0.10045000  0.28261000  0.91381000  1.0 0.1183654913
H  H151  1  0.60045000  0.21739000  0.91381000  1.0 0.1183654913
H  H152  1  0.89955000  0.71739000  0.08619000  1.0 0.1183654913
H  H153  1  0.39145000  0.83052000  0.12716000  1.0 0.1003377193
H  H154  1  0.10855000  0.33052000  0.87284000  1.0 0.1003377193
H  H155  1  0.60855000  0.16948000  0.87284000  1.0 0.1003377193
H  H156  1  0.89145000  0.66948000  0.12716000  1.0 0.1003377193
H  H157  1  0.31864000  0.79331000  0.12624000  1.0 0.0911182683
H  H158  1  0.18136000  0.29331000  0.87376000  1.0 0.0911182683
H  H159  1  0.68136000  0.20669000  0.87376000  1.0 0.0911182683
H  H160  1  0.81864000  0.70669000  0.12624000  1.0 0.0911182683
H  H161  1  0.25217000  0.78796000  0.27827000  1.0 0.1183654913
H  H162  1  0.24783000  0.28796000  0.72173000  1.0 0.1183654913
H  H163  1  0.74783000  0.21204000  0.72173000  1.0 0.1183654913
H  H164  1  0.75217000  0.71204000  0.27827000  1.0 0.1183654913
H  H165  1  0.21906000  0.83086000  0.22165000  1.0 0.1003377193
H  H166  1  0.28094000  0.33086000  0.77835000  1.0 0.1003377193
H  H167  1  0.78094000  0.16914000  0.77835000  1.0 0.1003377193
H  H168  1  0.71906000  0.66914000  0.22165000  1.0 0.1003377193
H  H169  1  0.22614000  0.83255000  0.32056000  1.0 0.1183654913
H  H170  1  0.27386000  0.33255000  0.67944000  1.0 0.1183654913
H  H171  1  0.77386000  0.16745000  0.67944000  1.0 0.1183654913
H  H172  1  0.72614000  0.66745000  0.32056000  1.0 0.1183654913
H  H173  1  0.33979000  0.85922000  0.26010000  1.0 0.159526157
H  H174  1  0.16021000  0.35922000  0.73990000  1.0 0.159526157
H  H175  1  0.66021000  0.14078000  0.73990000  1.0 0.159526157
H  H176  1  0.83979000  0.64078000  0.26010000  1.0 0.159526157
C  C1  1  0.13120000  0.64901000  0.07830000  1.0 -0.1003718325
C  C2  1  0.36880000  0.14901000  0.92170000  1.0 -0.1003718325
C  C3  1  0.86880000  0.35099000  0.92170000  1.0 -0.1003718325
C  C4  1  0.63120000  0.85099000  0.07830000  1.0 -0.1003718325
C  C5  1  0.61130000  0.71387000  0.44030000  1.0 -0.0403415168
C  C6  1  0.88870000  0.21387000  0.55970000  1.0 -0.0403415168
C  C7  1  0.38870000  0.28613000  0.55970000  1.0 -0.0403415168
C  C8  1  0.11130000  0.78613000  0.44030000  1.0 -0.0403415168
C  C9  1  0.00110000  0.67539000  0.62650000  1.0 0.0704304504
C  C10  1  0.49890000  0.17539000  0.37350000  1.0 0.0704304504
C  C11  1  0.99890000  0.32461000  0.37350000  1.0 0.0704304504
C  C12  1  0.50110000  0.82461000  0.62650000  1.0 0.0704304504
C  C13  1  0.09580000  0.63310000  0.99720000  1.0 -0.150794546
C  C14  1  0.40420000  0.13310000  0.00280000  1.0 -0.150794546
C  C15  1  0.90420000  0.36690000  0.00280000  1.0 -0.150794546
C  C16  1  0.59580000  0.86690000  0.99720000  1.0 -0.150794546
C  C17  1  0.20140000  0.67746000  0.09280000  1.0 -0.0403415168
C  C18  1  0.29860000  0.17746000  0.90720000  1.0 -0.0403415168
C  C19  1  0.79860000  0.32254000  0.90720000  1.0 -0.0403415168
C  C20  1  0.70140000  0.82254000  0.09280000  1.0 -0.0403415168
C  C21  1  0.59230000  0.63823000  0.65780000  1.0 0.0797738287
C  C22  1  0.90770000  0.13823000  0.34220000  1.0 0.0797738287
C  C23  1  0.40770000  0.36177000  0.34220000  1.0 0.0797738287
C  C24  1  0.09230000  0.86177000  0.65780000  1.0 0.0797738287
C  C25  1  0.23750000  0.68994000  0.02610000  1.0 -0.1003718325
C  C26  1  0.26250000  0.18994000  0.97390000  1.0 -0.1003718325
C  C27  1  0.76250000  0.31006000  0.97390000  1.0 -0.1003718325
C  C28  1  0.73750000  0.81006000  0.02610000  1.0 -0.1003718325
C  C29  1  0.13090000  0.64606000  0.93090000  1.0 0.0797738287
C  C30  1  0.36910000  0.14606000  0.06910000  1.0 0.0797738287
C  C31  1  0.86910000  0.35394000  0.06910000  1.0 0.0797738287
C  C32  1  0.63090000  0.85394000  0.93090000  1.0 0.0797738287
C  C33  1  0.63670000  0.70739000  0.59070000  1.0 -0.150794546
C  C34  1  0.86330000  0.20739000  0.40930000  1.0 -0.150794546
C  C35  1  0.36330000  0.29261000  0.40930000  1.0 -0.150794546
C  C36  1  0.13670000  0.79261000  0.59070000  1.0 -0.150794546
C  C37  1  0.58040000  0.67068000  0.43280000  1.0 -0.0901114076
C  C38  1  0.91960000  0.17068000  0.56720000  1.0 -0.0901114076
C  C39  1  0.41960000  0.32932000  0.56720000  1.0 -0.0901114076
C  C40  1  0.08040000  0.82932000  0.43280000  1.0 -0.0901114076
C  C41  1  0.61060000  0.37322000  0.70070000  1.0 0.5823614718
C  C42  1  0.88940000  0.87322000  0.29930000  1.0 0.5853612002
C  C43  1  0.38940000  0.62678000  0.29930000  1.0 0.5823614718
C  C44  1  0.11060000  0.12678000  0.70070000  1.0 0.5823614718
C  C45  1  0.60260000  0.42336000  0.70850000  1.0 -0.0228253242
C  C46  1  0.89740000  0.92336000  0.29150000  1.0 -0.0228253242
C  C47  1  0.39740000  0.57664000  0.29150000  1.0 -0.0228253242
C  C48  1  0.10260000  0.07664000  0.70850000  1.0 -0.0228253242
C  C49  1  0.59230000  0.51611000  0.72080000  1.0 0.0649191838
C  C50  1  0.90770000  0.01611000  0.27920000  1.0 0.0704304504
C  C51  1  0.40770000  0.48389000  0.27920000  1.0 0.0704304504
C  C52  1  0.09230000  0.98389000  0.72080000  1.0 0.0649191838
C  C53  1  0.98150000  0.69418000  0.47950000  1.0 -0.1094918346
C  C54  1  0.51850000  0.19418000  0.52050000  1.0 -0.1003718325
C  C55  1  0.01850000  0.30582000  0.52050000  1.0 -0.1003718325
C  C56  1  0.48150000  0.80582000  0.47950000  1.0 -0.1094918346
C  C57  1  0.23610000  0.69526000  0.17810000  1.0 0.5962478396
C  C58  1  0.26390000  0.19526000  0.82190000  1.0 0.5962478396
C  C59  1  0.76390000  0.30474000  0.82190000  1.0 0.5962478396
C  C60  1  0.73610000  0.80474000  0.17810000  1.0 0.5962478396
C  C61  1  0.09010000  0.62997000  0.84550000  1.0 0.0797738287
C  C62  1  0.40990000  0.12997000  0.15450000  1.0 0.0797738287
C  C63  1  0.90990000  0.37003000  0.15450000  1.0 0.0797738287
C  C64  1  0.59010000  0.87003000  0.84550000  1.0 0.0797738287
C  C65  1  0.02940000  0.64480000  0.69810000  1.0 0.0797738287
C  C66  1  0.47060000  0.14480000  0.30190000  1.0 0.0797738287
C  C67  1  0.97060000  0.35520000  0.30190000  1.0 0.0797738287
C  C68  1  0.52940000  0.85520000  0.69810000  1.0 0.0797738287
C  C69  1  0.56710000  0.63420000  0.79840000  1.0 0.0797738287
C  C70  1  0.93290000  0.13420000  0.20160000  1.0 0.0797738287
C  C71  1  0.43290000  0.36580000  0.20160000  1.0 0.0797738287
C  C72  1  0.06710000  0.86580000  0.79840000  1.0 0.0797738287
C  C73  1  0.51780000  0.72116000  0.09900000  1.0 0.5823614718
C  C74  1  0.98220000  0.22116000  0.90100000  1.0 0.5823614718
C  C75  1  0.48220000  0.27884000  0.90100000  1.0 0.5823614718
C  C76  1  0.01780000  0.77884000  0.09900000  1.0 0.5823614718
C  C77  1  0.58450000  0.56544000  0.72420000  1.0 0.0797738287
C  C78  1  0.91550000  0.06544000  0.27580000  1.0 0.0797738287
C  C79  1  0.41550000  0.43456000  0.27580000  1.0 0.0797738287
C  C80  1  0.08450000  0.93456000  0.72420000  1.0 0.0911182683
C  C81  1  0.57490000  0.64611000  0.50330000  1.0 -0.150794546
C  C82  1  0.92510000  0.14611000  0.49670000  1.0 -0.150794546
C  C83  1  0.42510000  0.35389000  0.49670000  1.0 -0.150794546
C  C84  1  0.07490000  0.85389000  0.50330000  1.0 -0.150794546
C  C85  1  0.20140000  0.67463000  0.94610000  1.0 -0.1582754508
C  C86  1  0.29860000  0.17463000  0.05390000  1.0 -0.1582754508
C  C87  1  0.79860000  0.32537000  0.05390000  1.0 -0.1582754508
C  C88  1  0.70140000  0.82537000  0.94610000  1.0 -0.1582754508
C  C89  1  0.07070000  0.65991000  0.77770000  1.0 -0.2089405853
C  C90  1  0.42930000  0.15991000  0.22230000  1.0 -0.2089405853
C  C91  1  0.92930000  0.34009000  0.22230000  1.0 -0.2089405853
C  C92  1  0.57070000  0.84009000  0.77770000  1.0 -0.2089405853
C  C93  1  0.57840000  0.65898000  0.72920000  1.0 -0.2089405853
C  C94  1  0.92160000  0.15898000  0.27080000  1.0 -0.2089405853
C  C95  1  0.42160000  0.34102000  0.27080000  1.0 -0.2089405853
C  C96  1  0.07840000  0.84102000  0.72920000  1.0 -0.2089405853
C  C97  1  0.91370000  0.38614000  0.70720000  1.0 0.5853612002
C  C98  1  0.58630000  0.88614000  0.29280000  1.0 0.5853612002
C  C99  1  0.08630000  0.61386000  0.29280000  1.0 0.5853612002
C  C100  1  0.41370000  0.11386000  0.70720000  1.0 0.5853612002
C  C101  1  0.48500000  0.66000000  0.99350000  1.0 -0.1003718325
C  C102  1  0.01500000  0.16000000  0.00650000  1.0 -0.1003718325
C  C103  1  0.51500000  0.34000000  0.00650000  1.0 -0.1003718325
C  C104  1  0.98500000  0.84000000  0.99350000  1.0 -0.1003718325
C  C105  1  0.06850000  0.58558000  0.83170000  1.0 -0.1917645905
C  C106  1  0.43150000  0.08558000  0.16830000  1.0 -0.1917645905
C  C107  1  0.93150000  0.41442000  0.16830000  1.0 -0.1917645905
C  C108  1  0.56850000  0.91442000  0.83170000  1.0 -0.1917645905
C  C109  1  0.89480000  0.46736000  0.67170000  1.0 -0.1003718325
C  C110  1  0.60520000  0.96736000  0.32830000  1.0 -0.1003718325
C  C111  1  0.10520000  0.53264000  0.32830000  1.0 -0.1003718325
C  C112  1  0.39480000  0.03264000  0.67170000  1.0 -0.1003718325
C  C113  1  0.02730000  0.56951000  0.75300000  1.0 0.0704304504
C  C114  1  0.47270000  0.06951000  0.24700000  1.0 0.0704304504
C  C115  1  0.97270000  0.43049000  0.24700000  1.0 0.0797738287
C  C116  1  0.52730000  0.93049000  0.75300000  1.0 0.0797738287
C  C117  1  0.49810000  0.63860000  0.92110000  1.0 -0.1582754508
C  C118  1  0.00190000  0.13860000  0.07890000  1.0 -0.1582754508
C  C119  1  0.50190000  0.36140000  0.07890000  1.0 -0.1582754508
C  C120  1  0.99810000  0.86140000  0.92110000  1.0 -0.1582754508
C  C121  1  0.94180000  0.43361000  0.71820000  1.0 -0.0403415168
C  C122  1  0.55820000  0.93361000  0.28180000  1.0 -0.0403415168
C  C123  1  0.05820000  0.56639000  0.28180000  1.0 -0.0403415168
C  C124  1  0.44180000  0.06639000  0.71820000  1.0 -0.0403415168
C  C125  1  0.00000000  0.52226000  0.74130000  1.0 0.0797738287
C  C126  1  0.50000000  0.02226000  0.25870000  1.0 0.0797738287
C  C127  1  0.00000000  0.47774000  0.25870000  1.0 0.0797738287
C  C128  1  0.50000000  0.97774000  0.74130000  1.0 0.0797738287
C  C129  1  0.59460000  0.69680000  0.90220000  1.0 -0.150794546
C  C130  1  0.90540000  0.19680000  0.09780000  1.0 -0.150794546
C  C131  1  0.40540000  0.30320000  0.09780000  1.0 -0.150794546
C  C132  1  0.09460000  0.80320000  0.90220000  1.0 -0.150794546
C  C133  1  0.64130000  0.73196000  0.52110000  1.0 -0.0901114076
C  C134  1  0.85870000  0.23196000  0.47890000  1.0 -0.0901114076
C  C135  1  0.35870000  0.26804000  0.47890000  1.0 -0.0901114076
C  C136  1  0.14130000  0.76804000  0.52110000  1.0 -0.0901114076
C  C137  1  0.94690000  0.71070000  0.63480000  1.0 -0.1582754508
C  C138  1  0.55310000  0.21070000  0.36520000  1.0 -0.1582754508
C  C139  1  0.05310000  0.28930000  0.36520000  1.0 -0.1582754508
C  C140  1  0.44690000  0.78930000  0.63480000  1.0 -0.1582754508
C  C141  1  0.01030000  0.59971000  0.68670000  1.0 -0.1917645905
C  C142  1  0.48970000  0.09971000  0.31330000  1.0 -0.1917645905
C  C143  1  0.98970000  0.40029000  0.31330000  1.0 -0.1917645905
C  C144  1  0.51030000  0.90029000  0.68670000  1.0 -0.1917645905
C  C145  1  0.92320000  0.51161000  0.68320000  1.0 -0.1582754508
C  C146  1  0.57680000  0.01161000  0.31680000  1.0 -0.1582754508
C  C147  1  0.07680000  0.48839000  0.31680000  1.0 -0.1582754508
C  C148  1  0.42320000  0.98839000  0.68320000  1.0 -0.1582754508
C  C149  1  0.01850000  0.44463000  0.77670000  1.0 -0.1204796454
C  C150  1  0.48150000  0.94463000  0.22330000  1.0 -0.1204796454
C  C151  1  0.98150000  0.55537000  0.22330000  1.0 -0.1204796454
C  C152  1  0.51850000  0.05537000  0.77670000  1.0 -0.1204796454
C  C153  1  0.90730000  0.73610000  0.56490000  1.0 -0.1003718325
C  C154  1  0.59270000  0.23610000  0.43510000  1.0 -0.1003718325
C  C155  1  0.09270000  0.26390000  0.43510000  1.0 -0.1003718325
C  C156  1  0.40730000  0.76390000  0.56490000  1.0 -0.1003718325
C  C157  1  0.58400000  0.71700000  0.97440000  1.0 -0.1094918346
C  C158  1  0.91600000  0.21700000  0.02560000  1.0 -0.1003718325
C  C159  1  0.41600000  0.28300000  0.02560000  1.0 -0.1003718325
C  C160  1  0.08400000  0.78300000  0.97440000  1.0 -0.1094918346
C  C161  1  0.35300000  0.63980000  0.53680000  1.0 -0.2171156753
C  C162  1  0.14700000  0.13980000  0.46320000  1.0 -0.2171156753
C  C163  1  0.64700000  0.36020000  0.46320000  1.0 -0.2171156753
C  C164  1  0.85300000  0.86020000  0.53680000  1.0 -0.2171156753
C  C165  1  0.65130000  0.49640000  0.68190000  1.0 -0.1415158186
C  C166  1  0.84870000  0.99640000  0.31810000  1.0 -0.1415158186
C  C167  1  0.34870000  0.50360000  0.31810000  1.0 -0.1415158186
C  C168  1  0.15130000  0.00360000  0.68190000  1.0 -0.1415158186
C  C169  1  0.04780000  0.48810000  0.78600000  1.0 -0.150794546
C  C170  1  0.45220000  0.98810000  0.21400000  1.0 -0.150794546
C  C171  1  0.95220000  0.51190000  0.21400000  1.0 -0.150794546
C  C172  1  0.54780000  0.01190000  0.78600000  1.0 -0.150794546
C  C173  1  0.60280000  0.66446000  0.58400000  1.0 0.0704304504
C  C174  1  0.89720000  0.16446000  0.41600000  1.0 0.0704304504
C  C175  1  0.39720000  0.33554000  0.41600000  1.0 0.0704304504
C  C176  1  0.10280000  0.83554000  0.58400000  1.0 0.0704304504
C  C177  1  0.65660000  0.45050000  0.67400000  1.0 -0.1204796454
C  C178  1  0.84340000  0.95050000  0.32600000  1.0 -0.1204796454
C  C179  1  0.34340000  0.54950000  0.32600000  1.0 -0.1204796454
C  C180  1  0.15660000  0.04950000  0.67400000  1.0 -0.1204796454
C  C181  1  0.59750000  0.59129000  0.65660000  1.0 -0.2171156753
C  C182  1  0.90250000  0.09129000  0.34340000  1.0 -0.2171156753
C  C183  1  0.40250000  0.40871000  0.34340000  1.0 -0.2171156753
C  C184  1  0.09750000  0.90871000  0.65660000  1.0 -0.2171156753
C  C185  1  0.88250000  0.75537000  0.41470000  1.0 0.5823614718
C  C186  1  0.61750000  0.25537000  0.58530000  1.0 0.5823614718
C  C187  1  0.11750000  0.24463000  0.58530000  1.0 0.5823614718
C  C188  1  0.38250000  0.74463000  0.41470000  1.0 0.5823614718
C  C189  1  0.60180000  0.74181000  0.36430000  1.0 0.5745082673
C  C190  1  0.89820000  0.24181000  0.63570000  1.0 0.5745082673
C  C191  1  0.39820000  0.25819000  0.63570000  1.0 0.5745082673
C  C192  1  0.10180000  0.75819000  0.36430000  1.0 0.5745082673
C  C193  1  0.55230000  0.65700000  0.87460000  1.0 0.0704304504
C  C194  1  0.94770000  0.15700000  0.12540000  1.0 0.0704304504
C  C195  1  0.44770000  0.34300000  0.12540000  1.0 0.0704304504
C  C196  1  0.05230000  0.84300000  0.87460000  1.0 0.0704304504
C  C197  1  0.53810000  0.48860000  0.75550000  1.0 -0.150794546
C  C198  1  0.96190000  0.98860000  0.24450000  1.0 -0.150794546
C  C199  1  0.46190000  0.51140000  0.24450000  1.0 -0.150794546
C  C200  1  0.03810000  0.01140000  0.75550000  1.0 -0.150794546
C  C201  1  0.56980000  0.58760000  0.79530000  1.0 -0.2089405853
C  C202  1  0.93020000  0.08760000  0.20470000  1.0 -0.2089405853
C  C203  1  0.43020000  0.41240000  0.20470000  1.0 -0.2089405853
C  C204  1  0.06980000  0.91240000  0.79530000  1.0 -0.2089405853
C  C205  1  0.52960000  0.69830000  0.02110000  1.0 -0.0324182708
C  C206  1  0.97040000  0.19830000  0.97890000  1.0 -0.0324182708
C  C207  1  0.47040000  0.30170000  0.97890000  1.0 -0.0324182708
C  C208  1  0.02960000  0.80170000  0.02110000  1.0 -0.0324182708
C  C209  1  0.92440000  0.72814000  0.48780000  1.0 -0.0473131102
C  C210  1  0.57560000  0.22814000  0.51220000  1.0 -0.0473131102
C  C211  1  0.07560000  0.27186000  0.51220000  1.0 -0.0473131102
C  C212  1  0.42440000  0.77186000  0.48780000  1.0 -0.0473131102
C  C213  1  0.01840000  0.66748000  0.54860000  1.0 -0.150794546
C  C214  1  0.48160000  0.16748000  0.45140000  1.0 -0.150794546
C  C215  1  0.98160000  0.33252000  0.45140000  1.0 -0.150794546
C  C216  1  0.51840000  0.83252000  0.54860000  1.0 -0.150794546
C  C217  1  0.54440000  0.44232000  0.75120000  1.0 -0.1094918346
C  C218  1  0.95560000  0.94232000  0.24880000  1.0 -0.1094918346
C  C219  1  0.45560000  0.55768000  0.24880000  1.0 -0.1094918346
C  C220  1  0.04440000  0.05768000  0.75120000  1.0 -0.1094918346
C  C221  1  0.37000000  0.81100000  0.24150000  1.0 0.0217644189
C  C222  1  0.13000000  0.31100000  0.75850000  1.0 0.0217644189
C  C223  1  0.63000000  0.18900000  0.75850000  1.0 0.0217644189
C  C224  1  0.87000000  0.68900000  0.24150000  1.0 0.0217644189
C  C225  1  0.38070000  0.79840000  0.13130000  1.0 -0.2416886959
C  C226  1  0.11930000  0.29840000  0.86870000  1.0 -0.2416886959
C  C227  1  0.61930000  0.20160000  0.86870000  1.0 -0.2416886959
C  C228  1  0.88070000  0.70160000  0.13130000  1.0 -0.2416886959
C  C229  1  0.25240000  0.82070000  0.27640000  1.0 -0.2835733492
C  C230  1  0.24760000  0.32070000  0.72360000  1.0 -0.2835733492
C  C231  1  0.74760000  0.17930000  0.72360000  1.0 -0.2835733492
C  C232  1  0.75240000  0.67930000  0.27640000  1.0 -0.2835733492
O  O1  1  0.46640000  0.70230000  0.13750000  1.0 -0.5500821495
O  O2  1  0.03360000  0.20230000  0.86250000  1.0 -0.5500821495
O  O3  1  0.53360000  0.29770000  0.86250000  1.0 -0.5500821495
O  O4  1  0.96640000  0.79770000  0.13750000  1.0 -0.5500821495
O  O5  1  0.19510000  0.69173000  0.23430000  1.0 -0.5681956235
O  O6  1  0.30490000  0.19173000  0.76570000  1.0 -0.5681956235
O  O7  1  0.80490000  0.30827000  0.76570000  1.0 -0.5681956235
O  O8  1  0.69510000  0.80827000  0.23430000  1.0 -0.5681956235
O  O9  1  0.56550000  0.72417000  0.29300000  1.0 -0.5681956235
O  O10  1  0.93450000  0.22417000  0.70700000  1.0 -0.5681956235
O  O11  1  0.43450000  0.27583000  0.70700000  1.0 -0.5681956235
O  O12  1  0.06550000  0.77583000  0.29300000  1.0 -0.5681956235
O  O13  1  0.92330000  0.76219000  0.35830000  1.0 -0.5681956235
O  O14  1  0.57670000  0.26219000  0.64170000  1.0 -0.5681956235
O  O15  1  0.07670000  0.23781000  0.64170000  1.0 -0.5681956235
O  O16  1  0.42330000  0.73781000  0.35830000  1.0 -0.5681956235
O  O17  1  0.56510000  0.34896000  0.73740000  1.0 -0.5500821495
O  O18  1  0.93490000  0.84896000  0.26260000  1.0 -0.5500821495
O  O19  1  0.43490000  0.65104000  0.26260000  1.0 -0.5500821495
O  O20  1  0.06510000  0.15104000  0.73740000  1.0 -0.5500821495
O  O21  1  0.30820000  0.71532000  0.19040000  1.0 -0.5500821495
O  O22  1  0.19180000  0.21532000  0.80960000  1.0 -0.5500821495
O  O23  1  0.69180000  0.28468000  0.80960000  1.0 -0.5500821495
O  O24  1  0.80820000  0.78468000  0.19040000  1.0 -0.5500821495
O  O25  1  0.80720000  0.76977000  0.41160000  1.0 -0.5500821495
O  O26  1  0.69280000  0.26977000  0.58840000  1.0 -0.5500821495
O  O27  1  0.19280000  0.23023000  0.58840000  1.0 -0.5500821495
O  O28  1  0.30720000  0.73023000  0.41160000  1.0 -0.5500821495
O  O29  1  0.95920000  0.35773000  0.75410000  1.0 -0.5614934686
O  O30  1  0.54080000  0.85773000  0.24590000  1.0 -0.5614934686
O  O31  1  0.04080000  0.64227000  0.24590000  1.0 -0.5614934686
O  O32  1  0.45920000  0.14227000  0.75410000  1.0 -0.5614934686
O  O33  1  0.84270000  0.37869000  0.65490000  1.0 -0.5890431974
O  O34  1  0.65730000  0.87869000  0.34510000  1.0 -0.5890431974
O  O35  1  0.15730000  0.62131000  0.34510000  1.0 -0.5890431974
O  O36  1  0.34270000  0.12131000  0.65490000  1.0 -0.5890431974
O  O37  1  0.62200000  0.78191000  0.36770000  1.0 -0.5500821495
O  O38  1  0.87800000  0.28191000  0.63230000  1.0 -0.5500821495
O  O39  1  0.37800000  0.21809000  0.63230000  1.0 -0.5500821495
O  O40  1  0.12200000  0.71809000  0.36770000  1.0 -0.5500821495
O  O41  1  0.26580000  0.65000000  0.49550000  1.0 -0.3770659614
O  O42  1  0.23420000  0.15000000  0.50450000  1.0 -0.3770659614
O  O43  1  0.73420000  0.35000000  0.50450000  1.0 -0.3770659614
O  O44  1  0.76580000  0.85000000  0.49550000  1.0 -0.3770659614
O  O45  1  0.65830000  0.35914000  0.65610000  1.0 -0.5681956235
O  O46  1  0.84170000  0.85914000  0.34390000  1.0 -0.5681956235
O  O47  1  0.34170000  0.64086000  0.34390000  1.0 -0.5681956235
O  O48  1  0.15830000  0.14086000  0.65610000  1.0 -0.5681956235
O  O49  1  0.56050000  0.75609000  0.12310000  1.0 -0.5500821495
O  O50  1  0.93950000  0.25609000  0.87690000  1.0 -0.5500821495
O  O51  1  0.43950000  0.24391000  0.87690000  1.0 -0.5500821495
O  O52  1  0.06050000  0.74391000  0.12310000  1.0 -0.5500821495
O  O53  1  0.43050000  0.78135000  0.21440000  1.0 -0.3495774764
O  O54  1  0.06950000  0.28135000  0.78560000  1.0 -0.3495774764
O  O55  1  0.56950000  0.21865000  0.78560000  1.0 -0.3495774764
O  O56  1  0.93050000  0.71865000  0.21440000  1.0 -0.3495774764
O  O57  1  0.33850000  0.83610000  0.28900000  1.0 -0.1711350281
O  O58  1  0.16150000  0.33610000  0.71100000  1.0 -0.1711350281
O  O59  1  0.66150000  0.16390000  0.71100000  1.0 -0.1711350281
O  O60  1  0.83850000  0.66390000  0.28900000  1.0 -0.1711350281
