# DDEC6 charges by PACMAN v1.1 (https://github.com/mtap-research/PACMAN-charge/)
data_KICFOV_ASR_pacman
_symmetry_space_group_name_H-M   'P 1'
_cell_length_a   15.63880000
_cell_length_b   30.13400000
_cell_length_c   16.31120000
_cell_angle_alpha   90.00000000
_cell_angle_beta   103.31600000
_cell_angle_gamma   90.00000000
_symmetry_Int_Tables_number   1
_chemical_formula_structural   Fe3H54C67NClO17
_chemical_formula_sum   'Fe12 H216 C268 N4 Cl4 O68'
_cell_volume   7480.14656920
_cell_formula_units_Z   4
loop_
 _symmetry_equiv_pos_site_id
 _symmetry_equiv_pos_as_xyz
  1  'x, y, z'
loop_
 _atom_site_type_symbol
 _atom_site_label
 _atom_site_symmetry_multiplicity
 _atom_site_fract_x
 _atom_site_fract_y
 _atom_site_fract_z
 _atom_site_occupancy
 _atom_site_charge
Fe  Fe1  1  0.23740000  0.82524000  0.87287000  1.0 1.0714826863
Fe  Fe2  1  0.26260000  0.32524000  0.12713000  1.0 1.0714826863
Fe  Fe3  1  0.76260000  0.17476000  0.12713000  1.0 1.0714826863
Fe  Fe4  1  0.73740000  0.67476000  0.87287000  1.0 1.0714826863
Fe  Fe5  1  0.93121000  0.71700000  0.74777000  1.0 1.1067443967
Fe  Fe6  1  0.56879000  0.21700000  0.25223000  1.0 1.1067443967
Fe  Fe7  1  0.06879000  0.28300000  0.25223000  1.0 1.1042862217
Fe  Fe8  1  0.43121000  0.78300000  0.74777000  1.0 1.1067443967
Fe  Fe9  1  0.05983000  0.79289000  0.73014000  1.0 0.9131961892
Fe  Fe10  1  0.44017000  0.29289000  0.26986000  1.0 0.9131961892
Fe  Fe11  1  0.94017000  0.20711000  0.26986000  1.0 0.9131961892
Fe  Fe12  1  0.55983000  0.70711000  0.73014000  1.0 0.9131961892
H  H1  1  0.34595000  0.45906000  0.12840000  1.0 0.1209160217
H  H2  1  0.15405000  0.95906000  0.87160000  1.0 0.1209160217
H  H3  1  0.65405000  0.54094000  0.87160000  1.0 0.1209160217
H  H4  1  0.84595000  0.04094000  0.12840000  1.0 0.1209160217
H  H5  1  0.58366000  0.68795000  0.28704000  1.0 0.1298412593
H  H6  1  0.91634000  0.18795000  0.71296000  1.0 0.1298412593
H  H7  1  0.41634000  0.31205000  0.71296000  1.0 0.1298412593
H  H8  1  0.08366000  0.81205000  0.28704000  1.0 0.1298412593
H  H9  1  0.60007000  0.63798000  0.62564000  1.0 0.1298412593
H  H10  1  0.89993000  0.13798000  0.37436000  1.0 0.1298412593
H  H11  1  0.39993000  0.36202000  0.37436000  1.0 0.1298412593
H  H12  1  0.10007000  0.86202000  0.62564000  1.0 0.1298412593
H  H13  1  0.06469000  0.65855000  0.88355000  1.0 0.1298412593
H  H14  1  0.43531000  0.15855000  0.11645000  1.0 0.1298412593
H  H15  1  0.93531000  0.34145000  0.11645000  1.0 0.1298412593
H  H16  1  0.56469000  0.84145000  0.88355000  1.0 0.1298412593
H  H17  1  0.78704000  0.70465000  0.53934000  1.0 0.1298412593
H  H18  1  0.71296000  0.20465000  0.46066000  1.0 0.1298412593
H  H19  1  0.21296000  0.29535000  0.46066000  1.0 0.1298412593
H  H20  1  0.28704000  0.79535000  0.53934000  1.0 0.1298412593
H  H21  1  0.48847000  0.58687000  0.13068000  1.0 0.1209160217
H  H22  1  0.01153000  0.08687000  0.86932000  1.0 0.1209160217
H  H23  1  0.51153000  0.41313000  0.86932000  1.0 0.1209160217
H  H24  1  0.98847000  0.91313000  0.13068000  1.0 0.1209160217
H  H25  1  0.20188000  0.43687000  0.14656000  1.0 0.1209160217
H  H26  1  0.29812000  0.93687000  0.85344000  1.0 0.1209160217
H  H27  1  0.79812000  0.56313000  0.85344000  1.0 0.1209160217
H  H28  1  0.70188000  0.06313000  0.14656000  1.0 0.1209160217
H  H29  1  0.08472000  0.68832000  0.23890000  1.0 0.1209160217
H  H30  1  0.41528000  0.18832000  0.76110000  1.0 0.1209160217
H  H31  1  0.91528000  0.31168000  0.76110000  1.0 0.1209160217
H  H32  1  0.58472000  0.81168000  0.23890000  1.0 0.1209160217
H  H33  1  0.39282000  0.53209000  0.14806000  1.0 0.1209160217
H  H34  1  0.10718000  0.03209000  0.85194000  1.0 0.1209160217
H  H35  1  0.60718000  0.46791000  0.85194000  1.0 0.1209160217
H  H36  1  0.89282000  0.96791000  0.14806000  1.0 0.1209160217
H  H37  1  0.55224000  0.64042000  0.04051000  1.0 0.1209160217
H  H38  1  0.94776000  0.14042000  0.95949000  1.0 0.1209160217
H  H39  1  0.44776000  0.35958000  0.95949000  1.0 0.1209160217
H  H40  1  0.05224000  0.85958000  0.04051000  1.0 0.1209160217
H  H41  1  0.11502000  0.57640000  0.11211000  1.0 0.1209160217
H  H42  1  0.38498000  0.07640000  0.88789000  1.0 0.1209160217
H  H43  1  0.88498000  0.42360000  0.88789000  1.0 0.1209160217
H  H44  1  0.61502000  0.92360000  0.11211000  1.0 0.1209160217
H  H45  1  0.49164000  0.68616000  0.92562000  1.0 0.1298412593
H  H46  1  0.00836000  0.18616000  0.07438000  1.0 0.1298412593
H  H47  1  0.50836000  0.31384000  0.07438000  1.0 0.1298412593
H  H48  1  0.99164000  0.81384000  0.92562000  1.0 0.1298412593
H  H49  1  0.16720000  0.76123000  0.03215000  1.0 0.1106086219
H  H50  1  0.33280000  0.26123000  0.96785000  1.0 0.1106086219
H  H51  1  0.83280000  0.23877000  0.96785000  1.0 0.1106086219
H  H52  1  0.66720000  0.73877000  0.03215000  1.0 0.1106086219
H  H53  1  0.58140000  0.56310000  0.37926000  1.0 0.1209160217
H  H54  1  0.91860000  0.06310000  0.62074000  1.0 0.1209160217
H  H55  1  0.41860000  0.43690000  0.62074000  1.0 0.1209160217
H  H56  1  0.08140000  0.93690000  0.37926000  1.0 0.1209160217
H  H57  1  0.16321000  0.71879000  0.15076000  1.0 0.1209160217
H  H58  1  0.33679000  0.21879000  0.84924000  1.0 0.1209160217
H  H59  1  0.83679000  0.28121000  0.84924000  1.0 0.1209160217
H  H60  1  0.66321000  0.78121000  0.15076000  1.0 0.1209160217
H  H61  1  0.19758000  0.51299000  0.16046000  1.0 0.1209160217
H  H62  1  0.30242000  0.01299000  0.83954000  1.0 0.1209160217
H  H63  1  0.80242000  0.48701000  0.83954000  1.0 0.1209160217
H  H64  1  0.69758000  0.98701000  0.16046000  1.0 0.1209160217
H  H65  1  0.95354000  0.64436000  0.53066000  1.0 0.1209160217
H  H66  1  0.54646000  0.14436000  0.46934000  1.0 0.1209160217
H  H67  1  0.04646000  0.35564000  0.46934000  1.0 0.1209160217
H  H68  1  0.45354000  0.85564000  0.53066000  1.0 0.1209160217
H  H69  1  0.54372000  0.61053000  0.48957000  1.0 0.1298412593
H  H70  1  0.95628000  0.11053000  0.51043000  1.0 0.1298412593
H  H71  1  0.45628000  0.38947000  0.51043000  1.0 0.1298412593
H  H72  1  0.04372000  0.88947000  0.48957000  1.0 0.1298412593
H  H73  1  0.07048000  0.56868000  0.34652000  1.0 0.1209160217
H  H74  1  0.42952000  0.06868000  0.65348000  1.0 0.1209160217
H  H75  1  0.92952000  0.43132000  0.65348000  1.0 0.1209160217
H  H76  1  0.57048000  0.93132000  0.34652000  1.0 0.1209160217
H  H77  1  0.05996000  0.61617000  0.00024000  1.0 0.1209160217
H  H78  1  0.44004000  0.11617000  0.99976000  1.0 0.1209160217
H  H79  1  0.94004000  0.38383000  0.99976000  1.0 0.1209160217
H  H80  1  0.55996000  0.88383000  0.00024000  1.0 0.1209160217
H  H81  1  0.43978000  0.71585000  0.19146000  1.0 0.1106086219
H  H82  1  0.06022000  0.21585000  0.80854000  1.0 0.1106086219
H  H83  1  0.56022000  0.28415000  0.80854000  1.0 0.1106086219
H  H84  1  0.93978000  0.78415000  0.19146000  1.0 0.1106086219
H  H85  1  0.12523000  0.74085000  0.50163000  1.0 0.1298412593
H  H86  1  0.37477000  0.24085000  0.49837000  1.0 0.1298412593
H  H87  1  0.87477000  0.25915000  0.49837000  1.0 0.1298412593
H  H88  1  0.62523000  0.75915000  0.50163000  1.0 0.1298412593
H  H89  1  0.36986000  0.75839000  0.07465000  1.0 0.1209160217
H  H90  1  0.13014000  0.25839000  0.92535000  1.0 0.1209160217
H  H91  1  0.63014000  0.24161000  0.92535000  1.0 0.1209160217
H  H92  1  0.86986000  0.74161000  0.07465000  1.0 0.1209160217
H  H93  1  0.00807000  0.42383000  0.27109000  1.0 0.1372030675
H  H94  1  0.49193000  0.92383000  0.72891000  1.0 0.1372030675
H  H95  1  0.99193000  0.57617000  0.72891000  1.0 0.1372030675
H  H96  1  0.50807000  0.07617000  0.27109000  1.0 0.1372030675
H  H97  1  0.97556000  0.60895000  0.41008000  1.0 0.1209160217
H  H98  1  0.52444000  0.10895000  0.58992000  1.0 0.1209160217
H  H99  1  0.02444000  0.39105000  0.58992000  1.0 0.1209160217
H  H100  1  0.47556000  0.89105000  0.41008000  1.0 0.1209160217
H  H101  1  0.14417000  0.70622000  0.37922000  1.0 0.1209160217
H  H102  1  0.35583000  0.20622000  0.62078000  1.0 0.1209160217
H  H103  1  0.85583000  0.29378000  0.62078000  1.0 0.1209160217
H  H104  1  0.64417000  0.79378000  0.37922000  1.0 0.1209160217
H  H105  1  0.60690000  0.49266000  0.32310000  1.0 0.1298412593
H  H106  1  0.89310000  0.99266000  0.67690000  1.0 0.1298412593
H  H107  1  0.39310000  0.50734000  0.67690000  1.0 0.1298412593
H  H108  1  0.10690000  0.00734000  0.32310000  1.0 0.1298412593
H  H109  1  0.00322000  0.50016000  0.28484000  1.0 0.1209160217
H  H110  1  0.49678000  0.00016000  0.71516000  1.0 0.1209160217
H  H111  1  0.99678000  0.49984000  0.71516000  1.0 0.1209160217
H  H112  1  0.50322000  0.99984000  0.28484000  1.0 0.1209160217
H  H113  1  0.55967000  0.41952000  0.30258000  1.0 0.1372030675
H  H114  1  0.94033000  0.91952000  0.69742000  1.0 0.1372030675
H  H115  1  0.44033000  0.58048000  0.69742000  1.0 0.1372030675
H  H116  1  0.05967000  0.08048000  0.30258000  1.0 0.1372030675
H  H117  1  0.72401000  0.68082000  0.40337000  1.0 0.1209160217
H  H118  1  0.77599000  0.18082000  0.59663000  1.0 0.1209160217
H  H119  1  0.27599000  0.31918000  0.59663000  1.0 0.1209160217
H  H120  1  0.22401000  0.81918000  0.40337000  1.0 0.1209160217
H  H121  1  0.81546000  0.79181000  0.62556000  1.0 0.072327352
H  H122  1  0.68454000  0.29181000  0.37444000  1.0 0.072327352
H  H123  1  0.18454000  0.20819000  0.37444000  1.0 0.072327352
H  H124  1  0.31546000  0.70819000  0.62556000  1.0 0.072327352
H  H125  1  0.89452000  0.77712000  0.58429000  1.0 0.099774678
H  H126  1  0.60548000  0.27712000  0.41571000  1.0 0.099774678
H  H127  1  0.10548000  0.22288000  0.41571000  1.0 0.099774678
H  H128  1  0.39452000  0.72288000  0.58429000  1.0 0.099774678
H  H129  1  0.89212000  0.82624000  0.62097000  1.0 0.1209160217
H  H130  1  0.60788000  0.32624000  0.37903000  1.0 0.1209160217
H  H131  1  0.10788000  0.17376000  0.37903000  1.0 0.1209160217
H  H132  1  0.39212000  0.67376000  0.62097000  1.0 0.1209160217
H  H133  1  0.81262000  0.81363000  0.23936000  1.0 0.0915283198
H  H134  1  0.68738000  0.31363000  0.76064000  1.0 0.0915283198
H  H135  1  0.18738000  0.18637000  0.76064000  1.0 0.0915283198
H  H136  1  0.31262000  0.68637000  0.23936000  1.0 0.0915283198
H  H137  1  0.79414000  0.88135000  0.30335000  1.0 0.1106086219
H  H138  1  0.70586000  0.38135000  0.69665000  1.0 0.1106086219
H  H139  1  0.20586000  0.11865000  0.69665000  1.0 0.1106086219
H  H140  1  0.29414000  0.61865000  0.30335000  1.0 0.1106086219
H  H141  1  0.86777000  0.75372000  0.46798000  1.0 0.1298412593
H  H142  1  0.63223000  0.25372000  0.53202000  1.0 0.1298412593
H  H143  1  0.13223000  0.24628000  0.53202000  1.0 0.1298412593
H  H144  1  0.36777000  0.74628000  0.46798000  1.0 0.1298412593
H  H145  1  0.87784000  0.91337000  0.50117000  1.0 0.1298412593
H  H146  1  0.62216000  0.41337000  0.49883000  1.0 0.1298412593
H  H147  1  0.12216000  0.08663000  0.49883000  1.0 0.1298412593
H  H148  1  0.37784000  0.58663000  0.50117000  1.0 0.1298412593
H  H149  1  0.77287000  0.91832000  0.46992000  1.0 0.1298412593
H  H150  1  0.72713000  0.41832000  0.53008000  1.0 0.1298412593
H  H151  1  0.22713000  0.08168000  0.53008000  1.0 0.1298412593
H  H152  1  0.27287000  0.58168000  0.46992000  1.0 0.1298412593
H  H153  1  0.73003000  0.80498000  0.72367000  1.0 0.1106086219
H  H154  1  0.76997000  0.30498000  0.27633000  1.0 0.1106086219
H  H155  1  0.26997000  0.19502000  0.27633000  1.0 0.1106086219
H  H156  1  0.23003000  0.69502000  0.72367000  1.0 0.1106086219
H  H157  1  0.70526000  0.84206000  0.78452000  1.0 0.1209160217
H  H158  1  0.79474000  0.34206000  0.21548000  1.0 0.1209160217
H  H159  1  0.29474000  0.15794000  0.21548000  1.0 0.1209160217
H  H160  1  0.20526000  0.65794000  0.78452000  1.0 0.1209160217
H  H161  1  0.75368000  0.79747000  0.82348000  1.0 0.099774678
H  H162  1  0.74632000  0.29747000  0.17652000  1.0 0.099774678
H  H163  1  0.24632000  0.20253000  0.17652000  1.0 0.099774678
H  H164  1  0.25368000  0.70253000  0.82348000  1.0 0.099774678
H  H165  1  0.86693000  0.82123000  0.77465000  1.0 0.1106086219
H  H166  1  0.63307000  0.32123000  0.22535000  1.0 0.1106086219
H  H167  1  0.13307000  0.17877000  0.22535000  1.0 0.1106086219
H  H168  1  0.36693000  0.67877000  0.77465000  1.0 0.1106086219
H  H169  1  0.78218000  0.88676000  0.26201000  1.0 0.1841302346
H  H170  1  0.71782000  0.38676000  0.73799000  1.0 0.1841302346
H  H171  1  0.21782000  0.11324000  0.73799000  1.0 0.1841302346
H  H172  1  0.28218000  0.61324000  0.26201000  1.0 0.1841302346
H  H173  1  0.89212000  0.85473000  0.39674000  1.0 0.099774678
H  H174  1  0.60788000  0.35473000  0.60326000  1.0 0.099774678
H  H175  1  0.10788000  0.14527000  0.60326000  1.0 0.099774678
H  H176  1  0.39212000  0.64527000  0.39674000  1.0 0.099774678
H  H177  1  0.82106000  0.88823000  0.41848000  1.0 0.0915283198
H  H178  1  0.67894000  0.38823000  0.58152000  1.0 0.0915283198
H  H179  1  0.17894000  0.11177000  0.58152000  1.0 0.0915283198
H  H180  1  0.32106000  0.61177000  0.41848000  1.0 0.0915283198
H  H181  1  0.78953000  0.84385000  0.36636000  1.0 0.0915283198
H  H182  1  0.71047000  0.34385000  0.63364000  1.0 0.0915283198
H  H183  1  0.21047000  0.15615000  0.63364000  1.0 0.0915283198
H  H184  1  0.28953000  0.65615000  0.36636000  1.0 0.0915283198
H  H185  1  0.82694000  0.79115000  0.75744000  1.0 0.0915283198
H  H186  1  0.67306000  0.29115000  0.24256000  1.0 0.0915283198
H  H187  1  0.17306000  0.20885000  0.24256000  1.0 0.0915283198
H  H188  1  0.32694000  0.70885000  0.75744000  1.0 0.0915283198
H  H189  1  0.82298000  0.81523000  0.66920000  1.0 0.072327352
H  H190  1  0.67702000  0.31523000  0.33080000  1.0 0.072327352
H  H191  1  0.17702000  0.18477000  0.33080000  1.0 0.072327352
H  H192  1  0.32298000  0.68477000  0.66920000  1.0 0.072327352
H  H193  1  0.88669000  0.83384000  0.75335000  1.0 0.1460866387
H  H194  1  0.61331000  0.33384000  0.24665000  1.0 0.1460866387
H  H195  1  0.11331000  0.16616000  0.24665000  1.0 0.1460866387
H  H196  1  0.38669000  0.66616000  0.75335000  1.0 0.1460866387
H  H197  1  0.86401000  0.80351000  0.59425000  1.0 0.0915283198
H  H198  1  0.63599000  0.30351000  0.40575000  1.0 0.0915283198
H  H199  1  0.13599000  0.19649000  0.40575000  1.0 0.0915283198
H  H200  1  0.36401000  0.69649000  0.59425000  1.0 0.0915283198
H  H201  1  0.80967000  0.71919000  0.20478000  1.0 0.1209160217
H  H202  1  0.69033000  0.21919000  0.79522000  1.0 0.1209160217
H  H203  1  0.19033000  0.28081000  0.79522000  1.0 0.1209160217
H  H204  1  0.30967000  0.78081000  0.20478000  1.0 0.1209160217
H  H205  1  0.75029000  0.76290000  0.27448000  1.0 0.2774241399
H  H206  1  0.74971000  0.26290000  0.72552000  1.0 0.2774241399
H  H207  1  0.24971000  0.23710000  0.72552000  1.0 0.2774241399
H  H208  1  0.25029000  0.73710000  0.27448000  1.0 0.2774241399
H  H209  1  0.71663000  0.69446000  0.18253000  1.0 0.1209160217
H  H210  1  0.78337000  0.19446000  0.81747000  1.0 0.1209160217
H  H211  1  0.28337000  0.30554000  0.81747000  1.0 0.1209160217
H  H212  1  0.21663000  0.80554000  0.18253000  1.0 0.1209160217
H  H213  1  0.78975000  0.68000000  0.26393000  1.0 0.1209160217
H  H214  1  0.71025000  0.18000000  0.73607000  1.0 0.1209160217
H  H215  1  0.21025000  0.32000000  0.73607000  1.0 0.1209160217
H  H216  1  0.28975000  0.82000000  0.26393000  1.0 0.1209160217
C  C1  1  0.38040000  0.75475000  0.91610000  1.0 0.5893638413
C  C2  1  0.11960000  0.25475000  0.08390000  1.0 0.5893638413
C  C3  1  0.61960000  0.24525000  0.08390000  1.0 0.5893638413
C  C4  1  0.88040000  0.74525000  0.91610000  1.0 0.5893638413
C  C5  1  0.11280000  0.71436000  0.94570000  1.0 -0.0374327468
C  C6  1  0.38720000  0.21436000  0.05430000  1.0 -0.0297073829
C  C7  1  0.88720000  0.28564000  0.05430000  1.0 -0.0297073829
C  C8  1  0.61280000  0.78564000  0.94570000  1.0 -0.0297073829
C  C9  1  0.73500000  0.69323000  0.68060000  1.0 0.5975879933
C  C10  1  0.76500000  0.19323000  0.31940000  1.0 0.5975879933
C  C11  1  0.26500000  0.30677000  0.31940000  1.0 0.5975879933
C  C12  1  0.23500000  0.80677000  0.68060000  1.0 0.5975879933
C  C13  1  0.10990000  0.37352000  0.19520000  1.0 0.5975879933
C  C14  1  0.39010000  0.87352000  0.80480000  1.0 0.5975879933
C  C15  1  0.89010000  0.62648000  0.80480000  1.0 0.5975879933
C  C16  1  0.60990000  0.12648000  0.19520000  1.0 0.5975879933
C  C17  1  0.52910000  0.64233000  0.19840000  1.0 0.0915283198
C  C18  1  0.97090000  0.14233000  0.80160000  1.0 0.0915283198
C  C19  1  0.47090000  0.35767000  0.80160000  1.0 0.0915283198
C  C20  1  0.02910000  0.85767000  0.19840000  1.0 0.0915283198
C  C21  1  0.10460000  0.42236000  0.20610000  1.0 -0.0374327468
C  C22  1  0.39540000  0.92236000  0.79390000  1.0 -0.0374327468
C  C23  1  0.89540000  0.57764000  0.79390000  1.0 -0.0374327468
C  C24  1  0.60460000  0.07764000  0.20610000  1.0 -0.0374327468
C  C25  1  0.62760000  0.64390000  0.43340000  1.0 0.0801219608
C  C26  1  0.87240000  0.14390000  0.56660000  1.0 0.0801219608
C  C27  1  0.37240000  0.35610000  0.56660000  1.0 0.0801219608
C  C28  1  0.12760000  0.85610000  0.43340000  1.0 0.0801219608
C  C29  1  0.44950000  0.43182000  0.21350000  1.0 -0.0374327468
C  C30  1  0.05050000  0.93182000  0.78650000  1.0 -0.0374327468
C  C31  1  0.55050000  0.56818000  0.78650000  1.0 -0.0374327468
C  C32  1  0.94950000  0.06818000  0.21350000  1.0 -0.0374327468
C  C33  1  0.10170000  0.74213000  0.86970000  1.0 0.5893638413
C  C34  1  0.39830000  0.24213000  0.13030000  1.0 0.5893638413
C  C35  1  0.89830000  0.25787000  0.13030000  1.0 0.5893638413
C  C36  1  0.60170000  0.75787000  0.86970000  1.0 0.5893638413
C  C37  1  0.41820000  0.38523000  0.20160000  1.0 0.5893638413
C  C38  1  0.08180000  0.88523000  0.79840000  1.0 0.5893638413
C  C39  1  0.58180000  0.61477000  0.79840000  1.0 0.5893638413
C  C40  1  0.91820000  0.11477000  0.20160000  1.0 0.5893638413
C  C41  1  0.39920000  0.46585000  0.16790000  1.0 -0.0985189441
C  C42  1  0.10080000  0.96585000  0.83210000  1.0 -0.0985189441
C  C43  1  0.60080000  0.53415000  0.83210000  1.0 -0.0985189441
C  C44  1  0.89920000  0.03415000  0.16790000  1.0 -0.0985189441
C  C45  1  0.56920000  0.65743000  0.27830000  1.0 -0.1998716538
C  C46  1  0.93080000  0.15743000  0.72170000  1.0 -0.1998716538
C  C47  1  0.43080000  0.34257000  0.72170000  1.0 -0.1998716538
C  C48  1  0.06920000  0.84257000  0.27830000  1.0 -0.1998716538
C  C49  1  0.62580000  0.64651000  0.58060000  1.0 -0.1114370991
C  C50  1  0.87420000  0.14651000  0.41940000  1.0 -0.1114370991
C  C51  1  0.37420000  0.35349000  0.41940000  1.0 -0.1114370991
C  C52  1  0.12580000  0.85349000  0.58060000  1.0 -0.1114370991
C  C53  1  0.69790000  0.67506000  0.59530000  1.0 -0.0374327468
C  C54  1  0.80210000  0.17506000  0.40470000  1.0 -0.0374327468
C  C55  1  0.30210000  0.32494000  0.40470000  1.0 -0.0374327468
C  C56  1  0.19790000  0.82494000  0.59530000  1.0 -0.0374327468
C  C57  1  0.58860000  0.62752000  0.34680000  1.0 0.0915283198
C  C58  1  0.91140000  0.12752000  0.65320000  1.0 0.0915283198
C  C59  1  0.41140000  0.37248000  0.65320000  1.0 0.099774678
C  C60  1  0.08860000  0.87248000  0.34680000  1.0 0.099774678
C  C61  1  0.08350000  0.67117000  0.93810000  1.0 -0.0808001869
C  C62  1  0.41650000  0.17117000  0.06190000  1.0 -0.0808001869
C  C63  1  0.91650000  0.32883000  0.06190000  1.0 -0.0808001869
C  C64  1  0.58350000  0.82883000  0.93810000  1.0 -0.0808001869
C  C65  1  0.73590000  0.68657000  0.52910000  1.0 -0.0985189441
C  C66  1  0.76410000  0.18657000  0.47090000  1.0 -0.0985189441
C  C67  1  0.26410000  0.31343000  0.47090000  1.0 -0.0985189441
C  C68  1  0.23590000  0.81343000  0.52910000  1.0 -0.0985189441
C  C69  1  0.51240000  0.59742000  0.18610000  1.0 -0.1998716538
C  C70  1  0.98760000  0.09742000  0.81390000  1.0 -0.1998716538
C  C71  1  0.48760000  0.40258000  0.81390000  1.0 -0.1998716538
C  C72  1  0.01240000  0.90258000  0.18610000  1.0 -0.1998716538
C  C73  1  0.16090000  0.44975000  0.17440000  1.0 -0.0899223816
C  C74  1  0.33910000  0.94975000  0.82560000  1.0 -0.0899223816
C  C75  1  0.83910000  0.55025000  0.82560000  1.0 -0.0899223816
C  C76  1  0.66090000  0.05025000  0.17440000  1.0 -0.0899223816
C  C77  1  0.09830000  0.51497000  0.22330000  1.0 0.0801219608
C  C78  1  0.40170000  0.01497000  0.77670000  1.0 0.0801219608
C  C79  1  0.90170000  0.48503000  0.77670000  1.0 0.0801219608
C  C80  1  0.59830000  0.98503000  0.22330000  1.0 0.0801219608
C  C81  1  0.08660000  0.65687000  0.23580000  1.0 -0.2117960007
C  C82  1  0.41340000  0.15687000  0.76420000  1.0 -0.2117960007
C  C83  1  0.91340000  0.34313000  0.76420000  1.0 -0.2117960007
C  C84  1  0.58660000  0.84313000  0.23580000  1.0 -0.2117960007
C  C85  1  0.42690000  0.50929000  0.18020000  1.0 -0.1492137035
C  C86  1  0.07310000  0.00929000  0.81980000  1.0 -0.1492137035
C  C87  1  0.57310000  0.49071000  0.81980000  1.0 -0.1492137035
C  C88  1  0.92690000  0.99071000  0.18020000  1.0 -0.1492137035
C  C89  1  0.10840000  0.66349000  0.08900000  1.0 0.0801219608
C  C90  1  0.39160000  0.16349000  0.91100000  1.0 0.0801219608
C  C91  1  0.89160000  0.33651000  0.91100000  1.0 0.0801219608
C  C92  1  0.60840000  0.83651000  0.08900000  1.0 0.0801219608
C  C93  1  0.50330000  0.52046000  0.23830000  1.0 0.072327352
C  C94  1  0.99670000  0.02046000  0.76170000  1.0 0.072327352
C  C95  1  0.49670000  0.47954000  0.76170000  1.0 0.072327352
C  C96  1  0.00330000  0.97954000  0.23830000  1.0 0.072327352
C  C97  1  0.51590000  0.66472000  0.04760000  1.0 -0.1390108618
C  C98  1  0.98410000  0.16472000  0.95240000  1.0 -0.1390108618
C  C99  1  0.48410000  0.33528000  0.95240000  1.0 -0.1390108618
C  C100  1  0.01590000  0.83528000  0.04760000  1.0 -0.1390108618
C  C101  1  0.10440000  0.59050000  0.16090000  1.0 -0.2200117429
C  C102  1  0.39560000  0.09050000  0.83910000  1.0 -0.2200117429
C  C103  1  0.89560000  0.40950000  0.83910000  1.0 -0.2200117429
C  C104  1  0.60440000  0.90950000  0.16090000  1.0 -0.2200117429
C  C105  1  0.52970000  0.56730000  0.25240000  1.0 0.0915283198
C  C106  1  0.97030000  0.06730000  0.74760000  1.0 0.0915283198
C  C107  1  0.47030000  0.43270000  0.74760000  1.0 0.0915283198
C  C108  1  0.02970000  0.93270000  0.25240000  1.0 0.0915283198
C  C109  1  0.10030000  0.63706000  0.16290000  1.0 0.0801219608
C  C110  1  0.39970000  0.13706000  0.83710000  1.0 0.0801219608
C  C111  1  0.89970000  0.36294000  0.83710000  1.0 0.0801219608
C  C112  1  0.60030000  0.86294000  0.16290000  1.0 0.0801219608
C  C113  1  0.42380000  0.72633000  0.98950000  1.0 -0.0297073829
C  C114  1  0.07620000  0.22633000  0.01050000  1.0 -0.0297073829
C  C115  1  0.57620000  0.27367000  0.01050000  1.0 -0.0297073829
C  C116  1  0.92380000  0.77367000  0.98950000  1.0 -0.0297073829
C  C117  1  0.47910000  0.69152000  0.97910000  1.0 -0.0899223816
C  C118  1  0.02090000  0.19152000  0.02090000  1.0 -0.0899223816
C  C119  1  0.52090000  0.30848000  0.02090000  1.0 -0.0899223816
C  C120  1  0.97910000  0.80848000  0.97910000  1.0 -0.0899223816
C  C121  1  0.14410000  0.73194000  0.02570000  1.0 -0.0899223816
C  C122  1  0.35590000  0.23194000  0.97430000  1.0 -0.0899223816
C  C123  1  0.85590000  0.26806000  0.97430000  1.0 -0.0899223816
C  C124  1  0.64410000  0.76806000  0.02570000  1.0 -0.0899223816
C  C125  1  0.56860000  0.58320000  0.33320000  1.0 -0.1998716538
C  C126  1  0.93140000  0.08320000  0.66680000  1.0 -0.1998716538
C  C127  1  0.43140000  0.41680000  0.66680000  1.0 -0.1998716538
C  C128  1  0.06860000  0.91680000  0.33320000  1.0 -0.1998716538
C  C129  1  0.07560000  0.63165000  0.30470000  1.0 0.0915283198
C  C130  1  0.42440000  0.13165000  0.69530000  1.0 0.0915283198
C  C131  1  0.92440000  0.36835000  0.69530000  1.0 0.0915283198
C  C132  1  0.57560000  0.86835000  0.30470000  1.0 0.0915283198
C  C133  1  0.49970000  0.67334000  0.12670000  1.0 0.072327352
C  C134  1  0.00030000  0.17334000  0.87330000  1.0 0.072327352
C  C135  1  0.50030000  0.32666000  0.87330000  1.0 0.072327352
C  C136  1  0.99970000  0.82666000  0.12670000  1.0 0.072327352
C  C137  1  0.14170000  0.70650000  0.09630000  1.0 -0.1578988638
C  C138  1  0.35830000  0.20650000  0.90370000  1.0 -0.1578988638
C  C139  1  0.85830000  0.29350000  0.90370000  1.0 -0.1578988638
C  C140  1  0.64170000  0.79350000  0.09630000  1.0 -0.1578988638
C  C141  1  0.03730000  0.69608000  0.52850000  1.0 -0.0297073829
C  C142  1  0.46270000  0.19608000  0.47150000  1.0 -0.0297073829
C  C143  1  0.96270000  0.30392000  0.47150000  1.0 -0.0297073829
C  C144  1  0.53730000  0.80392000  0.52850000  1.0 -0.0297073829
C  C145  1  0.02410000  0.71842000  0.60510000  1.0 0.5595711748
C  C146  1  0.47590000  0.21842000  0.39490000  1.0 0.5595711748
C  C147  1  0.97590000  0.28158000  0.39490000  1.0 0.5595711748
C  C148  1  0.52410000  0.78158000  0.60510000  1.0 0.5595711748
C  C149  1  0.15840000  0.49499000  0.18260000  1.0 -0.1492137035
C  C150  1  0.34160000  0.99499000  0.81740000  1.0 -0.1390108618
C  C151  1  0.84160000  0.50501000  0.81740000  1.0 -0.1390108618
C  C152  1  0.65840000  0.00501000  0.18260000  1.0 -0.1492137035
C  C153  1  0.99270000  0.65685000  0.50030000  1.0 -0.0808001869
C  C154  1  0.50730000  0.15685000  0.49970000  1.0 -0.0808001869
C  C155  1  0.00730000  0.34315000  0.49970000  1.0 -0.0808001869
C  C156  1  0.49270000  0.84315000  0.50030000  1.0 -0.0808001869
C  C157  1  0.06150000  0.65422000  0.38210000  1.0 0.0801219608
C  C158  1  0.43850000  0.15422000  0.61790000  1.0 0.0801219608
C  C159  1  0.93850000  0.34578000  0.61790000  1.0 0.0801219608
C  C160  1  0.56150000  0.84578000  0.38210000  1.0 0.0801219608
C  C161  1  0.59180000  0.63062000  0.49960000  1.0 -0.1390108618
C  C162  1  0.90820000  0.13062000  0.50040000  1.0 -0.1390108618
C  C163  1  0.40820000  0.36938000  0.50040000  1.0 -0.1390108618
C  C164  1  0.09180000  0.86938000  0.49960000  1.0 -0.1390108618
C  C165  1  0.07860000  0.58585000  0.30010000  1.0 -0.2117960007
C  C166  1  0.42140000  0.08585000  0.69990000  1.0 -0.2117960007
C  C167  1  0.92140000  0.41415000  0.69990000  1.0 -0.2117960007
C  C168  1  0.57860000  0.91415000  0.30010000  1.0 -0.2117960007
C  C169  1  0.08070000  0.64586000  0.00750000  1.0 -0.13041907
C  C170  1  0.41930000  0.14586000  0.99250000  1.0 -0.13041907
C  C171  1  0.91930000  0.35414000  0.99250000  1.0 -0.13041907
C  C172  1  0.58070000  0.85414000  0.00750000  1.0 -0.13041907
C  C173  1  0.44820000  0.70888000  0.13710000  1.0 -0.1492137035
C  C174  1  0.05180000  0.20888000  0.86290000  1.0 -0.1492137035
C  C175  1  0.55180000  0.29112000  0.86290000  1.0 -0.1492137035
C  C176  1  0.94820000  0.79112000  0.13710000  1.0 -0.1492137035
C  C177  1  0.09430000  0.71425000  0.48290000  1.0 -0.1187439208
C  C178  1  0.40570000  0.21425000  0.51710000  1.0 -0.1187439208
C  C179  1  0.90570000  0.28575000  0.51710000  1.0 -0.1187439208
C  C180  1  0.59430000  0.78575000  0.48290000  1.0 -0.1187439208
C  C181  1  0.09330000  0.56417000  0.22860000  1.0 0.0915283198
C  C182  1  0.40670000  0.06417000  0.77140000  1.0 0.0915283198
C  C183  1  0.90670000  0.43583000  0.77140000  1.0 0.0915283198
C  C184  1  0.59330000  0.93583000  0.22860000  1.0 0.0915283198
C  C185  1  0.40800000  0.73485000  0.06780000  1.0 -0.0985189441
C  C186  1  0.09200000  0.23485000  0.93220000  1.0 -0.0985189441
C  C187  1  0.59200000  0.26515000  0.93220000  1.0 -0.0985189441
C  C188  1  0.90800000  0.76515000  0.06780000  1.0 -0.0985189441
C  C189  1  0.04630000  0.44193000  0.24790000  1.0 -0.0985189441
C  C190  1  0.45370000  0.94193000  0.75210000  1.0 -0.0985189441
C  C191  1  0.95370000  0.55807000  0.75210000  1.0 -0.0985189441
C  C192  1  0.54630000  0.05807000  0.24790000  1.0 -0.0985189441
C  C193  1  0.00540000  0.63594000  0.42820000  1.0 -0.1492137035
C  C194  1  0.49460000  0.13594000  0.57180000  1.0 -0.1492137035
C  C195  1  0.99460000  0.36406000  0.57180000  1.0 -0.1492137035
C  C196  1  0.50540000  0.86406000  0.42820000  1.0 -0.1492137035
C  C197  1  0.10570000  0.69351000  0.41020000  1.0 -0.1880890672
C  C198  1  0.39430000  0.19351000  0.58980000  1.0 -0.1880890672
C  C199  1  0.89430000  0.30649000  0.58980000  1.0 -0.1880890672
C  C200  1  0.60570000  0.80649000  0.41020000  1.0 -0.1880890672
C  C201  1  0.55360000  0.48603000  0.28360000  1.0 -0.13041907
C  C202  1  0.94640000  0.98603000  0.71640000  1.0 -0.13041907
C  C203  1  0.44640000  0.51397000  0.71640000  1.0 -0.13041907
C  C204  1  0.05360000  0.01397000  0.28360000  1.0 -0.13041907
C  C205  1  0.04360000  0.48742000  0.25610000  1.0 -0.1390108618
C  C206  1  0.45640000  0.98742000  0.74390000  1.0 -0.1390108618
C  C207  1  0.95640000  0.51258000  0.74390000  1.0 -0.1390108618
C  C208  1  0.54360000  0.01258000  0.25610000  1.0 -0.1390108618
C  C209  1  0.52560000  0.44248000  0.27090000  1.0 -0.0808001869
C  C210  1  0.97440000  0.94248000  0.72910000  1.0 -0.0808001869
C  C211  1  0.47440000  0.55752000  0.72910000  1.0 -0.0808001869
C  C212  1  0.02560000  0.05752000  0.27090000  1.0 -0.0808001869
C  C213  1  0.69940000  0.67173000  0.44870000  1.0 -0.1390108618
C  C214  1  0.80060000  0.17173000  0.55130000  1.0 -0.1390108618
C  C215  1  0.30060000  0.32827000  0.55130000  1.0 -0.1390108618
C  C216  1  0.19940000  0.82827000  0.44870000  1.0 -0.1390108618
C  C217  1  0.87850000  0.79500000  0.62870000  1.0 -0.0985189441
C  C218  1  0.62150000  0.29500000  0.37130000  1.0 -0.0985189441
C  C219  1  0.12150000  0.20500000  0.37130000  1.0 -0.0985189441
C  C220  1  0.37850000  0.70500000  0.62870000  1.0 -0.0985189441
C  C221  1  0.82010000  0.81520000  0.29880000  1.0 -0.28300876
C  C222  1  0.67990000  0.31520000  0.70120000  1.0 -0.28300876
C  C223  1  0.17990000  0.18480000  0.70120000  1.0 -0.28300876
C  C224  1  0.32010000  0.68480000  0.29880000  1.0 -0.28300876
C  C225  1  0.80910000  0.85540000  0.33680000  1.0 0.0361634976
C  C226  1  0.69090000  0.35540000  0.66320000  1.0 0.0361634976
C  C227  1  0.19090000  0.14460000  0.66320000  1.0 0.034802867
C  C228  1  0.30910000  0.64460000  0.33680000  1.0 0.034802867
C  C229  1  0.82000000  0.85780000  0.42370000  1.0 -0.0985189441
C  C230  1  0.68000000  0.35780000  0.57630000  1.0 -0.0985189441
C  C231  1  0.18000000  0.14220000  0.57630000  1.0 -0.0985189441
C  C232  1  0.32000000  0.64220000  0.42370000  1.0 -0.0985189441
C  C233  1  0.84180000  0.81990000  0.47260000  1.0 -0.0223581326
C  C234  1  0.65820000  0.31990000  0.52740000  1.0 -0.0223581326
C  C235  1  0.15820000  0.18010000  0.52740000  1.0 -0.0223581326
C  C236  1  0.34180000  0.68010000  0.47260000  1.0 -0.0223581326
C  C237  1  0.85280000  0.77960000  0.43460000  1.0 -0.3494116982
C  C238  1  0.64720000  0.27960000  0.56540000  1.0 -0.3494116982
C  C239  1  0.14720000  0.22040000  0.56540000  1.0 -0.3494116982
C  C240  1  0.35280000  0.72040000  0.43460000  1.0 -0.3494116982
C  C241  1  0.84190000  0.77730000  0.34770000  1.0 -0.0297073829
C  C242  1  0.65810000  0.27730000  0.65230000  1.0 -0.0297073829
C  C243  1  0.15810000  0.22270000  0.65230000  1.0 -0.0297073829
C  C244  1  0.34190000  0.72270000  0.34770000  1.0 -0.0297073829
C  C245  1  0.80900000  0.87270000  0.57620000  1.0 0.2220184337
C  C246  1  0.69100000  0.37270000  0.42380000  1.0 0.2220184337
C  C247  1  0.19100000  0.12730000  0.42380000  1.0 0.2220184337
C  C248  1  0.30900000  0.62730000  0.57620000  1.0 0.2220184337
C  C249  1  0.82100000  0.89710000  0.49070000  1.0 -0.28300876
C  C250  1  0.67900000  0.39710000  0.50930000  1.0 -0.28300876
C  C251  1  0.17900000  0.10290000  0.50930000  1.0 -0.28300876
C  C252  1  0.32100000  0.60290000  0.49070000  1.0 -0.28300876
C  C253  1  0.74870000  0.81960000  0.77860000  1.0 -0.2289610338
C  C254  1  0.75130000  0.31960000  0.22140000  1.0 -0.2289610338
C  C255  1  0.25130000  0.18040000  0.22140000  1.0 -0.2289610338
C  C256  1  0.24870000  0.68040000  0.77860000  1.0 -0.2289610338
C  C257  1  0.83400000  0.86760000  0.37630000  1.0 -0.0985189441
C  C258  1  0.66600000  0.36760000  0.62370000  1.0 -0.0985189441
C  C259  1  0.16600000  0.13240000  0.62370000  1.0 -0.0985189441
C  C260  1  0.33400000  0.63240000  0.37630000  1.0 -0.0985189441
C  C261  1  0.86100000  0.80700000  0.72300000  1.0 -0.0612353665
C  C262  1  0.63900000  0.30700000  0.27700000  1.0 -0.0612353665
C  C263  1  0.13900000  0.19300000  0.27700000  1.0 -0.0612353665
C  C264  1  0.36100000  0.69300000  0.72300000  1.0 -0.0612353665
C  C265  1  0.76420000  0.70510000  0.22840000  1.0 -0.1390108618
C  C266  1  0.73580000  0.20510000  0.77160000  1.0 -0.1390108618
C  C267  1  0.23580000  0.29490000  0.77160000  1.0 -0.1390108618
C  C268  1  0.26420000  0.79490000  0.22840000  1.0 -0.1390108618
N  N1  1  0.84510000  0.82410000  0.55620000  1.0 -0.13041907
N  N2  1  0.65490000  0.32410000  0.44380000  1.0 -0.13041907
N  N3  1  0.15490000  0.17590000  0.44380000  1.0 -0.13041907
N  N4  1  0.34510000  0.67590000  0.55620000  1.0 -0.13041907
Cl  Cl1  1  0.86780000  0.72770000  0.30260000  1.0 0.0577249023
Cl  Cl2  1  0.63220000  0.22770000  0.69740000  1.0 0.0577249023
Cl  Cl3  1  0.13220000  0.27230000  0.69740000  1.0 0.0577249023
Cl  Cl4  1  0.36780000  0.77230000  0.30260000  1.0 0.0577249023
O  O1  1  0.34658000  0.37798000  0.14932000  1.0 -0.5706463476
O  O2  1  0.15342000  0.87798000  0.85068000  1.0 -0.5706463476
O  O3  1  0.65342000  0.62202000  0.85068000  1.0 -0.5706463476
O  O4  1  0.84658000  0.12202000  0.14932000  1.0 -0.5706463476
O  O5  1  0.42170000  0.75986000  0.85900000  1.0 -0.5637337088
O  O6  1  0.07830000  0.25986000  0.14100000  1.0 -0.5637337088
O  O7  1  0.57830000  0.24014000  0.14100000  1.0 -0.5637337088
O  O8  1  0.92170000  0.74014000  0.85900000  1.0 -0.5637337088
O  O9  1  0.06410000  0.34876000  0.23165000  1.0 -0.5540995766
O  O10  1  0.43590000  0.84876000  0.76835000  1.0 -0.5540995766
O  O11  1  0.93590000  0.65124000  0.76835000  1.0 -0.5540995766
O  O12  1  0.56410000  0.15124000  0.23165000  1.0 -0.5540995766
O  O13  1  0.30690000  0.77061000  0.91597000  1.0 -0.5637337088
O  O14  1  0.19310000  0.27061000  0.08403000  1.0 -0.5637337088
O  O15  1  0.69310000  0.22939000  0.08403000  1.0 -0.5637337088
O  O16  1  0.80690000  0.72939000  0.91597000  1.0 -0.5637337088
O  O17  1  0.96840000  0.70080000  0.64146000  1.0 -0.5401313175
O  O18  1  0.53160000  0.20080000  0.35854000  1.0 -0.5401313175
O  O19  1  0.03160000  0.29920000  0.35854000  1.0 -0.5401313175
O  O20  1  0.46840000  0.79920000  0.64146000  1.0 -0.5401313175
O  O21  1  0.15660000  0.35926000  0.14901000  1.0 -0.5706463476
O  O22  1  0.34340000  0.85926000  0.85099000  1.0 -0.5706463476
O  O23  1  0.84340000  0.64074000  0.85099000  1.0 -0.5706463476
O  O24  1  0.65660000  0.14074000  0.14901000  1.0 -0.5706463476
O  O25  1  0.46500000  0.35603000  0.24737000  1.0 -0.5637337088
O  O26  1  0.03500000  0.85603000  0.75263000  1.0 -0.5637337088
O  O27  1  0.53500000  0.64397000  0.75263000  1.0 -0.5637337088
O  O28  1  0.96500000  0.14397000  0.24737000  1.0 -0.5637337088
O  O29  1  0.80640000  0.71333000  0.69225000  1.0 -0.5328505059
O  O30  1  0.69360000  0.21333000  0.30775000  1.0 -0.5328505059
O  O31  1  0.19360000  0.28667000  0.30775000  1.0 -0.5328505059
O  O32  1  0.30640000  0.78667000  0.69225000  1.0 -0.5328505059
O  O33  1  0.06550000  0.75394000  0.62859000  1.0 -0.5401313175
O  O34  1  0.43450000  0.25394000  0.37141000  1.0 -0.5401313175
O  O35  1  0.93450000  0.24606000  0.37141000  1.0 -0.5401313175
O  O36  1  0.56550000  0.74606000  0.62859000  1.0 -0.5401313175
O  O37  1  0.69312000  0.68942000  0.73895000  1.0 -0.5811786373
O  O38  1  0.80688000  0.18942000  0.26105000  1.0 -0.5811786373
O  O39  1  0.30688000  0.31058000  0.26105000  1.0 -0.5811786373
O  O40  1  0.19312000  0.81058000  0.73895000  1.0 -0.5811786373
O  O41  1  0.06570000  0.72501000  0.79689000  1.0 -0.5540995766
O  O42  1  0.43430000  0.22501000  0.20311000  1.0 -0.5540995766
O  O43  1  0.93430000  0.27499000  0.20311000  1.0 -0.5540995766
O  O44  1  0.56570000  0.77499000  0.79689000  1.0 -0.5540995766
O  O45  1  0.12140000  0.78204000  0.87210000  1.0 -0.5401313175
O  O46  1  0.37860000  0.28204000  0.12790000  1.0 -0.5401313175
O  O47  1  0.87860000  0.21796000  0.12790000  1.0 -0.5401313175
O  O48  1  0.62140000  0.71796000  0.87210000  1.0 -0.5401313175
O  O49  1  0.92774000  0.77995000  0.71010000  1.0 -0.3736261298
O  O50  1  0.57226000  0.27995000  0.28990000  1.0 -0.3736261298
O  O51  1  0.07226000  0.22005000  0.28990000  1.0 -0.3736261298
O  O52  1  0.42774000  0.72005000  0.71010000  1.0 -0.3736261298
O  O53  1  0.77900000  0.89270000  0.63960000  1.0 -0.523296686
O  O54  1  0.72100000  0.39270000  0.36040000  1.0 -0.523296686
O  O55  1  0.22100000  0.10730000  0.36040000  1.0 -0.523296686
O  O56  1  0.27900000  0.60730000  0.63960000  1.0 -0.523296686
O  O57  1  0.83090000  0.84005000  0.78440000  1.0 -0.1390108618
O  O58  1  0.66910000  0.34005000  0.21560000  1.0 -0.1390108618
O  O59  1  0.16910000  0.15995000  0.21560000  1.0 -0.1390108618
O  O60  1  0.33090000  0.65995000  0.78440000  1.0 -0.1390108618
O  O61  1  0.83030000  0.89190000  0.29600000  1.0 -0.2712474783
O  O62  1  0.66970000  0.39190000  0.70400000  1.0 -0.2712474783
O  O63  1  0.16970000  0.10810000  0.70400000  1.0 -0.2712474783
O  O64  1  0.33030000  0.60810000  0.29600000  1.0 -0.2712474783
O  O65  1  0.72890000  0.73780000  0.27980000  1.0 -0.3393431922
O  O66  1  0.77110000  0.23780000  0.72020000  1.0 -0.3393431922
O  O67  1  0.27110000  0.26220000  0.72020000  1.0 -0.3393431922
O  O68  1  0.22890000  0.76220000  0.27980000  1.0 -0.3393431922
