# DDEC6 charges by PACMAN v1.1 (https://github.com/mtap-research/PACMAN-charge/)
data_KICFIP_ASR_pacman
_symmetry_space_group_name_H-M   'P 1'
_cell_length_a   15.70970000
_cell_length_b   30.19560000
_cell_length_c   16.24960000
_cell_angle_alpha   90.00000000
_cell_angle_beta   102.97500000
_cell_angle_gamma   90.00000000
_symmetry_Int_Tables_number   1
_chemical_formula_structural   Fe3H51C73NO15
_chemical_formula_sum   'Fe12 H204 C292 N4 O60'
_cell_volume   7511.41692146
_cell_formula_units_Z   4
loop_
 _symmetry_equiv_pos_site_id
 _symmetry_equiv_pos_as_xyz
  1  'x, y, z'
loop_
 _atom_site_type_symbol
 _atom_site_label
 _atom_site_symmetry_multiplicity
 _atom_site_fract_x
 _atom_site_fract_y
 _atom_site_fract_z
 _atom_site_occupancy
 _atom_site_charge
Fe  Fe1  1  0.73194000  0.67662000  0.86594000  1.0 1.0672691046
Fe  Fe2  1  0.76806000  0.17662000  0.13406000  1.0 1.0672691046
Fe  Fe3  1  0.26806000  0.32338000  0.13406000  1.0 1.0672691046
Fe  Fe4  1  0.23194000  0.82338000  0.86594000  1.0 1.0672691046
Fe  Fe5  1  0.57332000  0.21578000  0.25641000  1.0 1.1321043251
Fe  Fe6  1  0.92668000  0.71578000  0.74359000  1.0 1.1321043251
Fe  Fe7  1  0.42668000  0.78422000  0.74359000  1.0 1.1321043251
Fe  Fe8  1  0.07332000  0.28422000  0.25641000  1.0 1.1321043251
Fe  Fe9  1  0.55400000  0.70685000  0.72493000  1.0 0.9452940403
Fe  Fe10  1  0.94600000  0.20685000  0.27507000  1.0 0.9452940403
Fe  Fe11  1  0.44600000  0.29315000  0.27507000  1.0 0.9452940403
Fe  Fe12  1  0.05400000  0.79315000  0.72493000  1.0 0.9452940403
H  H1  1  0.70444000  0.25789000  0.78089000  1.0 0.09115059
H  H2  1  0.79556000  0.75789000  0.21911000  1.0 0.09115059
H  H3  1  0.29556000  0.74211000  0.21911000  1.0 0.09115059
H  H4  1  0.20444000  0.24211000  0.78089000  1.0 0.09115059
H  H5  1  0.68972000  0.33266000  0.75048000  1.0 0.1004172657
H  H6  1  0.81028000  0.83266000  0.24952000  1.0 0.1004172657
H  H7  1  0.31028000  0.66734000  0.24952000  1.0 0.1004172657
H  H8  1  0.18972000  0.16734000  0.75048000  1.0 0.1004172657
H  H9  1  0.62062000  0.30807000  0.43264000  1.0 0.1099649482
H  H10  1  0.87938000  0.80807000  0.56736000  1.0 0.1099649482
H  H11  1  0.37938000  0.69193000  0.56736000  1.0 0.1099649482
H  H12  1  0.12062000  0.19193000  0.43264000  1.0 0.1099649482
H  H13  1  0.64027000  0.39270000  0.60392000  1.0 0.1550249634
H  H14  1  0.85973000  0.89270000  0.39608000  1.0 0.1503615358
H  H15  1  0.35973000  0.60730000  0.39608000  1.0 0.1550249634
H  H16  1  0.14027000  0.10730000  0.60392000  1.0 0.1503615358
H  H17  1  0.73744000  0.37654000  0.61507000  1.0 0.1503615358
H  H18  1  0.76256000  0.87654000  0.38493000  1.0 0.1503615358
H  H19  1  0.26256000  0.62346000  0.38493000  1.0 0.1503615358
H  H20  1  0.23744000  0.12346000  0.61507000  1.0 0.1503615358
H  H21  1  0.61126000  0.23252000  0.53865000  1.0 0.1004172657
H  H22  1  0.88874000  0.73252000  0.46135000  1.0 0.1004172657
H  H23  1  0.38874000  0.76748000  0.46135000  1.0 0.1004172657
H  H24  1  0.11126000  0.26748000  0.53865000  1.0 0.1004172657
H  H25  1  0.63481000  0.20940000  0.67499000  1.0 0.1099649482
H  H26  1  0.86519000  0.70940000  0.32501000  1.0 0.1099649482
H  H27  1  0.36519000  0.79060000  0.32501000  1.0 0.1099649482
H  H28  1  0.13481000  0.29060000  0.67499000  1.0 0.1099649482
H  H29  1  0.51150000  0.41327000  0.87736000  1.0 0.1004172657
H  H30  1  0.98850000  0.91327000  0.12264000  1.0 0.1004172657
H  H31  1  0.48850000  0.58673000  0.12264000  1.0 0.1004172657
H  H32  1  0.01150000  0.08673000  0.87736000  1.0 0.1004172657
H  H33  1  0.40054000  0.36188000  0.38165000  1.0 0.1187586073
H  H34  1  0.09946000  0.86188000  0.61835000  1.0 0.1187586073
H  H35  1  0.59946000  0.63812000  0.61835000  1.0 0.1187586073
H  H36  1  0.90054000  0.13812000  0.38165000  1.0 0.1187586073
H  H37  1  0.56458000  0.28470000  0.81779000  1.0 0.1187586073
H  H38  1  0.93542000  0.78470000  0.18221000  1.0 0.1099649482
H  H39  1  0.43542000  0.71530000  0.18221000  1.0 0.1099649482
H  H40  1  0.06458000  0.21530000  0.81779000  1.0 0.1099649482
H  H41  1  0.45117000  0.35823000  0.96995000  1.0 0.1099649482
H  H42  1  0.04883000  0.85823000  0.03005000  1.0 0.1099649482
H  H43  1  0.54883000  0.64177000  0.03005000  1.0 0.1099649482
H  H44  1  0.95117000  0.14177000  0.96995000  1.0 0.1099649482
H  H45  1  0.51041000  0.31216000  0.08159000  1.0 0.1187586073
H  H46  1  0.98959000  0.81216000  0.91841000  1.0 0.1187586073
H  H47  1  0.48959000  0.68784000  0.91841000  1.0 0.1187586073
H  H48  1  0.01041000  0.18784000  0.08159000  1.0 0.1187586073
H  H49  1  0.62494000  0.24120000  0.92918000  1.0 0.1099649482
H  H50  1  0.87506000  0.74120000  0.07082000  1.0 0.1099649482
H  H51  1  0.37506000  0.75880000  0.07082000  1.0 0.1099649482
H  H52  1  0.12494000  0.25880000  0.92918000  1.0 0.1099649482
H  H53  1  0.64774000  0.54320000  0.87668000  1.0 0.1187586073
H  H54  1  0.85226000  0.04320000  0.12332000  1.0 0.1187586073
H  H55  1  0.35226000  0.45680000  0.12332000  1.0 0.1187586073
H  H56  1  0.14774000  0.95680000  0.87668000  1.0 0.1187586073
H  H57  1  0.83136000  0.24030000  0.97763000  1.0 0.1187586073
H  H58  1  0.66864000  0.74030000  0.02237000  1.0 0.1187586073
H  H59  1  0.16864000  0.75970000  0.02237000  1.0 0.1187586073
H  H60  1  0.33136000  0.25970000  0.97763000  1.0 0.1187586073
H  H61  1  0.83088000  0.28036000  0.85776000  1.0 0.1099649482
H  H62  1  0.66912000  0.78036000  0.14224000  1.0 0.1099649482
H  H63  1  0.16912000  0.71964000  0.14224000  1.0 0.1099649482
H  H64  1  0.33088000  0.21964000  0.85776000  1.0 0.1099649482
H  H65  1  0.93031000  0.38467000  0.99920000  1.0 0.1187586073
H  H66  1  0.56969000  0.88467000  0.00080000  1.0 0.1187586073
H  H67  1  0.06969000  0.61533000  0.00080000  1.0 0.1187586073
H  H68  1  0.43031000  0.11533000  0.99920000  1.0 0.1187586073
H  H69  1  0.01842000  0.39026000  0.59181000  1.0 0.1187586073
H  H70  1  0.48158000  0.89026000  0.40819000  1.0 0.1187586073
H  H71  1  0.98158000  0.60974000  0.40819000  1.0 0.1187586073
H  H72  1  0.51842000  0.10974000  0.59181000  1.0 0.1187586073
H  H73  1  0.21881000  0.29503000  0.46765000  1.0 0.1187586073
H  H74  1  0.28119000  0.79503000  0.53235000  1.0 0.1187586073
H  H75  1  0.78119000  0.70497000  0.53235000  1.0 0.1187586073
H  H76  1  0.71881000  0.20497000  0.46765000  1.0 0.1187586073
H  H77  1  0.93489000  0.34271000  0.11948000  1.0 0.1277905101
H  H78  1  0.56511000  0.84271000  0.88052000  1.0 0.1277905101
H  H79  1  0.06511000  0.65729000  0.88052000  1.0 0.1277905101
H  H80  1  0.43489000  0.15729000  0.11948000  1.0 0.1277905101
H  H81  1  0.60526000  0.47034000  0.85781000  1.0 0.1004172657
H  H82  1  0.89474000  0.97034000  0.14219000  1.0 0.1004172657
H  H83  1  0.39474000  0.52966000  0.14219000  1.0 0.1004172657
H  H84  1  0.10526000  0.02966000  0.85781000  1.0 0.1004172657
H  H85  1  0.85767000  0.29172000  0.62383000  1.0 0.1099649482
H  H86  1  0.64233000  0.79172000  0.37617000  1.0 0.1099649482
H  H87  1  0.14233000  0.70828000  0.37617000  1.0 0.1099649482
H  H88  1  0.35767000  0.20828000  0.62383000  1.0 0.1099649482
H  H89  1  0.87405000  0.42307000  0.88820000  1.0 0.1187586073
H  H90  1  0.62595000  0.92307000  0.11180000  1.0 0.1187586073
H  H91  1  0.12595000  0.57693000  0.11180000  1.0 0.1187586073
H  H92  1  0.37405000  0.07693000  0.88820000  1.0 0.1187586073
H  H93  1  0.90632000  0.31252000  0.76402000  1.0 0.1187586073
H  H94  1  0.59368000  0.81252000  0.23598000  1.0 0.1187586073
H  H95  1  0.09368000  0.68748000  0.23598000  1.0 0.1187586073
H  H96  1  0.40632000  0.18748000  0.76402000  1.0 0.1187586073
H  H97  1  0.27950000  0.31937000  0.60369000  1.0 0.1187586073
H  H98  1  0.22050000  0.81937000  0.39631000  1.0 0.1187586073
H  H99  1  0.72050000  0.68063000  0.39631000  1.0 0.1187586073
H  H100  1  0.77950000  0.18063000  0.60369000  1.0 0.1187586073
H  H101  1  0.98036000  0.57392000  0.72396000  1.0 0.1410321353
H  H102  1  0.51964000  0.07392000  0.27604000  1.0 0.1277905101
H  H103  1  0.01964000  0.42608000  0.27604000  1.0 0.1277905101
H  H104  1  0.48036000  0.92608000  0.72396000  1.0 0.1410321353
H  H105  1  0.42500000  0.31210000  0.71900000  1.0 0.1099649482
H  H106  1  0.07500000  0.81210000  0.28100000  1.0 0.1099649482
H  H107  1  0.57500000  0.68790000  0.28100000  1.0 0.1099649482
H  H108  1  0.92500000  0.18790000  0.71900000  1.0 0.1099649482
H  H109  1  0.79402000  0.48838000  0.83902000  1.0 0.1187586073
H  H110  1  0.70598000  0.98838000  0.16098000  1.0 0.1187586073
H  H111  1  0.20598000  0.51162000  0.16098000  1.0 0.1187586073
H  H112  1  0.29402000  0.01162000  0.83902000  1.0 0.1187586073
H  H113  1  0.03985000  0.35659000  0.47293000  1.0 0.1187586073
H  H114  1  0.46015000  0.85659000  0.52707000  1.0 0.1187586073
H  H115  1  0.96015000  0.64341000  0.52707000  1.0 0.1187586073
H  H116  1  0.53985000  0.14341000  0.47293000  1.0 0.1187586073
H  H117  1  0.98423000  0.49814000  0.71233000  1.0 0.1187586073
H  H118  1  0.51577000  0.99814000  0.28767000  1.0 0.1187586073
H  H119  1  0.01577000  0.50186000  0.28767000  1.0 0.1187586073
H  H120  1  0.48423000  0.00186000  0.71233000  1.0 0.1187586073
H  H121  1  0.88386000  0.25664000  0.50477000  1.0 0.1187586073
H  H122  1  0.61614000  0.75664000  0.49523000  1.0 0.1187586073
H  H123  1  0.11614000  0.74336000  0.49523000  1.0 0.1187586073
H  H124  1  0.38386000  0.24336000  0.50477000  1.0 0.1187586073
H  H125  1  0.79298000  0.56355000  0.85266000  1.0 0.1187586073
H  H126  1  0.70702000  0.06355000  0.14734000  1.0 0.1187586073
H  H127  1  0.20702000  0.43645000  0.14734000  1.0 0.1187586073
H  H128  1  0.29298000  0.93645000  0.85266000  1.0 0.1187586073
H  H129  1  0.39413000  0.50655000  0.68360000  1.0 0.1277905101
H  H130  1  0.10587000  0.00655000  0.31640000  1.0 0.1277905101
H  H131  1  0.60587000  0.49345000  0.31640000  1.0 0.1277905101
H  H132  1  0.89413000  0.99345000  0.68360000  1.0 0.1277905101
H  H133  1  0.44083000  0.57843000  0.69701000  1.0 0.1410321353
H  H134  1  0.05917000  0.07843000  0.30299000  1.0 0.1410321353
H  H135  1  0.55917000  0.42157000  0.30299000  1.0 0.1410321353
H  H136  1  0.94083000  0.92157000  0.69701000  1.0 0.1410321353
H  H137  1  0.45757000  0.38832000  0.51472000  1.0 0.1277905101
H  H138  1  0.04243000  0.88832000  0.48528000  1.0 0.1277905101
H  H139  1  0.54243000  0.61168000  0.48528000  1.0 0.1277905101
H  H140  1  0.95757000  0.11168000  0.51472000  1.0 0.1277905101
H  H141  1  0.91670000  0.42978000  0.65401000  1.0 0.1277905101
H  H142  1  0.58330000  0.92978000  0.34599000  1.0 0.1277905101
H  H143  1  0.08330000  0.57022000  0.34599000  1.0 0.1277905101
H  H144  1  0.41670000  0.07022000  0.65401000  1.0 0.1277905101
H  H145  1  0.69140000  0.29311000  0.26924000  1.0 0.1099649482
H  H146  1  0.80860000  0.79311000  0.73076000  1.0 0.1099649482
H  H147  1  0.30860000  0.70689000  0.73076000  1.0 0.1099649482
H  H148  1  0.19140000  0.20689000  0.26924000  1.0 0.1099649482
H  H149  1  0.64954000  0.33250000  0.30910000  1.0 0.0710340338
H  H150  1  0.85046000  0.83250000  0.69090000  1.0 0.0710340338
H  H151  1  0.35046000  0.66750000  0.69090000  1.0 0.0710340338
H  H152  1  0.14954000  0.16750000  0.30910000  1.0 0.0710340338
H  H153  1  0.61569000  0.32087000  0.21330000  1.0 0.1004172657
H  H154  1  0.88431000  0.82087000  0.78670000  1.0 0.1004172657
H  H155  1  0.38431000  0.67913000  0.78670000  1.0 0.1004172657
H  H156  1  0.11569000  0.17913000  0.21330000  1.0 0.1004172657
H  H157  1  0.56941000  0.41067000  0.86140000  1.0 0.1004172657
H  H158  1  0.93059000  0.91067000  0.13860000  1.0 0.1004172657
H  H159  1  0.43059000  0.58933000  0.13860000  1.0 0.1004172657
H  H160  1  0.06941000  0.08933000  0.86140000  1.0 0.1004172657
H  H161  1  0.43898000  0.28519000  0.84548000  1.0 0.1099649482
H  H162  1  0.06102000  0.78519000  0.15452000  1.0 0.1099649482
H  H163  1  0.56102000  0.71481000  0.15452000  1.0 0.1099649482
H  H164  1  0.93898000  0.21481000  0.84548000  1.0 0.1099649482
H  H165  1  0.50068000  0.23304000  0.95631000  1.0 0.1099649482
H  H166  1  0.99932000  0.73304000  0.04369000  1.0 0.1099649482
H  H167  1  0.49932000  0.76696000  0.04369000  1.0 0.1099649482
H  H168  1  0.00068000  0.26696000  0.95631000  1.0 0.1099649482
H  H169  1  0.66327000  0.35394000  0.90781000  1.0 0.1004172657
H  H170  1  0.83673000  0.85394000  0.09219000  1.0 0.1004172657
H  H171  1  0.33673000  0.64606000  0.09219000  1.0 0.1004172657
H  H172  1  0.16327000  0.14606000  0.90781000  1.0 0.1004172657
H  H173  1  0.71454000  0.30524000  0.02346000  1.0 0.1004172657
H  H174  1  0.78546000  0.80524000  0.97654000  1.0 0.1004172657
H  H175  1  0.28546000  0.69476000  0.97654000  1.0 0.1099649482
H  H176  1  0.21454000  0.19476000  0.02346000  1.0 0.1099649482
H  H177  1  0.61638000  0.28531000  0.42065000  1.0 0.09115059
H  H178  1  0.88362000  0.78531000  0.57935000  1.0 0.09115059
H  H179  1  0.38362000  0.71469000  0.57935000  1.0 0.09115059
H  H180  1  0.11638000  0.21469000  0.42065000  1.0 0.09115059
H  H181  1  0.61893000  0.33067000  0.37433000  1.0 0.0786735766
H  H182  1  0.88107000  0.83067000  0.62567000  1.0 0.0786735766
H  H183  1  0.38107000  0.66933000  0.62567000  1.0 0.0786735766
H  H184  1  0.11893000  0.16933000  0.37433000  1.0 0.0786735766
H  H185  1  0.69189000  0.29522000  0.37453000  1.0 0.1004172657
H  H186  1  0.80811000  0.79522000  0.62547000  1.0 0.1004172657
H  H187  1  0.30811000  0.70478000  0.62547000  1.0 0.1004172657
H  H188  1  0.19189000  0.20478000  0.37453000  1.0 0.1004172657
H  H189  1  0.68711000  0.26102000  0.68781000  1.0 0.1410321353
H  H190  1  0.81289000  0.76102000  0.31219000  1.0 0.1410321353
H  H191  1  0.31289000  0.73898000  0.31219000  1.0 0.1410321353
H  H192  1  0.18711000  0.23898000  0.68781000  1.0 0.1410321353
H  H193  1  0.59702000  0.27563000  0.54617000  1.0 0.1187586073
H  H194  1  0.90298000  0.77563000  0.45383000  1.0 0.1187586073
H  H195  1  0.40298000  0.72437000  0.45383000  1.0 0.1187586073
H  H196  1  0.09702000  0.22437000  0.54617000  1.0 0.1187586073
H  H197  1  0.65860000  0.31676000  0.56958000  1.0 0.1099649482
H  H198  1  0.84140000  0.81676000  0.43042000  1.0 0.1187586073
H  H199  1  0.34140000  0.68324000  0.43042000  1.0 0.1099649482
H  H200  1  0.15860000  0.18324000  0.56958000  1.0 0.1099649482
H  H201  1  0.69867000  0.26936000  0.56712000  1.0 0.09115059
H  H202  1  0.80133000  0.76936000  0.43288000  1.0 0.09115059
H  H203  1  0.30133000  0.73064000  0.43288000  1.0 0.09115059
H  H204  1  0.19867000  0.23064000  0.56712000  1.0 0.09115059
C  C1  1  0.67990000  0.26780000  0.72650000  1.0 -0.0831108272
C  C2  1  0.82010000  0.76780000  0.27350000  1.0 -0.0831108272
C  C3  1  0.32010000  0.73220000  0.27350000  1.0 -0.0896156206
C  C4  1  0.17990000  0.23220000  0.72650000  1.0 -0.0831108272
C  C5  1  0.67660000  0.31240000  0.70640000  1.0 -0.0896156206
C  C6  1  0.82340000  0.81240000  0.29360000  1.0 -0.0896156206
C  C7  1  0.32340000  0.68760000  0.29360000  1.0 -0.0896156206
C  C8  1  0.17660000  0.18760000  0.70640000  1.0 -0.0896156206
C  C9  1  0.65530000  0.32850000  0.62600000  1.0 -0.0289904478
C  C10  1  0.84470000  0.82850000  0.37400000  1.0 -0.0289904478
C  C11  1  0.34470000  0.67150000  0.37400000  1.0 -0.0289904478
C  C12  1  0.15530000  0.17150000  0.62600000  1.0 -0.0289904478
C  C13  1  0.62840000  0.29800000  0.55870000  1.0 0.0005226906
C  C14  1  0.87160000  0.79800000  0.44130000  1.0 0.0005226906
C  C15  1  0.37160000  0.70200000  0.44130000  1.0 -0.0001228121
C  C16  1  0.12840000  0.20200000  0.55870000  1.0 0.0005226906
C  C17  1  0.66340000  0.36350000  0.50240000  1.0 0.2745434819
C  C18  1  0.83660000  0.86350000  0.49760000  1.0 0.2745434819
C  C19  1  0.33660000  0.63650000  0.49760000  1.0 0.2762540756
C  C20  1  0.16340000  0.13650000  0.50240000  1.0 0.2762540756
C  C21  1  0.67690000  0.36900000  0.59120000  1.0 -0.3836420597
C  C22  1  0.82310000  0.86900000  0.40880000  1.0 -0.3836420597
C  C23  1  0.32310000  0.63100000  0.40880000  1.0 -0.3836420597
C  C24  1  0.17690000  0.13100000  0.59120000  1.0 -0.3836420597
C  C25  1  0.62640000  0.25340000  0.58150000  1.0 -0.0964340127
C  C26  1  0.87360000  0.75340000  0.41850000  1.0 -0.0964340127
C  C27  1  0.37360000  0.74660000  0.41850000  1.0 -0.0964340127
C  C28  1  0.12640000  0.24660000  0.58150000  1.0 -0.0964340127
C  C29  1  0.64520000  0.23870000  0.66280000  1.0 -0.067340224
C  C30  1  0.85480000  0.73870000  0.33720000  1.0 -0.067340224
C  C31  1  0.35480000  0.76130000  0.33720000  1.0 -0.067340224
C  C32  1  0.14520000  0.26130000  0.66280000  1.0 -0.067340224
C  C33  1  0.46740000  0.43250000  0.75540000  1.0 0.0583103207
C  C34  1  0.03260000  0.93250000  0.24460000  1.0 0.0583103207
C  C35  1  0.53260000  0.56750000  0.24460000  1.0 0.0583103207
C  C36  1  0.96740000  0.06750000  0.75540000  1.0 0.0583103207
C  C37  1  0.48730000  0.40288000  0.82330000  1.0 -0.0631388621
C  C38  1  0.01270000  0.90288000  0.17670000  1.0 -0.0631388621
C  C39  1  0.51270000  0.59712000  0.17670000  1.0 -0.0631388621
C  C40  1  0.98730000  0.09712000  0.82330000  1.0 -0.0631388621
C  C41  1  0.37600000  0.35328000  0.42620000  1.0 -0.0964340127
C  C42  1  0.12400000  0.85328000  0.57380000  1.0 -0.0964340127
C  C43  1  0.62400000  0.64672000  0.57380000  1.0 -0.0964340127
C  C44  1  0.87600000  0.14672000  0.42620000  1.0 -0.0964340127
C  C45  1  0.47060000  0.35756000  0.80970000  1.0 0.0436874041
C  C46  1  0.02940000  0.85756000  0.19030000  1.0 0.0436874041
C  C47  1  0.52940000  0.64244000  0.19030000  1.0 0.0436874041
C  C48  1  0.97060000  0.14244000  0.80970000  1.0 0.0436874041
C  C49  1  0.50300000  0.32643000  0.88140000  1.0 0.0583103207
C  C50  1  0.99700000  0.82643000  0.11860000  1.0 0.0583103207
C  C51  1  0.49700000  0.67357000  0.11860000  1.0 0.0583103207
C  C52  1  0.00300000  0.17357000  0.88140000  1.0 0.0583103207
C  C53  1  0.37530000  0.35590000  0.57440000  1.0 0.09115059
C  C54  1  0.12470000  0.85590000  0.42560000  1.0 0.09115059
C  C55  1  0.62470000  0.64410000  0.42560000  1.0 0.09115059
C  C56  1  0.87530000  0.14410000  0.57440000  1.0 0.09115059
C  C57  1  0.55500000  0.29110000  0.87090000  1.0 -0.0289904478
C  C58  1  0.94500000  0.79110000  0.12910000  1.0 -0.0289904478
C  C59  1  0.44500000  0.70890000  0.12910000  1.0 -0.0289904478
C  C60  1  0.05500000  0.20890000  0.87090000  1.0 -0.0289904478
C  C61  1  0.48690000  0.33475000  0.96220000  1.0 -0.149578168
C  C62  1  0.01310000  0.83475000  0.03780000  1.0 -0.149578168
C  C63  1  0.51310000  0.66525000  0.03780000  1.0 -0.149578168
C  C64  1  0.98690000  0.16525000  0.96220000  1.0 -0.149578168
C  C65  1  0.52410000  0.30810000  0.02930000  1.0 -0.1828018473
C  C66  1  0.97590000  0.80810000  0.97070000  1.0 -0.1828018473
C  C67  1  0.47590000  0.69190000  0.97070000  1.0 -0.1828018473
C  C68  1  0.02410000  0.19190000  0.02930000  1.0 -0.1828018473
C  C69  1  0.59230000  0.26560000  0.93840000  1.0 -0.0367441354
C  C70  1  0.90770000  0.76560000  0.06160000  1.0 -0.0367441354
C  C71  1  0.40770000  0.73440000  0.06160000  1.0 -0.0367441354
C  C72  1  0.09230000  0.23440000  0.93840000  1.0 -0.0367441354
C  C73  1  0.98180000  0.28084000  0.40140000  1.0 0.5533412276
C  C74  1  0.51820000  0.78084000  0.59860000  1.0 0.5533412276
C  C75  1  0.01820000  0.71916000  0.59860000  1.0 0.5533412276
C  C76  1  0.48180000  0.21916000  0.40140000  1.0 0.5533412276
C  C77  1  0.57860000  0.61552000  0.79710000  1.0 0.5841071634
C  C78  1  0.92140000  0.11552000  0.20290000  1.0 0.5841071634
C  C79  1  0.42140000  0.38448000  0.20290000  1.0 0.5841071634
C  C80  1  0.07860000  0.88448000  0.79710000  1.0 0.5841071634
C  C81  1  0.93300000  0.34497000  0.62170000  1.0 0.0786735766
C  C82  1  0.56700000  0.84497000  0.37830000  1.0 0.0786735766
C  C83  1  0.06700000  0.65503000  0.37830000  1.0 0.0786735766
C  C84  1  0.43300000  0.15503000  0.62170000  1.0 0.0786735766
C  C85  1  0.89050000  0.36313000  0.83860000  1.0 0.09115059
C  C86  1  0.60950000  0.86313000  0.16140000  1.0 0.09115059
C  C87  1  0.10950000  0.63687000  0.16140000  1.0 0.09115059
C  C88  1  0.39050000  0.13687000  0.83860000  1.0 0.09115059
C  C89  1  0.88460000  0.33647000  0.91500000  1.0 0.0786735766
C  C90  1  0.61540000  0.83647000  0.08500000  1.0 0.0786735766
C  C91  1  0.11540000  0.66353000  0.08500000  1.0 0.0786735766
C  C92  1  0.38460000  0.16353000  0.91500000  1.0 0.0786735766
C  C93  1  0.59730000  0.53575000  0.83700000  1.0 -0.0964340127
C  C94  1  0.90270000  0.03575000  0.16300000  1.0 -0.0896156206
C  C95  1  0.40270000  0.46425000  0.16300000  1.0 -0.0964340127
C  C96  1  0.09730000  0.96425000  0.83700000  1.0 -0.0964340127
C  C97  1  0.30620000  0.32531000  0.41150000  1.0 -0.0367441354
C  C98  1  0.19380000  0.82531000  0.58850000  1.0 -0.0367441354
C  C99  1  0.69380000  0.67469000  0.58850000  1.0 -0.0367441354
C  C100  1  0.80620000  0.17469000  0.41150000  1.0 -0.0367441354
C  C101  1  0.54780000  0.56846000  0.78830000  1.0 -0.0212296753
C  C102  1  0.95220000  0.06846000  0.21170000  1.0 -0.0212296753
C  C103  1  0.45220000  0.43154000  0.21170000  1.0 -0.0212296753
C  C104  1  0.04780000  0.93154000  0.78830000  1.0 -0.0212296753
C  C105  1  0.85370000  0.26895000  0.98220000  1.0 -0.1206326179
C  C106  1  0.64630000  0.76895000  0.01780000  1.0 -0.1206326179
C  C107  1  0.14630000  0.73105000  0.01780000  1.0 -0.1206326179
C  C108  1  0.35370000  0.23105000  0.98220000  1.0 -0.1074073033
C  C109  1  0.85290000  0.29310000  0.91030000  1.0 -0.2183230317
C  C110  1  0.64710000  0.79310000  0.08970000  1.0 -0.2183230317
C  C111  1  0.14710000  0.70690000  0.08970000  1.0 -0.2183230317
C  C112  1  0.35290000  0.20690000  0.91030000  1.0 -0.2183230317
C  C113  1  0.91270000  0.35520000  0.99420000  1.0 -0.1378831724
C  C114  1  0.58730000  0.85520000  0.00580000  1.0 -0.1378831724
C  C115  1  0.08730000  0.64480000  0.00580000  1.0 -0.1378831724
C  C116  1  0.41270000  0.14480000  0.99420000  1.0 -0.1378831724
C  C117  1  0.26980000  0.30669000  0.32590000  1.0 0.6068585841
C  C118  1  0.23020000  0.80669000  0.67410000  1.0 0.6068585841
C  C119  1  0.73020000  0.69331000  0.67410000  1.0 0.6068585841
C  C120  1  0.76980000  0.19331000  0.32590000  1.0 0.6068585841
C  C121  1  0.88340000  0.62620000  0.80000000  1.0 0.5894470392
C  C122  1  0.61660000  0.12620000  0.20000000  1.0 0.5894470392
C  C123  1  0.11660000  0.37380000  0.20000000  1.0 0.5894470392
C  C124  1  0.38340000  0.87380000  0.80000000  1.0 0.5894470392
C  C125  1  0.99010000  0.36369000  0.57440000  1.0 -0.129312017
C  C126  1  0.50990000  0.86369000  0.42560000  1.0 -0.129312017
C  C127  1  0.00990000  0.63631000  0.42560000  1.0 -0.129312017
C  C128  1  0.49010000  0.13631000  0.57440000  1.0 -0.129312017
C  C129  1  0.26800000  0.31310000  0.47780000  1.0 -0.1206326179
C  C130  1  0.23200000  0.81310000  0.52220000  1.0 -0.1206326179
C  C131  1  0.73200000  0.68690000  0.52220000  1.0 -0.1206326179
C  C132  1  0.76800000  0.18690000  0.47780000  1.0 -0.1206326179
C  C133  1  0.91470000  0.33006000  0.06650000  1.0 -0.0831108272
C  C134  1  0.58530000  0.83006000  0.93350000  1.0 -0.0831108272
C  C135  1  0.08530000  0.66994000  0.93350000  1.0 -0.0831108272
C  C136  1  0.41470000  0.16994000  0.06650000  1.0 -0.0896156206
C  C137  1  0.57120000  0.49217000  0.82590000  1.0 -0.2183230317
C  C138  1  0.92880000  0.99217000  0.17410000  1.0 -0.2183230317
C  C139  1  0.42880000  0.50783000  0.17410000  1.0 -0.2183230317
C  C140  1  0.07120000  0.00783000  0.82590000  1.0 -0.2183230317
C  C141  1  0.88710000  0.57678000  0.79060000  1.0 -0.0289904478
C  C142  1  0.61290000  0.07678000  0.20940000  1.0 -0.0289904478
C  C143  1  0.11290000  0.42322000  0.20940000  1.0 -0.0289904478
C  C144  1  0.38710000  0.92322000  0.79060000  1.0 -0.0289904478
C  C145  1  0.91750000  0.36762000  0.69770000  1.0 0.09115059
C  C146  1  0.58250000  0.86762000  0.30230000  1.0 0.09115059
C  C147  1  0.08250000  0.63238000  0.30230000  1.0 0.09115059
C  C148  1  0.41750000  0.13238000  0.69770000  1.0 0.09115059
C  C149  1  0.43370000  0.41685000  0.67480000  1.0 -0.0831108272
C  C150  1  0.06630000  0.91685000  0.32520000  1.0 -0.0831108272
C  C151  1  0.56630000  0.58315000  0.32520000  1.0 -0.0831108272
C  C152  1  0.93370000  0.08315000  0.67480000  1.0 -0.0831108272
C  C153  1  0.89490000  0.30498000  0.59400000  1.0 -0.2627287479
C  C154  1  0.60510000  0.80498000  0.40600000  1.0 -0.2627287479
C  C155  1  0.10510000  0.69502000  0.40600000  1.0 -0.2627287479
C  C156  1  0.39490000  0.19502000  0.59400000  1.0 -0.2627287479
C  C157  1  0.90270000  0.25921000  0.13860000  1.0 0.5841071634
C  C158  1  0.59730000  0.75921000  0.86140000  1.0 0.5841071634
C  C159  1  0.09730000  0.74079000  0.86140000  1.0 0.5841071634
C  C160  1  0.40270000  0.24079000  0.13860000  1.0 0.5841071634
C  C161  1  0.88890000  0.48442000  0.77510000  1.0 0.0710340338
C  C162  1  0.61110000  0.98442000  0.22490000  1.0 0.0710340338
C  C163  1  0.11110000  0.51558000  0.22490000  1.0 0.0710340338
C  C164  1  0.38890000  0.01558000  0.77510000  1.0 0.0710340338
C  C165  1  0.88460000  0.40918000  0.84040000  1.0 -0.201583513
C  C166  1  0.61540000  0.90918000  0.15960000  1.0 -0.201583513
C  C167  1  0.11540000  0.59082000  0.15960000  1.0 -0.201583513
C  C168  1  0.38460000  0.09082000  0.84040000  1.0 -0.201583513
C  C169  1  0.90490000  0.34328000  0.76660000  1.0 -0.2183230317
C  C170  1  0.59510000  0.84328000  0.23340000  1.0 -0.2183230317
C  C171  1  0.09510000  0.65672000  0.23340000  1.0 -0.2183230317
C  C172  1  0.40490000  0.15672000  0.76660000  1.0 -0.2183230317
C  C173  1  0.41470000  0.37212000  0.66080000  1.0 -0.0212296753
C  C174  1  0.08530000  0.87212000  0.33920000  1.0 -0.0212296753
C  C175  1  0.58530000  0.62788000  0.33920000  1.0 -0.0212296753
C  C176  1  0.91470000  0.12788000  0.66080000  1.0 -0.0212296753
C  C177  1  0.30390000  0.32815000  0.55920000  1.0 -0.1731107598
C  C178  1  0.19610000  0.82815000  0.44080000  1.0 -0.1731107598
C  C179  1  0.69610000  0.67185000  0.44080000  1.0 -0.1731107598
C  C180  1  0.80390000  0.17185000  0.55920000  1.0 -0.1731107598
C  C181  1  0.94330000  0.55662000  0.74800000  1.0 -0.1074073033
C  C182  1  0.55670000  0.05662000  0.25200000  1.0 -0.1074073033
C  C183  1  0.05670000  0.44338000  0.25200000  1.0 -0.1074073033
C  C184  1  0.44330000  0.94338000  0.74800000  1.0 -0.1074073033
C  C185  1  0.58440000  0.27390000  0.01790000  1.0 0.0273716497
C  C186  1  0.91560000  0.77390000  0.98210000  1.0 0.0273716497
C  C187  1  0.41560000  0.72610000  0.98210000  1.0 0.0273716497
C  C188  1  0.08440000  0.22610000  0.01790000  1.0 0.0273716497
C  C189  1  0.43550000  0.34267000  0.72790000  1.0 -0.2525779689
C  C190  1  0.06450000  0.84267000  0.27210000  1.0 -0.2525779689
C  C191  1  0.56450000  0.65733000  0.27210000  1.0 -0.2525779689
C  C192  1  0.93550000  0.15733000  0.72790000  1.0 -0.2525779689
C  C193  1  0.88700000  0.28654000  0.06030000  1.0 -0.0289904478
C  C194  1  0.61300000  0.78654000  0.93970000  1.0 -0.0289904478
C  C195  1  0.11300000  0.71346000  0.93970000  1.0 -0.0289904478
C  C196  1  0.38700000  0.21346000  0.06030000  1.0 -0.0289904478
C  C197  1  0.83250000  0.50531000  0.81620000  1.0 -0.149578168
C  C198  1  0.66750000  0.00531000  0.18380000  1.0 -0.149578168
C  C199  1  0.16750000  0.49469000  0.18380000  1.0 -0.149578168
C  C200  1  0.33250000  0.99469000  0.81620000  1.0 -0.149578168
C  C201  1  0.89460000  0.43519000  0.77030000  1.0 0.09115059
C  C202  1  0.60540000  0.93519000  0.22970000  1.0 0.09115059
C  C203  1  0.10540000  0.56481000  0.22970000  1.0 0.09115059
C  C204  1  0.39460000  0.06481000  0.77030000  1.0 0.09115059
C  C205  1  0.00380000  0.34310000  0.50380000  1.0 -0.0896156206
C  C206  1  0.49620000  0.84310000  0.49620000  1.0 -0.0896156206
C  C207  1  0.99620000  0.65690000  0.49620000  1.0 -0.0896156206
C  C208  1  0.50380000  0.15690000  0.50380000  1.0 -0.0896156206
C  C209  1  0.94530000  0.51120000  0.74050000  1.0 -0.149578168
C  C210  1  0.55470000  0.01120000  0.25950000  1.0 -0.149578168
C  C211  1  0.05470000  0.48880000  0.25950000  1.0 -0.149578168
C  C212  1  0.44530000  0.98880000  0.74050000  1.0 -0.149578168
C  C213  1  0.91050000  0.28362000  0.52200000  1.0 -0.1828018473
C  C214  1  0.58950000  0.78362000  0.47800000  1.0 -0.1828018473
C  C215  1  0.08950000  0.71638000  0.47800000  1.0 -0.1828018473
C  C216  1  0.41050000  0.21638000  0.52200000  1.0 -0.1828018473
C  C217  1  0.49490000  0.47993000  0.76810000  1.0 0.0583103207
C  C218  1  0.00510000  0.97993000  0.23190000  1.0 0.0583103207
C  C219  1  0.50510000  0.52007000  0.23190000  1.0 0.0583103207
C  C220  1  0.99490000  0.02007000  0.76810000  1.0 0.0583103207
C  C221  1  0.96590000  0.30292000  0.47660000  1.0 -0.0492009856
C  C222  1  0.53410000  0.80292000  0.52340000  1.0 -0.0492009856
C  C223  1  0.03410000  0.69708000  0.52340000  1.0 -0.0492009856
C  C224  1  0.46590000  0.19708000  0.47660000  1.0 -0.0492009856
C  C225  1  0.83160000  0.55045000  0.82420000  1.0 -0.0964340127
C  C226  1  0.66840000  0.05045000  0.17580000  1.0 -0.0964340127
C  C227  1  0.16840000  0.44955000  0.17580000  1.0 -0.0964340127
C  C228  1  0.33160000  0.94955000  0.82420000  1.0 -0.0964340127
C  C229  1  0.44610000  0.51348000  0.72150000  1.0 -0.149578168
C  C230  1  0.05390000  0.01348000  0.27850000  1.0 -0.149578168
C  C231  1  0.55390000  0.48652000  0.27850000  1.0 -0.149578168
C  C232  1  0.94610000  0.98652000  0.72150000  1.0 -0.149578168
C  C233  1  0.47340000  0.55670000  0.73060000  1.0 -0.0831108272
C  C234  1  0.02660000  0.05670000  0.26940000  1.0 -0.0831108272
C  C235  1  0.52660000  0.44330000  0.26940000  1.0 -0.0831108272
C  C236  1  0.97340000  0.94330000  0.73060000  1.0 -0.0831108272
C  C237  1  0.41040000  0.36890000  0.50590000  1.0 -0.129312017
C  C238  1  0.08960000  0.86890000  0.49410000  1.0 -0.129312017
C  C239  1  0.58960000  0.63110000  0.49410000  1.0 -0.129312017
C  C240  1  0.91040000  0.13110000  0.50590000  1.0 -0.129312017
C  C241  1  0.91050000  0.41328000  0.70060000  1.0 -0.201583513
C  C242  1  0.58950000  0.91328000  0.29940000  1.0 -0.201583513
C  C243  1  0.08950000  0.58672000  0.29940000  1.0 -0.201583513
C  C244  1  0.41050000  0.08672000  0.70060000  1.0 -0.201583513
C  C245  1  0.62630000  0.24519000  0.09210000  1.0 0.5841071634
C  C246  1  0.87370000  0.74519000  0.90790000  1.0 0.5841071634
C  C247  1  0.37370000  0.75481000  0.90790000  1.0 0.5841071634
C  C248  1  0.12630000  0.25481000  0.09210000  1.0 0.5841071634
C  C249  1  0.63820000  0.30890000  0.26860000  1.0 -0.1206326179
C  C250  1  0.86180000  0.80890000  0.73140000  1.0 -0.1206326179
C  C251  1  0.36180000  0.69110000  0.73140000  1.0 -0.1206326179
C  C252  1  0.13820000  0.19110000  0.26860000  1.0 -0.1206326179
C  C253  1  0.54380000  0.32560000  0.87210000  1.0 0.0542121835
C  C254  1  0.95620000  0.82560000  0.12790000  1.0 0.0542121835
C  C255  1  0.45620000  0.67440000  0.12790000  1.0 0.0542121835
C  C256  1  0.04380000  0.17440000  0.87210000  1.0 0.0542121835
C  C257  1  0.51570000  0.35820000  0.80150000  1.0 0.0273716497
C  C258  1  0.98430000  0.85820000  0.19850000  1.0 0.0273716497
C  C259  1  0.48430000  0.64180000  0.19850000  1.0 0.0273716497
C  C260  1  0.01570000  0.14180000  0.80150000  1.0 0.0273716497
C  C261  1  0.53500000  0.40140000  0.81000000  1.0 -0.0831108272
C  C262  1  0.96500000  0.90140000  0.19000000  1.0 -0.0831108272
C  C263  1  0.46500000  0.59860000  0.19000000  1.0 -0.0831108272
C  C264  1  0.03500000  0.09860000  0.81000000  1.0 -0.0831108272
C  C265  1  0.50440000  0.43570000  0.74540000  1.0 0.0542121835
C  C266  1  0.99560000  0.93570000  0.25460000  1.0 0.0583103207
C  C267  1  0.49560000  0.56430000  0.25460000  1.0 0.0542121835
C  C268  1  0.00440000  0.06430000  0.74540000  1.0 0.0542121835
C  C269  1  0.49220000  0.29040000  0.88280000  1.0 -0.0212296753
C  C270  1  0.00780000  0.79040000  0.11720000  1.0 -0.0105924021
C  C271  1  0.50780000  0.70960000  0.11720000  1.0 -0.0105924021
C  C272  1  0.99220000  0.20960000  0.88280000  1.0 -0.0105924021
C  C273  1  0.52440000  0.26120000  0.95560000  1.0 -0.0492009856
C  C274  1  0.97560000  0.76120000  0.04440000  1.0 -0.0492009856
C  C275  1  0.47560000  0.73880000  0.04440000  1.0 -0.0492009856
C  C276  1  0.02440000  0.23880000  0.95560000  1.0 -0.0492009856
C  C277  1  0.62730000  0.33200000  0.92160000  1.0 -0.1731107598
C  C278  1  0.87270000  0.83200000  0.07840000  1.0 -0.1731107598
C  C279  1  0.37270000  0.66800000  0.07840000  1.0 -0.1731107598
C  C280  1  0.12730000  0.16800000  0.92160000  1.0 -0.1731107598
C  C281  1  0.65690000  0.30500000  0.99300000  1.0 -0.1378831724
C  C282  1  0.84310000  0.80500000  0.00700000  1.0 -0.1378831724
C  C283  1  0.34310000  0.69500000  0.00700000  1.0 -0.1378831724
C  C284  1  0.15690000  0.19500000  0.99300000  1.0 -0.1378831724
C  C285  1  0.63100000  0.29950000  0.37300000  1.0 -0.1569713326
C  C286  1  0.86900000  0.79950000  0.62700000  1.0 -0.1569713326
C  C287  1  0.36900000  0.70050000  0.62700000  1.0 -0.1569713326
C  C288  1  0.13100000  0.20050000  0.37300000  1.0 -0.1569713326
C  C289  1  0.65100000  0.28590000  0.58050000  1.0 -0.0105924021
C  C290  1  0.84900000  0.78590000  0.41950000  1.0 -0.0105924021
C  C291  1  0.34900000  0.71410000  0.41950000  1.0 -0.0105924021
C  C292  1  0.15100000  0.21410000  0.58050000  1.0 -0.0105924021
N  N1  1  0.63350000  0.31960000  0.48230000  1.0 -0.2680060984
N  N2  1  0.86650000  0.81960000  0.51770000  1.0 -0.2680060984
N  N3  1  0.36650000  0.68040000  0.51770000  1.0 -0.2680060984
N  N4  1  0.13350000  0.18040000  0.48230000  1.0 -0.2680060984
O  O1  1  0.67580000  0.39550000  0.44490000  1.0 -0.5663389386
O  O2  1  0.82420000  0.89550000  0.55510000  1.0 -0.5663389386
O  O3  1  0.32420000  0.60450000  0.55510000  1.0 -0.5663389386
O  O4  1  0.17580000  0.10450000  0.44490000  1.0 -0.5663389386
O  O5  1  0.53250000  0.64344000  0.74950000  1.0 -0.5508480491
O  O6  1  0.96750000  0.14344000  0.25050000  1.0 -0.5508480491
O  O7  1  0.46750000  0.35656000  0.25050000  1.0 -0.5508480491
O  O8  1  0.03250000  0.85656000  0.74950000  1.0 -0.5508480491
O  O9  1  0.94270000  0.24471000  0.37750000  1.0 -0.5508480491
O  O10  1  0.55730000  0.74471000  0.62250000  1.0 -0.5508480491
O  O11  1  0.05730000  0.75529000  0.62250000  1.0 -0.5508480491
O  O12  1  0.44270000  0.25529000  0.37750000  1.0 -0.5508480491
O  O13  1  0.31280000  0.31036000  0.26794000  1.0 -0.606588629
O  O14  1  0.18720000  0.81036000  0.73206000  1.0 -0.606588629
O  O15  1  0.68720000  0.68964000  0.73206000  1.0 -0.606588629
O  O16  1  0.81280000  0.18964000  0.26794000  1.0 -0.606588629
O  O17  1  0.93100000  0.64958000  0.76460000  1.0 -0.5403030735
O  O18  1  0.56900000  0.14958000  0.23540000  1.0 -0.5403030735
O  O19  1  0.06900000  0.35042000  0.23540000  1.0 -0.5403030735
O  O20  1  0.43100000  0.85042000  0.76460000  1.0 -0.5508480491
O  O21  1  0.64880000  0.62379000  0.84810000  1.0 -0.5596597018
O  O22  1  0.85120000  0.12379000  0.15190000  1.0 -0.5596597018
O  O23  1  0.35120000  0.37621000  0.15190000  1.0 -0.5596597018
O  O24  1  0.14880000  0.87621000  0.84810000  1.0 -0.5596597018
O  O25  1  0.70320000  0.23326000  0.09770000  1.0 -0.5403030735
O  O26  1  0.79680000  0.73326000  0.90230000  1.0 -0.5403030735
O  O27  1  0.29680000  0.76674000  0.90230000  1.0 -0.5403030735
O  O28  1  0.20320000  0.26674000  0.09770000  1.0 -0.5403030735
O  O29  1  0.03580000  0.29939000  0.36430000  1.0 -0.5508480491
O  O30  1  0.46420000  0.79939000  0.63570000  1.0 -0.5508480491
O  O31  1  0.96420000  0.70061000  0.63570000  1.0 -0.5508480491
O  O32  1  0.53580000  0.20061000  0.36430000  1.0 -0.5508480491
O  O33  1  0.83550000  0.64130000  0.84510000  1.0 -0.5868938984
O  O34  1  0.66450000  0.14130000  0.15490000  1.0 -0.5868938984
O  O35  1  0.16450000  0.35870000  0.15490000  1.0 -0.5868938984
O  O36  1  0.33550000  0.85870000  0.84510000  1.0 -0.5868938984
O  O37  1  0.58150000  0.23663000  0.14390000  1.0 -0.5181496413
O  O38  1  0.91850000  0.73663000  0.85610000  1.0 -0.5181496413
O  O39  1  0.41850000  0.76337000  0.85610000  1.0 -0.5181496413
O  O40  1  0.08150000  0.26337000  0.14390000  1.0 -0.5181496413
O  O41  1  0.93910000  0.27717000  0.20950000  1.0 -0.5508480491
O  O42  1  0.56090000  0.77717000  0.79050000  1.0 -0.5508480491
O  O43  1  0.06090000  0.72283000  0.79050000  1.0 -0.5508480491
O  O44  1  0.43910000  0.22283000  0.20950000  1.0 -0.5508480491
O  O45  1  0.19670000  0.28814000  0.31390000  1.0 -0.5403030735
O  O46  1  0.30330000  0.78814000  0.68610000  1.0 -0.5403030735
O  O47  1  0.80330000  0.71186000  0.68610000  1.0 -0.5403030735
O  O48  1  0.69670000  0.21186000  0.31390000  1.0 -0.5403030735
O  O49  1  0.88650000  0.21926000  0.13690000  1.0 -0.5403030735
O  O50  1  0.61350000  0.71926000  0.86310000  1.0 -0.5403030735
O  O51  1  0.11350000  0.78074000  0.86310000  1.0 -0.5403030735
O  O52  1  0.38650000  0.28074000  0.13690000  1.0 -0.5403030735
O  O53  1  0.57530000  0.27913000  0.28980000  1.0 -0.3439048948
O  O54  1  0.92470000  0.77913000  0.71020000  1.0 -0.346687031
O  O55  1  0.42470000  0.72087000  0.71020000  1.0 -0.346687031
O  O56  1  0.07530000  0.22087000  0.28980000  1.0 -0.346687031
O  O57  1  0.65100000  0.27990000  0.66740000  1.0 0.0273716497
O  O58  1  0.84900000  0.77990000  0.33260000  1.0 0.0235709651
O  O59  1  0.34900000  0.72010000  0.33260000  1.0 0.0273716497
O  O60  1  0.15100000  0.22010000  0.66740000  1.0 0.0235709651
