# DDEC6 charges by PACMAN v1.1 (https://github.com/mtap-research/PACMAN-charge/)
data_KICGAI_ASR_pacman
_symmetry_space_group_name_H-M   'P 1'
_cell_length_a   15.88620000
_cell_length_b   29.88960000
_cell_length_c   16.40670000
_cell_angle_alpha   90.00000000
_cell_angle_beta   102.56600000
_cell_angle_gamma   90.00000000
_symmetry_Int_Tables_number   1
_chemical_formula_structural   Fe3H36C56O13
_chemical_formula_sum   'Fe12 H144 C224 O52'
_cell_volume   7603.81722749
_cell_formula_units_Z   4
loop_
 _symmetry_equiv_pos_site_id
 _symmetry_equiv_pos_as_xyz
  1  'x, y, z'
loop_
 _atom_site_type_symbol
 _atom_site_label
 _atom_site_symmetry_multiplicity
 _atom_site_fract_x
 _atom_site_fract_y
 _atom_site_fract_z
 _atom_site_occupancy
 _atom_site_charge
Fe  Fe1  1  0.42232000  0.21681000  0.24388000  1.0 1.1440155511
Fe  Fe2  1  0.07768000  0.71681000  0.75612000  1.0 1.1440155511
Fe  Fe3  1  0.57768000  0.78319000  0.75612000  1.0 1.1440155511
Fe  Fe4  1  0.92232000  0.28319000  0.24388000  1.0 1.1440155511
Fe  Fe5  1  0.72700000  0.32509000  0.36272000  1.0 1.0745941206
Fe  Fe6  1  0.77300000  0.82509000  0.63728000  1.0 1.0784185534
Fe  Fe7  1  0.27300000  0.67491000  0.63728000  1.0 1.0745941206
Fe  Fe8  1  0.22700000  0.17491000  0.36272000  1.0 1.0745941206
Fe  Fe9  1  0.55069000  0.29417000  0.22504000  1.0 0.9406992202
Fe  Fe10  1  0.94931000  0.79417000  0.77496000  1.0 0.9406992202
Fe  Fe11  1  0.44931000  0.70583000  0.77496000  1.0 0.9406992202
Fe  Fe12  1  0.05069000  0.20583000  0.22504000  1.0 0.9406992202
H  H1  1  0.30181000  0.29464000  0.20860000  1.0 0.0874058013
H  H2  1  0.19819000  0.79464000  0.79140000  1.0 0.0874058013
H  H3  1  0.69819000  0.70536000  0.79140000  1.0 0.0874058013
H  H4  1  0.80181000  0.20536000  0.20860000  1.0 0.0874058013
H  H5  1  0.35733000  0.33499000  0.18343000  1.0 0.0618320112
H  H6  1  0.14267000  0.83499000  0.81657000  1.0 0.0618320112
H  H7  1  0.64267000  0.66501000  0.81657000  1.0 0.0618320112
H  H8  1  0.85733000  0.16501000  0.18343000  1.0 0.0618320112
H  H9  1  0.36585000  0.32230000  0.27964000  1.0 0.1195533729
H  H10  1  0.13415000  0.82230000  0.72036000  1.0 0.1195533729
H  H11  1  0.63415000  0.67770000  0.72036000  1.0 0.1195533729
H  H12  1  0.86585000  0.17770000  0.27964000  1.0 0.1195533729
H  H13  1  0.40157000  0.64031000  0.87999000  1.0 0.1195533729
H  H14  1  0.09843000  0.14031000  0.12001000  1.0 0.1195533729
H  H15  1  0.59843000  0.35969000  0.12001000  1.0 0.1195533729
H  H16  1  0.90157000  0.85969000  0.87999000  1.0 0.1195533729
H  H17  1  0.45380000  0.64791000  0.45770000  1.0 0.1195533729
H  H18  1  0.04620000  0.14791000  0.54230000  1.0 0.1195533729
H  H19  1  0.54620000  0.35209000  0.54230000  1.0 0.1195533729
H  H20  1  0.95380000  0.85209000  0.45770000  1.0 0.1195533729
H  H21  1  0.64988000  0.46044000  0.36708000  1.0 0.1195533729
H  H22  1  0.85012000  0.96044000  0.63292000  1.0 0.1195533729
H  H23  1  0.35012000  0.53956000  0.63292000  1.0 0.1195533729
H  H24  1  0.14988000  0.03956000  0.36708000  1.0 0.1195533729
H  H25  1  0.22051000  0.70985000  0.96514000  1.0 0.1195533729
H  H26  1  0.27949000  0.20985000  0.03486000  1.0 0.1195533729
H  H27  1  0.77949000  0.29015000  0.03486000  1.0 0.1195533729
H  H28  1  0.72051000  0.79015000  0.96514000  1.0 0.1195533729
H  H29  1  0.83846000  0.76208000  0.48037000  1.0 0.1195533729
H  H30  1  0.66154000  0.26208000  0.51963000  1.0 0.1195533729
H  H31  1  0.16154000  0.23792000  0.51963000  1.0 0.1195533729
H  H32  1  0.33846000  0.73792000  0.48037000  1.0 0.1195533729
H  H33  1  0.43028000  0.69462000  0.21490000  1.0 0.1195533729
H  H34  1  0.06972000  0.19462000  0.78510000  1.0 0.1195533729
H  H35  1  0.56972000  0.30538000  0.78510000  1.0 0.1195533729
H  H36  1  0.93028000  0.80538000  0.21490000  1.0 0.1195533729
H  H37  1  0.51462000  0.69237000  0.57335000  1.0 0.130008277
H  H38  1  0.98538000  0.19237000  0.42665000  1.0 0.130008277
H  H39  1  0.48538000  0.30763000  0.42665000  1.0 0.130008277
H  H40  1  0.01462000  0.80763000  0.57335000  1.0 0.130008277
H  H41  1  0.60837000  0.53524000  0.34983000  1.0 0.1127315412
H  H42  1  0.89163000  0.03524000  0.65017000  1.0 0.1127315412
H  H43  1  0.39163000  0.46476000  0.65017000  1.0 0.1127315412
H  H44  1  0.10837000  0.96476000  0.34983000  1.0 0.1127315412
H  H45  1  0.94878000  0.65755000  0.61973000  1.0 0.1195533729
H  H46  1  0.55122000  0.15755000  0.38027000  1.0 0.1195533729
H  H47  1  0.05122000  0.34245000  0.38027000  1.0 0.1195533729
H  H48  1  0.44878000  0.84245000  0.61973000  1.0 0.1195533729
H  H49  1  0.43568000  0.42432000  0.19710000  1.0 0.130008277
H  H50  1  0.06432000  0.92432000  0.80290000  1.0 0.130008277
H  H51  1  0.56432000  0.57568000  0.80290000  1.0 0.130008277
H  H52  1  0.93568000  0.07568000  0.19710000  1.0 0.130008277
H  H53  1  0.28097000  0.68676000  0.10195000  1.0 0.1195533729
H  H54  1  0.21903000  0.18676000  0.89805000  1.0 0.1195533729
H  H55  1  0.71903000  0.31324000  0.89805000  1.0 0.1195533729
H  H56  1  0.78097000  0.81324000  0.10195000  1.0 0.1195533729
H  H57  1  0.41897000  0.56818000  0.12646000  1.0 0.1127315412
H  H58  1  0.08103000  0.06818000  0.87354000  1.0 0.1127315412
H  H59  1  0.58103000  0.43182000  0.87354000  1.0 0.1127315412
H  H60  1  0.91897000  0.93182000  0.12646000  1.0 0.1127315412
H  H61  1  0.79198000  0.43969000  0.34900000  1.0 0.1195533729
H  H62  1  0.70802000  0.93969000  0.65100000  1.0 0.1195533729
H  H63  1  0.20802000  0.56031000  0.65100000  1.0 0.1195533729
H  H64  1  0.29198000  0.06031000  0.34900000  1.0 0.1195533729
H  H65  1  0.95075000  0.61746000  0.49952000  1.0 0.1127315412
H  H66  1  0.54925000  0.11746000  0.50048000  1.0 0.1127315412
H  H67  1  0.04925000  0.38254000  0.50048000  1.0 0.1127315412
H  H68  1  0.45075000  0.88254000  0.49952000  1.0 0.1127315412
H  H69  1  0.88319000  0.57860000  0.38698000  1.0 0.1127315412
H  H70  1  0.61681000  0.07860000  0.61302000  1.0 0.1127315412
H  H71  1  0.11681000  0.42140000  0.61302000  1.0 0.1127315412
H  H72  1  0.38319000  0.92140000  0.38698000  1.0 0.1127315412
H  H73  1  0.92544000  0.69234000  0.26920000  1.0 0.1127315412
H  H74  1  0.57456000  0.19234000  0.73080000  1.0 0.1127315412
H  H75  1  0.07456000  0.30766000  0.73080000  1.0 0.1127315412
H  H76  1  0.42544000  0.80766000  0.26920000  1.0 0.1127315412
H  H77  1  0.64476000  0.76285000  0.43001000  1.0 0.1195533729
H  H78  1  0.85524000  0.26285000  0.56999000  1.0 0.1195533729
H  H79  1  0.35524000  0.23715000  0.56999000  1.0 0.1195533729
H  H80  1  0.14476000  0.73715000  0.43001000  1.0 0.1195533729
H  H81  1  0.52007000  0.59267000  0.37092000  1.0 0.1127315412
H  H82  1  0.97993000  0.09267000  0.62908000  1.0 0.1127315412
H  H83  1  0.47993000  0.40733000  0.62908000  1.0 0.1127315412
H  H84  1  0.02007000  0.90733000  0.37092000  1.0 0.1127315412
H  H85  1  0.87577000  0.71442000  0.13094000  1.0 0.1127315412
H  H86  1  0.62423000  0.21442000  0.86906000  1.0 0.1127315412
H  H87  1  0.12423000  0.28558000  0.86906000  1.0 0.1127315412
H  H88  1  0.37577000  0.78558000  0.13094000  1.0 0.1127315412
H  H89  1  0.99158000  0.50281000  0.21245000  1.0 0.1127315412
H  H90  1  0.50842000  0.00281000  0.78755000  1.0 0.1127315412
H  H91  1  0.00842000  0.49719000  0.78755000  1.0 0.1127315412
H  H92  1  0.49158000  0.99719000  0.21245000  1.0 0.1127315412
H  H93  1  0.98181000  0.42523000  0.22127000  1.0 0.130008277
H  H94  1  0.51819000  0.92523000  0.77873000  1.0 0.130008277
H  H95  1  0.01819000  0.57477000  0.77873000  1.0 0.130008277
H  H96  1  0.48181000  0.07477000  0.22127000  1.0 0.130008277
H  H97  1  0.90030000  0.74835000  0.01058000  1.0 0.1195533729
H  H98  1  0.59970000  0.24835000  0.98942000  1.0 0.1195533729
H  H99  1  0.09970000  0.25165000  0.98942000  1.0 0.1195533729
H  H100  1  0.40030000  0.75165000  0.01058000  1.0 0.1195533729
H  H101  1  0.05724000  0.64661000  0.97829000  1.0 0.130008277
H  H102  1  0.44276000  0.14661000  0.02171000  1.0 0.130008277
H  H103  1  0.94276000  0.35339000  0.02171000  1.0 0.130008277
H  H104  1  0.55724000  0.85339000  0.97829000  1.0 0.130008277
H  H105  1  0.03350000  0.61257000  0.09846000  1.0 0.1195533729
H  H106  1  0.46650000  0.11257000  0.90154000  1.0 0.1195533729
H  H107  1  0.96650000  0.38743000  0.90154000  1.0 0.1195533729
H  H108  1  0.53350000  0.88743000  0.09846000  1.0 0.1195533729
H  H109  1  0.83904000  0.72175000  0.35969000  1.0 0.1127315412
H  H110  1  0.66096000  0.22175000  0.64031000  1.0 0.1127315412
H  H111  1  0.16096000  0.27825000  0.64031000  1.0 0.1127315412
H  H112  1  0.33904000  0.77825000  0.35969000  1.0 0.1127315412
H  H113  1  0.39339000  0.49891000  0.18216000  1.0 0.1195533729
H  H114  1  0.10661000  0.99891000  0.81784000  1.0 0.1195533729
H  H115  1  0.60661000  0.50109000  0.81784000  1.0 0.1195533729
H  H116  1  0.89339000  0.00109000  0.18216000  1.0 0.1195533729
H  H117  1  0.45843000  0.61471000  0.01590000  1.0 0.1195533729
H  H118  1  0.04157000  0.11471000  0.98410000  1.0 0.1195533729
H  H119  1  0.54157000  0.38529000  0.98410000  1.0 0.1195533729
H  H120  1  0.95843000  0.88529000  0.01590000  1.0 0.1195533729
H  H121  1  0.80023000  0.51687000  0.33713000  1.0 0.1127315412
H  H122  1  0.69977000  0.01687000  0.66287000  1.0 0.1127315412
H  H123  1  0.19977000  0.48313000  0.66287000  1.0 0.1127315412
H  H124  1  0.30023000  0.98313000  0.33713000  1.0 0.1127315412
H  H125  1  0.57784000  0.72139000  0.31388000  1.0 0.1195533729
H  H126  1  0.92216000  0.22139000  0.68612000  1.0 0.1195533729
H  H127  1  0.42216000  0.27861000  0.68612000  1.0 0.1195533729
H  H128  1  0.07784000  0.77861000  0.31388000  1.0 0.1195533729
H  H129  1  0.93209000  0.57230000  0.15592000  1.0 0.1127315412
H  H130  1  0.56791000  0.07230000  0.84408000  1.0 0.1127315412
H  H131  1  0.06791000  0.42770000  0.84408000  1.0 0.1127315412
H  H132  1  0.43209000  0.92770000  0.15592000  1.0 0.1127315412
H  H133  1  0.36838000  0.27583000  0.08987000  1.0 0.1041901266
H  H134  1  0.13162000  0.77583000  0.91013000  1.0 0.1041901266
H  H135  1  0.63162000  0.72417000  0.91013000  1.0 0.1041901266
H  H136  1  0.86838000  0.22417000  0.08987000  1.0 0.1041901266
H  H137  1  0.39437000  0.32607000  0.11842000  1.0 0.0802937095
H  H138  1  0.10563000  0.82607000  0.88158000  1.0 0.0802937095
H  H139  1  0.60563000  0.67393000  0.88158000  1.0 0.0802937095
H  H140  1  0.89437000  0.17393000  0.11842000  1.0 0.0802937095
H  H141  1  0.30989000  0.30393000  0.13951000  1.0 0.0471102302
H  H142  1  0.19011000  0.80393000  0.86049000  1.0 0.0471102302
H  H143  1  0.69011000  0.69607000  0.86049000  1.0 0.0471102302
H  H144  1  0.80989000  0.19607000  0.13951000  1.0 0.0471102302
C  C1  1  0.35720000  0.31034000  0.22280000  1.0 -0.0994847845
C  C2  1  0.14280000  0.81034000  0.77720000  1.0 -0.0994847845
C  C3  1  0.64280000  0.68966000  0.77720000  1.0 -0.0994847845
C  C4  1  0.85720000  0.18966000  0.22280000  1.0 -0.0994847845
C  C5  1  0.41630000  0.63350000  0.15819000  1.0 0.0802937095
C  C6  1  0.08370000  0.13350000  0.84181000  1.0 0.0874058013
C  C7  1  0.58370000  0.36650000  0.84181000  1.0 0.0874058013
C  C8  1  0.91630000  0.86650000  0.15819000  1.0 0.0802937095
C  C9  1  0.89610000  0.71437000  0.56170000  1.0 -0.0327347148
C  C10  1  0.60390000  0.21437000  0.43830000  1.0 -0.0327347148
C  C11  1  0.10390000  0.28563000  0.43830000  1.0 -0.0327347148
C  C12  1  0.39610000  0.78563000  0.56170000  1.0 -0.0327347148
C  C13  1  0.37690000  0.64986000  0.92490000  1.0 -0.1070263605
C  C14  1  0.12310000  0.14986000  0.07510000  1.0 -0.1070263605
C  C15  1  0.62310000  0.35014000  0.07510000  1.0 -0.1070263605
C  C16  1  0.87690000  0.85014000  0.92490000  1.0 -0.1070263605
C  C17  1  0.54810000  0.43504000  0.28270000  1.0 -0.0377718743
C  C18  1  0.95190000  0.93504000  0.71730000  1.0 -0.0377718743
C  C19  1  0.45190000  0.56496000  0.71730000  1.0 -0.0377718743
C  C20  1  0.04810000  0.06496000  0.28270000  1.0 -0.0377718743
C  C21  1  0.49250000  0.67133000  0.45190000  1.0 -0.143306184
C  C22  1  0.00750000  0.17133000  0.54810000  1.0 -0.143306184
C  C23  1  0.50750000  0.32867000  0.54810000  1.0 -0.143306184
C  C24  1  0.99250000  0.82867000  0.45190000  1.0 -0.143306184
C  C25  1  0.59810000  0.46822000  0.32860000  1.0 -0.0994847845
C  C26  1  0.90190000  0.96822000  0.67140000  1.0 -0.0994847845
C  C27  1  0.40190000  0.53178000  0.67140000  1.0 -0.0994847845
C  C28  1  0.09810000  0.03178000  0.32860000  1.0 -0.0994847845
C  C29  1  0.51200000  0.67945000  0.37470000  1.0 0.0731471615
C  C30  1  0.98800000  0.17945000  0.62530000  1.0 0.0731471615
C  C31  1  0.48800000  0.32055000  0.62530000  1.0 0.0731471615
C  C32  1  0.01200000  0.82055000  0.37470000  1.0 0.0731471615
C  C33  1  0.57680000  0.38739000  0.29050000  1.0 0.590950266
C  C34  1  0.92320000  0.88739000  0.70950000  1.0 0.590950266
C  C35  1  0.42320000  0.61261000  0.70950000  1.0 0.590950266
C  C36  1  0.07680000  0.11261000  0.29050000  1.0 0.590950266
C  C37  1  0.30710000  0.67853000  0.91022000  1.0 -0.0377718743
C  C38  1  0.19290000  0.17853000  0.08978000  1.0 -0.0377718743
C  C39  1  0.69290000  0.32147000  0.08978000  1.0 -0.0377718743
C  C40  1  0.80710000  0.82147000  0.91022000  1.0 -0.0377718743
C  C41  1  0.37710000  0.64945000  0.07240000  1.0 0.0802937095
C  C42  1  0.12290000  0.14945000  0.92760000  1.0 0.0802937095
C  C43  1  0.62290000  0.35055000  0.92760000  1.0 0.0802937095
C  C44  1  0.87710000  0.85055000  0.07240000  1.0 0.0802937095
C  C45  1  0.27030000  0.69133000  0.97570000  1.0 -0.0994847845
C  C46  1  0.22970000  0.19133000  0.02430000  1.0 -0.0994847845
C  C47  1  0.72970000  0.30867000  0.02430000  1.0 -0.0994847845
C  C48  1  0.77030000  0.80867000  0.97570000  1.0 -0.0994847845
C  C49  1  0.86220000  0.73278000  0.48430000  1.0 -0.0920095774
C  C50  1  0.63780000  0.23278000  0.51570000  1.0 -0.0920095774
C  C51  1  0.13780000  0.26722000  0.51570000  1.0 -0.0920095774
C  C52  1  0.36220000  0.76722000  0.48430000  1.0 -0.0920095774
C  C53  1  0.89750000  0.51791000  0.27420000  1.0 0.0802937095
C  C54  1  0.60250000  0.01791000  0.72580000  1.0 0.0802937095
C  C55  1  0.10250000  0.48209000  0.72580000  1.0 0.0802937095
C  C56  1  0.39750000  0.98209000  0.27420000  1.0 0.0802937095
C  C57  1  0.49670000  0.52453000  0.26371000  1.0 0.0802937095
C  C58  1  0.00330000  0.02453000  0.73629000  1.0 0.0802937095
C  C59  1  0.50330000  0.47547000  0.73629000  1.0 0.0802937095
C  C60  1  0.99670000  0.97547000  0.26371000  1.0 0.0802937095
C  C61  1  0.48030000  0.64854000  0.30390000  1.0 0.0802937095
C  C62  1  0.01970000  0.14854000  0.69610000  1.0 0.0802937095
C  C63  1  0.51970000  0.35146000  0.69610000  1.0 0.0802937095
C  C64  1  0.98030000  0.85146000  0.30390000  1.0 0.0802937095
C  C65  1  0.89730000  0.66543000  0.41640000  1.0 0.0802937095
C  C66  1  0.60270000  0.16543000  0.58360000  1.0 0.0802937095
C  C67  1  0.10270000  0.33457000  0.58360000  1.0 0.0802937095
C  C68  1  0.39730000  0.83457000  0.41640000  1.0 0.0802937095
C  C69  1  0.44080000  0.66355000  0.22430000  1.0 -0.2056711212
C  C70  1  0.05920000  0.16355000  0.77570000  1.0 -0.2056711212
C  C71  1  0.55920000  0.33645000  0.77570000  1.0 -0.2056711212
C  C72  1  0.94080000  0.83645000  0.22430000  1.0 -0.1979677424
C  C73  1  0.52950000  0.69746000  0.52110000  1.0 -0.0994847845
C  C74  1  0.97050000  0.19746000  0.47890000  1.0 -0.0994847845
C  C75  1  0.47050000  0.30254000  0.47890000  1.0 -0.0994847845
C  C76  1  0.02950000  0.80254000  0.52110000  1.0 -0.0994847845
C  C77  1  0.57310000  0.51271000  0.31880000  1.0 -0.1501998268
C  C78  1  0.92690000  0.01271000  0.68120000  1.0 -0.1501998268
C  C79  1  0.42690000  0.48729000  0.68120000  1.0 -0.1501998268
C  C80  1  0.07310000  0.98729000  0.31880000  1.0 -0.1501998268
C  C81  1  0.92770000  0.67090000  0.56670000  1.0 -0.0808904315
C  C82  1  0.57230000  0.17090000  0.43330000  1.0 -0.0808904315
C  C83  1  0.07230000  0.32910000  0.43330000  1.0 -0.0808904315
C  C84  1  0.42770000  0.82910000  0.56670000  1.0 -0.0808904315
C  C85  1  0.47100000  0.44681000  0.22820000  1.0 -0.1070263605
C  C86  1  0.02900000  0.94681000  0.77180000  1.0 -0.1070263605
C  C87  1  0.52900000  0.55319000  0.77180000  1.0 -0.1070263605
C  C88  1  0.97100000  0.05319000  0.22820000  1.0 -0.1070263605
C  C89  1  0.30580000  0.67726000  0.05710000  1.0 -0.1501998268
C  C90  1  0.19420000  0.17726000  0.94290000  1.0 -0.1501998268
C  C91  1  0.69420000  0.32274000  0.94290000  1.0 -0.1501998268
C  C92  1  0.80580000  0.82274000  0.05710000  1.0 -0.1501998268
C  C93  1  0.99260000  0.72170000  0.90250000  1.0 0.581032217
C  C94  1  0.50740000  0.22170000  0.09750000  1.0 0.581032217
C  C95  1  0.00740000  0.27830000  0.09750000  1.0 0.581032217
C  C96  1  0.49260000  0.77830000  0.90250000  1.0 0.581032217
C  C97  1  0.47300000  0.57248000  0.25070000  1.0 0.0802937095
C  C98  1  0.02700000  0.07248000  0.74930000  1.0 0.0802937095
C  C99  1  0.52700000  0.42752000  0.74930000  1.0 0.0802937095
C  C100  1  0.97300000  0.92752000  0.25070000  1.0 0.0802937095
C  C101  1  0.43380000  0.58855000  0.17176000  1.0 -0.1979677424
C  C102  1  0.06620000  0.08855000  0.82824000  1.0 -0.1979677424
C  C103  1  0.56620000  0.41145000  0.82824000  1.0 -0.1979677424
C  C104  1  0.93380000  0.91145000  0.17176000  1.0 -0.1979677424
C  C105  1  0.83260000  0.45237000  0.32090000  1.0 -0.0994847845
C  C106  1  0.66740000  0.95237000  0.67910000  1.0 -0.0994847845
C  C107  1  0.16740000  0.54763000  0.67910000  1.0 -0.0994847845
C  C108  1  0.33260000  0.04763000  0.32090000  1.0 -0.0994847845
C  C109  1  0.92850000  0.64707000  0.49510000  1.0 -0.143306184
C  C110  1  0.57150000  0.14707000  0.50490000  1.0 -0.143306184
C  C111  1  0.07150000  0.35293000  0.50490000  1.0 -0.143306184
C  C112  1  0.42850000  0.85293000  0.49510000  1.0 -0.143306184
C  C113  1  0.89580000  0.59327000  0.33970000  1.0 -0.1979677424
C  C114  1  0.60420000  0.09327000  0.66030000  1.0 -0.1979677424
C  C115  1  0.10420000  0.40673000  0.66030000  1.0 -0.1979677424
C  C116  1  0.39580000  0.90673000  0.33970000  1.0 -0.1979677424
C  C117  1  0.92070000  0.66066000  0.27000000  1.0 -0.1979677424
C  C118  1  0.57930000  0.16066000  0.73000000  1.0 -0.1979677424
C  C119  1  0.07930000  0.33934000  0.73000000  1.0 -0.1979677424
C  C120  1  0.42070000  0.83934000  0.27000000  1.0 -0.1979677424
C  C121  1  0.58800000  0.73077000  0.51352000  1.0 -0.0377718743
C  C122  1  0.91200000  0.23077000  0.48648000  1.0 -0.0377718743
C  C123  1  0.41200000  0.26923000  0.48648000  1.0 -0.0377718743
C  C124  1  0.08800000  0.76923000  0.51352000  1.0 -0.0377718743
C  C125  1  0.60580000  0.73958000  0.43590000  1.0 -0.0994847845
C  C126  1  0.89420000  0.23958000  0.56410000  1.0 -0.0994847845
C  C127  1  0.39420000  0.26042000  0.56410000  1.0 -0.0994847845
C  C128  1  0.10580000  0.76042000  0.43590000  1.0 -0.0994847845
C  C129  1  0.49480000  0.60323000  0.31649000  1.0 -0.1979677424
C  C130  1  0.00520000  0.10323000  0.68351000  1.0 -0.1979677424
C  C131  1  0.50520000  0.39677000  0.68351000  1.0 -0.1979677424
C  C132  1  0.99480000  0.89677000  0.31649000  1.0 -0.1979677424
C  C133  1  0.88610000  0.42446000  0.28699000  1.0 -0.0377718743
C  C134  1  0.61390000  0.92446000  0.71301000  1.0 -0.0377718743
C  C135  1  0.11390000  0.57554000  0.71301000  1.0 -0.0377718743
C  C136  1  0.38610000  0.07554000  0.28699000  1.0 -0.0377718743
C  C137  1  0.91170000  0.70013000  0.09950000  1.0 -0.1590603498
C  C138  1  0.58830000  0.20013000  0.90050000  1.0 -0.1590603498
C  C139  1  0.08830000  0.29987000  0.90050000  1.0 -0.1590603498
C  C140  1  0.41170000  0.79987000  0.09950000  1.0 -0.1590603498
C  C141  1  0.90630000  0.56779000  0.27200000  1.0 0.0802937095
C  C142  1  0.59370000  0.06779000  0.72800000  1.0 0.0802937095
C  C143  1  0.09370000  0.43221000  0.72800000  1.0 0.0802937095
C  C144  1  0.40630000  0.93221000  0.27200000  1.0 0.0802937095
C  C145  1  0.95070000  0.49001000  0.24010000  1.0 -0.1501998268
C  C146  1  0.54930000  0.99001000  0.75990000  1.0 -0.1501998268
C  C147  1  0.04930000  0.50999000  0.75990000  1.0 -0.1501998268
C  C148  1  0.45070000  0.00999000  0.24010000  1.0 -0.1501998268
C  C149  1  0.94530000  0.44374000  0.24560000  1.0 -0.1070263605
C  C150  1  0.55470000  0.94374000  0.75440000  1.0 -0.1070263605
C  C151  1  0.05470000  0.55626000  0.75440000  1.0 -0.1070263605
C  C152  1  0.44530000  0.05626000  0.24560000  1.0 -0.1070263605
C  C153  1  0.92680000  0.72045000  0.02810000  1.0 -0.0994847845
C  C154  1  0.57320000  0.22045000  0.97190000  1.0 -0.0994847845
C  C155  1  0.07320000  0.27955000  0.97190000  1.0 -0.0994847845
C  C156  1  0.42680000  0.77955000  0.02810000  1.0 -0.0994847845
C  C157  1  0.01980000  0.66029000  0.00880000  1.0 -0.0994847845
C  C158  1  0.48020000  0.16029000  0.99120000  1.0 -0.0994847845
C  C159  1  0.98020000  0.33971000  0.99120000  1.0 -0.0994847845
C  C160  1  0.51980000  0.83971000  0.00880000  1.0 -0.0994847845
C  C161  1  0.00500000  0.63988000  0.08010000  1.0 -0.1590603498
C  C162  1  0.49500000  0.13988000  0.91990000  1.0 -0.1590603498
C  C163  1  0.99500000  0.36012000  0.91990000  1.0 -0.1590603498
C  C164  1  0.50500000  0.86012000  0.08010000  1.0 -0.1590603498
C  C165  1  0.86260000  0.70875000  0.41260000  1.0 -0.1501998268
C  C166  1  0.63740000  0.20875000  0.58740000  1.0 -0.1501998268
C  C167  1  0.13740000  0.29125000  0.58740000  1.0 -0.1501998268
C  C168  1  0.36260000  0.79125000  0.41260000  1.0 -0.1501998268
C  C169  1  0.44600000  0.49120000  0.21930000  1.0 -0.1501998268
C  C170  1  0.05400000  0.99120000  0.78070000  1.0 -0.1501998268
C  C171  1  0.55400000  0.50880000  0.78070000  1.0 -0.1501998268
C  C172  1  0.94600000  0.00880000  0.21930000  1.0 -0.1501998268
C  C173  1  0.94900000  0.65877000  0.12550000  1.0 0.0802937095
C  C174  1  0.55100000  0.15877000  0.87450000  1.0 0.0802937095
C  C175  1  0.05100000  0.34123000  0.87450000  1.0 0.0802937095
C  C176  1  0.44900000  0.84123000  0.12550000  1.0 0.0802937095
C  C177  1  0.87920000  0.37496000  0.29599000  1.0 0.590950266
C  C178  1  0.62080000  0.87496000  0.70401000  1.0 0.590950266
C  C179  1  0.12080000  0.62504000  0.70401000  1.0 0.590950266
C  C180  1  0.37920000  0.12504000  0.29599000  1.0 0.590950266
C  C181  1  0.41120000  0.63497000  0.00610000  1.0 -0.1501998268
C  C182  1  0.08880000  0.13497000  0.99390000  1.0 -0.1501998268
C  C183  1  0.58880000  0.36503000  0.99390000  1.0 -0.1501998268
C  C184  1  0.91120000  0.86503000  0.00610000  1.0 -0.1501998268
C  C185  1  0.27190000  0.69566000  0.82423000  1.0 0.6086198692
C  C186  1  0.22810000  0.19566000  0.17577000  1.0 0.6086198692
C  C187  1  0.72810000  0.30434000  0.17577000  1.0 0.6086198692
C  C188  1  0.77190000  0.80434000  0.82423000  1.0 0.6086198692
C  C189  1  0.90910000  0.74113000  0.63940000  1.0 0.590950266
C  C190  1  0.59090000  0.24113000  0.36060000  1.0 0.590950266
C  C191  1  0.09090000  0.25887000  0.36060000  1.0 0.590950266
C  C192  1  0.40910000  0.75887000  0.63940000  1.0 0.590950266
C  C193  1  0.83780000  0.49837000  0.31420000  1.0 -0.1501998268
C  C194  1  0.66220000  0.99837000  0.68580000  1.0 -0.1501998268
C  C195  1  0.16220000  0.50163000  0.68580000  1.0 -0.1501998268
C  C196  1  0.33780000  0.00163000  0.31420000  1.0 -0.1501998268
C  C197  1  0.98020000  0.70057000  0.98180000  1.0 -0.0327347148
C  C198  1  0.51980000  0.20057000  0.01820000  1.0 -0.0327347148
C  C199  1  0.01980000  0.29943000  0.01820000  1.0 -0.0327347148
C  C200  1  0.48020000  0.79943000  0.98180000  1.0 -0.0327347148
C  C201  1  0.90320000  0.63961000  0.34050000  1.0 0.0874058013
C  C202  1  0.59680000  0.13961000  0.65950000  1.0 0.0874058013
C  C203  1  0.09680000  0.36039000  0.65950000  1.0 0.0874058013
C  C204  1  0.40320000  0.86039000  0.34050000  1.0 0.0874058013
C  C205  1  0.62990000  0.75786000  0.58810000  1.0 0.590950266
C  C206  1  0.87010000  0.25786000  0.41190000  1.0 0.590950266
C  C207  1  0.37010000  0.24214000  0.41190000  1.0 0.590950266
C  C208  1  0.12990000  0.74214000  0.58810000  1.0 0.590950266
C  C209  1  0.56680000  0.71448000  0.36710000  1.0 -0.1501998268
C  C210  1  0.93320000  0.21448000  0.63290000  1.0 -0.1501998268
C  C211  1  0.43320000  0.28552000  0.63290000  1.0 -0.1501998268
C  C212  1  0.06680000  0.78552000  0.36710000  1.0 -0.1501998268
C  C213  1  0.93150000  0.63602000  0.20050000  1.0 0.0802937095
C  C214  1  0.56850000  0.13602000  0.79950000  1.0 0.0802937095
C  C215  1  0.06850000  0.36398000  0.79950000  1.0 0.0802937095
C  C216  1  0.43150000  0.86398000  0.20050000  1.0 0.0802937095
C  C217  1  0.92440000  0.58944000  0.20250000  1.0 -0.1979677424
C  C218  1  0.57560000  0.08944000  0.79750000  1.0 -0.1979677424
C  C219  1  0.07560000  0.41056000  0.79750000  1.0 -0.1979677424
C  C220  1  0.42440000  0.91056000  0.20250000  1.0 -0.1979677424
C  C221  1  0.36900000  0.29820000  0.13360000  1.0 -0.1590603498
C  C222  1  0.13100000  0.79820000  0.86640000  1.0 -0.1590603498
C  C223  1  0.63100000  0.70180000  0.86640000  1.0 -0.1590603498
C  C224  1  0.86900000  0.20180000  0.13360000  1.0 -0.1590603498
O  O1  1  0.42393000  0.28049000  0.21817000  1.0 -0.3266730303
O  O2  1  0.07607000  0.78049000  0.78183000  1.0 -0.3266730303
O  O3  1  0.57607000  0.71951000  0.78183000  1.0 -0.3266730303
O  O4  1  0.92393000  0.21951000  0.21817000  1.0 -0.3266730303
O  O5  1  0.20019000  0.71467000  0.81134000  1.0 -0.5527087072
O  O6  1  0.29981000  0.21467000  0.18866000  1.0 -0.5527087072
O  O7  1  0.79981000  0.28533000  0.18866000  1.0 -0.5527087072
O  O8  1  0.70019000  0.78533000  0.81134000  1.0 -0.5527087072
O  O9  1  0.94531000  0.72257000  0.70984000  1.0 -0.5790868247
O  O10  1  0.55469000  0.22257000  0.29016000  1.0 -0.5790868247
O  O11  1  0.05469000  0.27743000  0.29016000  1.0 -0.5790868247
O  O12  1  0.44531000  0.77743000  0.70984000  1.0 -0.5790868247
O  O13  1  0.64637000  0.37899000  0.34241000  1.0 -0.5713472659
O  O14  1  0.85363000  0.87899000  0.65759000  1.0 -0.5713472659
O  O15  1  0.35363000  0.62101000  0.65759000  1.0 -0.5713472659
O  O16  1  0.14637000  0.12101000  0.34241000  1.0 -0.5713472659
O  O17  1  0.04232000  0.70186000  0.86439000  1.0 -0.5415111179
O  O18  1  0.45768000  0.20186000  0.13561000  1.0 -0.5415111179
O  O19  1  0.95768000  0.29814000  0.13561000  1.0 -0.5415111179
O  O20  1  0.54232000  0.79814000  0.86439000  1.0 -0.5415111179
O  O21  1  0.58671000  0.76580000  0.64132000  1.0 -0.5527087072
O  O22  1  0.91329000  0.26580000  0.35868000  1.0 -0.5527087072
O  O23  1  0.41329000  0.23420000  0.35868000  1.0 -0.5527087072
O  O24  1  0.08671000  0.73420000  0.64132000  1.0 -0.5527087072
O  O25  1  0.31553000  0.69136000  0.76811000  1.0 -0.5923346872
O  O26  1  0.18447000  0.19136000  0.23189000  1.0 -0.5923346872
O  O27  1  0.68447000  0.30864000  0.23189000  1.0 -0.5923346872
O  O28  1  0.81553000  0.80864000  0.76811000  1.0 -0.5923346872
O  O29  1  0.89100000  0.78167000  0.63897000  1.0 -0.5618380229
O  O30  1  0.60900000  0.28167000  0.36103000  1.0 -0.5618380229
O  O31  1  0.10900000  0.21833000  0.36103000  1.0 -0.5618380229
O  O32  1  0.39100000  0.71833000  0.63897000  1.0 -0.5618380229
O  O33  1  0.95347000  0.75763000  0.88007000  1.0 -0.5527087072
O  O34  1  0.54653000  0.25763000  0.11993000  1.0 -0.5527087072
O  O35  1  0.04653000  0.24237000  0.11993000  1.0 -0.5527087072
O  O36  1  0.45347000  0.74237000  0.88007000  1.0 -0.5527087072
O  O37  1  0.53139000  0.35917000  0.24306000  1.0 -0.5618380229
O  O38  1  0.96861000  0.85917000  0.75694000  1.0 -0.5618380229
O  O39  1  0.46861000  0.64083000  0.75694000  1.0 -0.5618380229
O  O40  1  0.03139000  0.14083000  0.24306000  1.0 -0.5618380229
O  O41  1  0.70615000  0.77009000  0.59229000  1.0 -0.5618380229
O  O42  1  0.79385000  0.27009000  0.40771000  1.0 -0.5618380229
O  O43  1  0.29385000  0.22991000  0.40771000  1.0 -0.5618380229
O  O44  1  0.20615000  0.72991000  0.59229000  1.0 -0.5618380229
O  O45  1  0.82920000  0.36076000  0.33841000  1.0 -0.5618380229
O  O46  1  0.67080000  0.86076000  0.66159000  1.0 -0.5618380229
O  O47  1  0.17080000  0.63924000  0.66159000  1.0 -0.5618380229
O  O48  1  0.32920000  0.13924000  0.33841000  1.0 -0.5618380229
O  O49  1  0.92624000  0.35021000  0.26047000  1.0 -0.5527087072
O  O50  1  0.57376000  0.85021000  0.73953000  1.0 -0.5527087072
O  O51  1  0.07376000  0.64979000  0.73953000  1.0 -0.5527087072
O  O52  1  0.42624000  0.14979000  0.26047000  1.0 -0.5527087072
