# DDEC6 charges by PACMAN v1.1 (https://github.com/mtap-research/PACMAN-charge/)
data_KICGEM_ASR_pacman
_symmetry_space_group_name_H-M   'P 1'
_cell_length_a   15.99060000
_cell_length_b   30.04010000
_cell_length_c   16.35160000
_cell_angle_alpha   90.00000000
_cell_angle_beta   102.77700000
_cell_angle_gamma   90.00000000
_symmetry_Int_Tables_number   1
_chemical_formula_structural   Fe3H47C66NO15
_chemical_formula_sum   'Fe12 H188 C264 N4 O60'
_cell_volume   7660.14688710
_cell_formula_units_Z   4
loop_
 _symmetry_equiv_pos_site_id
 _symmetry_equiv_pos_as_xyz
  1  'x, y, z'
loop_
 _atom_site_type_symbol
 _atom_site_label
 _atom_site_symmetry_multiplicity
 _atom_site_fract_x
 _atom_site_fract_y
 _atom_site_fract_z
 _atom_site_occupancy
 _atom_site_charge
Fe  Fe1  1  0.57871000  0.78169000  0.26203000  1.0 1.1494997915
Fe  Fe2  1  0.92129000  0.28169000  0.73797000  1.0 1.1494997915
Fe  Fe3  1  0.42129000  0.21831000  0.73797000  1.0 1.1494997915
Fe  Fe4  1  0.07871000  0.71831000  0.26203000  1.0 1.1494997915
Fe  Fe5  1  0.44637000  0.70825000  0.27913000  1.0 0.9332513686
Fe  Fe6  1  0.05363000  0.20825000  0.72087000  1.0 0.9332513686
Fe  Fe7  1  0.55363000  0.29175000  0.72087000  1.0 0.9332513686
Fe  Fe8  1  0.94637000  0.79175000  0.27913000  1.0 0.9332513686
Fe  Fe9  1  0.72823000  0.32152000  0.86238000  1.0 1.0613327499
Fe  Fe10  1  0.77177000  0.82152000  0.13762000  1.0 1.0613327499
Fe  Fe11  1  0.27177000  0.67848000  0.13762000  1.0 1.0613327499
Fe  Fe12  1  0.22823000  0.17848000  0.86238000  1.0 1.0613327499
H  H1  1  0.61538000  0.66868000  0.37164000  1.0 0.0712306395
H  H2  1  0.88462000  0.16868000  0.62836000  1.0 0.0712306395
H  H3  1  0.38462000  0.33132000  0.62836000  1.0 0.0712306395
H  H4  1  0.11538000  0.83132000  0.37164000  1.0 0.0712306395
H  H5  1  0.60914000  0.71425000  0.42065000  1.0 0.1121870841
H  H6  1  0.89086000  0.21425000  0.57935000  1.0 0.1121870841
H  H7  1  0.39086000  0.28575000  0.57935000  1.0 0.1121870841
H  H8  1  0.10914000  0.78575000  0.42065000  1.0 0.1121870841
H  H9  1  0.68642000  0.70652000  0.37455000  1.0 0.0811517754
H  H10  1  0.81358000  0.20652000  0.62545000  1.0 0.0811517754
H  H11  1  0.31358000  0.29348000  0.62545000  1.0 0.0811517754
H  H12  1  0.18642000  0.79348000  0.37455000  1.0 0.0811517754
H  H13  1  0.51737000  0.68570000  0.08293000  1.0 0.127619445
H  H14  1  0.98263000  0.18570000  0.91707000  1.0 0.127619445
H  H15  1  0.48263000  0.31430000  0.91707000  1.0 0.127619445
H  H16  1  0.01737000  0.81430000  0.08293000  1.0 0.127619445
H  H17  1  0.42370000  0.56618000  0.62710000  1.0 0.127619445
H  H18  1  0.07630000  0.06618000  0.37290000  1.0 0.127619445
H  H19  1  0.57630000  0.43382000  0.37290000  1.0 0.127619445
H  H20  1  0.92370000  0.93382000  0.62710000  1.0 0.127619445
H  H21  1  0.22369000  0.70973000  0.47242000  1.0 0.127619445
H  H22  1  0.27631000  0.20973000  0.52758000  1.0 0.127619445
H  H23  1  0.77631000  0.29027000  0.52758000  1.0 0.127619445
H  H24  1  0.72369000  0.79027000  0.47242000  1.0 0.127619445
H  H25  1  0.80308000  0.43711000  0.86214000  1.0 0.127619445
H  H26  1  0.69692000  0.93711000  0.13786000  1.0 0.127619445
H  H27  1  0.19692000  0.56289000  0.13786000  1.0 0.127619445
H  H28  1  0.30308000  0.06289000  0.86214000  1.0 0.127619445
H  H29  1  0.95609000  0.61499000  0.01009000  1.0 0.121283619
H  H30  1  0.54391000  0.11499000  0.98991000  1.0 0.121283619
H  H31  1  0.04391000  0.38501000  0.98991000  1.0 0.121283619
H  H32  1  0.45609000  0.88501000  0.01009000  1.0 0.121283619
H  H33  1  0.45655000  0.64115000  0.96770000  1.0 0.121283619
H  H34  1  0.04345000  0.14115000  0.03230000  1.0 0.121283619
H  H35  1  0.54345000  0.35885000  0.03230000  1.0 0.121283619
H  H36  1  0.95655000  0.85885000  0.96770000  1.0 0.121283619
H  H37  1  0.28648000  0.68572000  0.60795000  1.0 0.121283619
H  H38  1  0.21352000  0.18572000  0.39205000  1.0 0.121283619
H  H39  1  0.71352000  0.31428000  0.39205000  1.0 0.121283619
H  H40  1  0.78648000  0.81428000  0.60795000  1.0 0.121283619
H  H41  1  0.85372000  0.76105000  0.97863000  1.0 0.121283619
H  H42  1  0.64628000  0.26105000  0.02137000  1.0 0.121283619
H  H43  1  0.14628000  0.23895000  0.02137000  1.0 0.121283619
H  H44  1  0.35372000  0.73895000  0.97863000  1.0 0.121283619
H  H45  1  0.40282000  0.64154000  0.38261000  1.0 0.127619445
H  H46  1  0.09718000  0.14154000  0.61739000  1.0 0.127619445
H  H47  1  0.59718000  0.35846000  0.61739000  1.0 0.127619445
H  H48  1  0.90282000  0.85846000  0.38261000  1.0 0.127619445
H  H49  1  0.60886000  0.53105000  0.85308000  1.0 0.121283619
H  H50  1  0.89114000  0.03105000  0.14692000  1.0 0.121283619
H  H51  1  0.39114000  0.46895000  0.14692000  1.0 0.121283619
H  H52  1  0.10886000  0.96895000  0.85308000  1.0 0.121283619
H  H53  1  0.51718000  0.58684000  0.87426000  1.0 0.121283619
H  H54  1  0.98282000  0.08684000  0.12574000  1.0 0.121283619
H  H55  1  0.48282000  0.41316000  0.12574000  1.0 0.121283619
H  H56  1  0.01718000  0.91316000  0.87426000  1.0 0.121283619
H  H57  1  0.03071000  0.60627000  0.59612000  1.0 0.121283619
H  H58  1  0.46929000  0.10627000  0.40388000  1.0 0.121283619
H  H59  1  0.96929000  0.39373000  0.40388000  1.0 0.121283619
H  H60  1  0.53071000  0.89373000  0.59612000  1.0 0.121283619
H  H61  1  0.64145000  0.75711000  0.93594000  1.0 0.127619445
H  H62  1  0.85855000  0.25711000  0.06406000  1.0 0.127619445
H  H63  1  0.35855000  0.24289000  0.06406000  1.0 0.127619445
H  H64  1  0.14145000  0.74289000  0.93594000  1.0 0.127619445
H  H65  1  0.05147000  0.64143000  0.47579000  1.0 0.127619445
H  H66  1  0.44853000  0.14143000  0.52421000  1.0 0.127619445
H  H67  1  0.94853000  0.35857000  0.52421000  1.0 0.127619445
H  H68  1  0.55147000  0.85857000  0.47579000  1.0 0.127619445
H  H69  1  0.39901000  0.49618000  0.67673000  1.0 0.121283619
H  H70  1  0.10099000  0.99618000  0.32327000  1.0 0.121283619
H  H71  1  0.60099000  0.50382000  0.32327000  1.0 0.121283619
H  H72  1  0.89901000  0.00382000  0.67673000  1.0 0.121283619
H  H73  1  0.57115000  0.71636000  0.81931000  1.0 0.121283619
H  H74  1  0.92885000  0.21636000  0.18069000  1.0 0.121283619
H  H75  1  0.42885000  0.28364000  0.18069000  1.0 0.121283619
H  H76  1  0.07115000  0.78364000  0.81931000  1.0 0.121283619
H  H77  1  0.94821000  0.65687000  0.12662000  1.0 0.121283619
H  H78  1  0.55179000  0.15687000  0.87338000  1.0 0.121283619
H  H79  1  0.05179000  0.34313000  0.87338000  1.0 0.121283619
H  H80  1  0.44821000  0.84313000  0.12662000  1.0 0.127619445
H  H81  1  0.93805000  0.56612000  0.66270000  1.0 0.121283619
H  H82  1  0.56195000  0.06612000  0.33730000  1.0 0.121283619
H  H83  1  0.06195000  0.43388000  0.33730000  1.0 0.121283619
H  H84  1  0.43805000  0.93388000  0.66270000  1.0 0.121283619
H  H85  1  0.86999000  0.70522000  0.63103000  1.0 0.1121870841
H  H86  1  0.63001000  0.20522000  0.36897000  1.0 0.1121870841
H  H87  1  0.13001000  0.29478000  0.36897000  1.0 0.1121870841
H  H88  1  0.36999000  0.79478000  0.63103000  1.0 0.1121870841
H  H89  1  0.93324000  0.68709000  0.77287000  1.0 0.1121870841
H  H90  1  0.56676000  0.18709000  0.22713000  1.0 0.1121870841
H  H91  1  0.06676000  0.31291000  0.22713000  1.0 0.1121870841
H  H92  1  0.43324000  0.81291000  0.77287000  1.0 0.1121870841
H  H93  1  0.85727000  0.71876000  0.86073000  1.0 0.121283619
H  H94  1  0.64273000  0.21876000  0.13927000  1.0 0.121283619
H  H95  1  0.14273000  0.28124000  0.13927000  1.0 0.121283619
H  H96  1  0.35727000  0.78124000  0.86073000  1.0 0.1121870841
H  H97  1  0.88647000  0.73892000  0.50733000  1.0 0.121283619
H  H98  1  0.61353000  0.23892000  0.49267000  1.0 0.121283619
H  H99  1  0.11353000  0.26108000  0.49267000  1.0 0.121283619
H  H100  1  0.38647000  0.76108000  0.50733000  1.0 0.121283619
H  H101  1  0.90078000  0.57493000  0.89884000  1.0 0.1121870841
H  H102  1  0.59922000  0.07493000  0.10116000  1.0 0.1121870841
H  H103  1  0.09922000  0.42507000  0.10116000  1.0 0.1121870841
H  H104  1  0.40078000  0.92507000  0.89884000  1.0 0.1121870841
H  H105  1  0.99991000  0.49725000  0.72012000  1.0 0.127619445
H  H106  1  0.50009000  0.99725000  0.27988000  1.0 0.127619445
H  H107  1  0.00009000  0.50275000  0.27988000  1.0 0.127619445
H  H108  1  0.49991000  0.00275000  0.72012000  1.0 0.127619445
H  H109  1  0.46068000  0.61500000  0.51702000  1.0 0.121283619
H  H110  1  0.03932000  0.11500000  0.48298000  1.0 0.121283619
H  H111  1  0.53932000  0.38500000  0.48298000  1.0 0.121283619
H  H112  1  0.96068000  0.88500000  0.51702000  1.0 0.121283619
H  H113  1  0.42775000  0.69078000  0.72282000  1.0 0.121283619
H  H114  1  0.07225000  0.19078000  0.27718000  1.0 0.121283619
H  H115  1  0.57225000  0.30922000  0.27718000  1.0 0.121283619
H  H116  1  0.92775000  0.80922000  0.72282000  1.0 0.121283619
H  H117  1  0.65070000  0.45687000  0.86851000  1.0 0.121283619
H  H118  1  0.84930000  0.95687000  0.13149000  1.0 0.121283619
H  H119  1  0.34930000  0.54313000  0.13149000  1.0 0.121283619
H  H120  1  0.15070000  0.04313000  0.86851000  1.0 0.121283619
H  H121  1  0.44227000  0.42205000  0.69006000  1.0 0.127619445
H  H122  1  0.05773000  0.92205000  0.30994000  1.0 0.127619445
H  H123  1  0.55773000  0.57795000  0.30994000  1.0 0.127619445
H  H124  1  0.94227000  0.07795000  0.69006000  1.0 0.127619445
H  H125  1  0.98317000  0.42045000  0.72603000  1.0 0.127619445
H  H126  1  0.51683000  0.92045000  0.27397000  1.0 0.127619445
H  H127  1  0.01683000  0.57955000  0.27397000  1.0 0.127619445
H  H128  1  0.48317000  0.07955000  0.72603000  1.0 0.127619445
H  H129  1  0.81658000  0.51381000  0.85326000  1.0 0.1121870841
H  H130  1  0.68342000  0.01381000  0.14674000  1.0 0.1121870841
H  H131  1  0.18342000  0.48619000  0.14674000  1.0 0.1121870841
H  H132  1  0.31658000  0.98619000  0.85326000  1.0 0.1121870841
H  H133  1  0.79098000  0.70090000  0.23649000  1.0 0.1121870841
H  H134  1  0.70902000  0.20090000  0.76351000  1.0 0.1121870841
H  H135  1  0.20902000  0.29910000  0.76351000  1.0 0.1121870841
H  H136  1  0.29098000  0.79910000  0.23649000  1.0 0.1121870841
H  H137  1  0.62109000  0.55091000  0.07201000  1.0 0.158672498
H  H138  1  0.87891000  0.05091000  0.92799000  1.0 0.158672498
H  H139  1  0.37891000  0.44909000  0.92799000  1.0 0.158672498
H  H140  1  0.12109000  0.94909000  0.07201000  1.0 0.158672498
H  H141  1  0.57926000  0.51770000  0.12826000  1.0 0.1474497344
H  H142  1  0.92074000  0.01770000  0.87174000  1.0 0.1474497344
H  H143  1  0.42074000  0.48230000  0.87174000  1.0 0.1474497344
H  H144  1  0.07926000  0.98230000  0.12826000  1.0 0.1474497344
H  H145  1  0.64659000  0.49931000  0.07715000  1.0 0.158672498
H  H146  1  0.85341000  0.99931000  0.92285000  1.0 0.158672498
H  H147  1  0.35341000  0.50069000  0.92285000  1.0 0.158672498
H  H148  1  0.14659000  0.00069000  0.07715000  1.0 0.158672498
H  H149  1  0.60996000  0.60715000  0.17846000  1.0 0.1031640918
H  H150  1  0.89004000  0.10715000  0.82154000  1.0 0.1031640918
H  H151  1  0.39004000  0.39285000  0.82154000  1.0 0.1031640918
H  H152  1  0.10996000  0.89285000  0.17846000  1.0 0.1031640918
H  H153  1  0.85729000  0.56877000  0.22535000  1.0 0.1121870841
H  H154  1  0.64271000  0.06877000  0.77465000  1.0 0.1121870841
H  H155  1  0.14271000  0.43123000  0.77465000  1.0 0.1121870841
H  H156  1  0.35729000  0.93123000  0.22535000  1.0 0.1121870841
H  H157  1  0.89773000  0.64096000  0.28745000  1.0 0.121283619
H  H158  1  0.60227000  0.14096000  0.71255000  1.0 0.121283619
H  H159  1  0.10227000  0.35904000  0.71255000  1.0 0.121283619
H  H160  1  0.39773000  0.85904000  0.28745000  1.0 0.121283619
H  H161  1  0.64697000  0.68202000  0.21252000  1.0 0.1031640918
H  H162  1  0.85303000  0.18202000  0.78748000  1.0 0.1031640918
H  H163  1  0.35303000  0.31798000  0.78748000  1.0 0.1031640918
H  H164  1  0.14697000  0.81798000  0.21252000  1.0 0.1031640918
H  H165  1  0.79592000  0.36606000  0.22598000  1.0 0.179921734
H  H166  1  0.70408000  0.86606000  0.77402000  1.0 0.179921734
H  H167  1  0.20408000  0.63394000  0.77402000  1.0 0.179921734
H  H168  1  0.29592000  0.13394000  0.22598000  1.0 0.179921734
H  H169  1  0.71743000  0.38891000  0.16195000  1.0 0.1662055839
H  H170  1  0.78257000  0.88891000  0.83805000  1.0 0.1662055839
H  H171  1  0.28257000  0.61109000  0.83805000  1.0 0.1662055839
H  H172  1  0.21743000  0.11109000  0.16195000  1.0 0.1662055839
H  H173  1  0.70689000  0.37406000  0.25312000  1.0 0.158672498
H  H174  1  0.79311000  0.87406000  0.74688000  1.0 0.158672498
H  H175  1  0.29311000  0.62594000  0.74688000  1.0 0.158672498
H  H176  1  0.20689000  0.12594000  0.25312000  1.0 0.158672498
H  H177  1  0.62288000  0.65891000  0.30977000  1.0 0.0712306395
H  H178  1  0.87712000  0.15891000  0.69023000  1.0 0.0712306395
H  H179  1  0.37712000  0.34109000  0.69023000  1.0 0.0712306395
H  H180  1  0.12288000  0.84109000  0.30977000  1.0 0.0712306395
H  H181  1  0.69435000  0.69713000  0.32502000  1.0 0.0712306395
H  H182  1  0.80565000  0.19713000  0.67498000  1.0 0.0712306395
H  H183  1  0.30565000  0.30287000  0.67498000  1.0 0.0712306395
H  H184  1  0.19435000  0.80287000  0.32502000  1.0 0.0712306395
H  H185  1  0.64367000  0.68542000  0.23172000  1.0 0.1121870841
H  H186  1  0.85633000  0.18542000  0.76828000  1.0 0.1121870841
H  H187  1  0.35633000  0.31458000  0.76828000  1.0 0.1121870841
H  H188  1  0.14367000  0.81458000  0.23172000  1.0 0.1031640918
C  C1  1  0.62550000  0.70090000  0.37180000  1.0 -0.1496939728
C  C2  1  0.87450000  0.20090000  0.62820000  1.0 -0.1496939728
C  C3  1  0.37450000  0.29910000  0.62820000  1.0 -0.1496939728
C  C4  1  0.12550000  0.79910000  0.37180000  1.0 -0.1496939728
C  C5  1  0.90230000  0.71335000  0.06440000  1.0 -0.0284370174
C  C6  1  0.59770000  0.21335000  0.93560000  1.0 -0.0284370174
C  C7  1  0.09770000  0.28665000  0.93560000  1.0 -0.0284370174
C  C8  1  0.40230000  0.78665000  0.06440000  1.0 -0.0284370174
C  C9  1  0.30960000  0.67947000  0.41420000  1.0 -0.0370180059
C  C10  1  0.19040000  0.17947000  0.58580000  1.0 -0.0370180059
C  C11  1  0.69040000  0.32053000  0.58580000  1.0 -0.0370180059
C  C12  1  0.80960000  0.82053000  0.41420000  1.0 -0.0370180059
C  C13  1  0.41870000  0.63117000  0.66130000  1.0 0.0811517754
C  C14  1  0.08130000  0.13117000  0.33870000  1.0 0.0811517754
C  C15  1  0.58130000  0.36883000  0.33870000  1.0 0.0811517754
C  C16  1  0.91870000  0.86883000  0.66130000  1.0 0.0811517754
C  C17  1  0.27240000  0.69703000  0.32910000  1.0 0.6000136759
C  C18  1  0.22760000  0.19703000  0.67090000  1.0 0.6000136759
C  C19  1  0.72760000  0.30297000  0.67090000  1.0 0.6000136759
C  C20  1  0.77240000  0.80297000  0.32910000  1.0 0.6000136759
C  C21  1  0.53040000  0.69113000  0.02990000  1.0 -0.0991875146
C  C22  1  0.96960000  0.19113000  0.97010000  1.0 -0.0991875146
C  C23  1  0.46960000  0.30887000  0.97010000  1.0 -0.0991875146
C  C24  1  0.03040000  0.80887000  0.02990000  1.0 -0.0991875146
C  C25  1  0.37980000  0.64816000  0.57660000  1.0 0.0712306395
C  C26  1  0.12020000  0.14816000  0.42340000  1.0 0.0712306395
C  C27  1  0.62020000  0.35184000  0.42340000  1.0 0.0712306395
C  C28  1  0.87980000  0.85184000  0.57660000  1.0 0.0712306395
C  C29  1  0.47790000  0.64369000  0.80920000  1.0 0.0880537291
C  C30  1  0.02210000  0.14369000  0.19080000  1.0 0.0880537291
C  C31  1  0.52210000  0.35631000  0.19080000  1.0 0.0880537291
C  C32  1  0.97790000  0.85631000  0.80920000  1.0 0.0811517754
C  C33  1  0.50980000  0.67381000  0.88230000  1.0 0.0712306395
C  C34  1  0.99020000  0.17381000  0.11770000  1.0 0.0712306395
C  C35  1  0.49020000  0.32619000  0.11770000  1.0 0.0712306395
C  C36  1  0.00980000  0.82619000  0.88230000  1.0 0.0712306395
C  C37  1  0.89140000  0.42089000  0.79460000  1.0 -0.0284370174
C  C38  1  0.60860000  0.92089000  0.20540000  1.0 -0.0284370174
C  C39  1  0.10860000  0.57911000  0.20540000  1.0 -0.0284370174
C  C40  1  0.39140000  0.07911000  0.79460000  1.0 -0.0284370174
C  C41  1  0.87990000  0.37162000  0.79960000  1.0 0.6000136759
C  C42  1  0.62010000  0.87162000  0.20040000  1.0 0.6000136759
C  C43  1  0.12010000  0.62838000  0.20040000  1.0 0.6000136759
C  C44  1  0.37990000  0.12838000  0.79960000  1.0 0.6000136759
C  C45  1  0.43730000  0.58591000  0.67360000  1.0 -0.2018147726
C  C46  1  0.06270000  0.08591000  0.32640000  1.0 -0.2018147726
C  C47  1  0.56270000  0.41409000  0.32640000  1.0 -0.2018147726
C  C48  1  0.93730000  0.91409000  0.67360000  1.0 -0.2018147726
C  C49  1  0.55130000  0.43181000  0.78090000  1.0 -0.0452395763
C  C50  1  0.94870000  0.93181000  0.21910000  1.0 -0.0452395763
C  C51  1  0.44870000  0.56819000  0.21910000  1.0 -0.0452395763
C  C52  1  0.05130000  0.06819000  0.78090000  1.0 -0.0452395763
C  C53  1  0.27330000  0.69140000  0.48170000  1.0 -0.0934760152
C  C54  1  0.22670000  0.19140000  0.51830000  1.0 -0.0934760152
C  C55  1  0.72670000  0.30860000  0.51830000  1.0 -0.0934760152
C  C56  1  0.77330000  0.80860000  0.48170000  1.0 -0.0934760152
C  C57  1  0.84260000  0.44925000  0.83250000  1.0 -0.0991875146
C  C58  1  0.65740000  0.94925000  0.16750000  1.0 -0.0991875146
C  C59  1  0.15740000  0.55075000  0.16750000  1.0 -0.0991875146
C  C60  1  0.34260000  0.05075000  0.83250000  1.0 -0.0991875146
C  C61  1  0.94820000  0.65252000  0.62660000  1.0 0.0712306395
C  C62  1  0.55180000  0.15252000  0.37340000  1.0 0.0712306395
C  C63  1  0.05180000  0.34748000  0.37340000  1.0 0.0712306395
C  C64  1  0.44820000  0.84748000  0.62660000  1.0 0.0712306395
C  C65  1  0.93560000  0.64474000  0.00310000  1.0 -0.140099195
C  C66  1  0.56440000  0.14474000  0.99690000  1.0 -0.140099195
C  C67  1  0.06440000  0.35526000  0.99690000  1.0 -0.140099195
C  C68  1  0.43560000  0.85526000  0.00310000  1.0 -0.140099195
C  C69  1  0.49330000  0.66506000  0.96100000  1.0 -0.1496939728
C  C70  1  0.00670000  0.16506000  0.03900000  1.0 -0.1496939728
C  C71  1  0.50670000  0.33494000  0.03900000  1.0 -0.1496939728
C  C72  1  0.99330000  0.83494000  0.96100000  1.0 -0.1496939728
C  C73  1  0.30990000  0.67639000  0.56220000  1.0 -0.1496939728
C  C74  1  0.19010000  0.17639000  0.43780000  1.0 -0.1496939728
C  C75  1  0.69010000  0.32361000  0.43780000  1.0 -0.1496939728
C  C76  1  0.80990000  0.82361000  0.56220000  1.0 -0.1496939728
C  C77  1  0.87470000  0.73137000  0.98490000  1.0 -0.0934760152
C  C78  1  0.62530000  0.23137000  0.01510000  1.0 -0.0934760152
C  C79  1  0.12530000  0.26863000  0.01510000  1.0 -0.0934760152
C  C80  1  0.37470000  0.76863000  0.98490000  1.0 -0.0934760152
C  C81  1  0.91710000  0.63536000  0.84770000  1.0 0.0880537291
C  C82  1  0.58290000  0.13536000  0.15230000  1.0 0.0880537291
C  C83  1  0.08290000  0.36464000  0.15230000  1.0 0.0880537291
C  C84  1  0.41710000  0.86464000  0.84770000  1.0 0.0880537291
C  C85  1  0.37890000  0.65063000  0.42820000  1.0 -0.0991875146
C  C86  1  0.12110000  0.15063000  0.57180000  1.0 -0.0991875146
C  C87  1  0.62110000  0.34937000  0.57180000  1.0 -0.0991875146
C  C88  1  0.87890000  0.84937000  0.42820000  1.0 -0.0991875146
C  C89  1  0.90860000  0.51378000  0.78480000  1.0 0.0811517754
C  C90  1  0.59140000  0.01378000  0.21520000  1.0 0.0811517754
C  C91  1  0.09140000  0.48622000  0.21520000  1.0 0.0811517754
C  C92  1  0.40860000  0.98622000  0.78480000  1.0 0.0811517754
C  C93  1  0.91030000  0.66255000  0.92240000  1.0 0.0811517754
C  C94  1  0.58970000  0.16255000  0.07760000  1.0 0.0811517754
C  C95  1  0.08970000  0.33745000  0.07760000  1.0 0.0811517754
C  C96  1  0.41030000  0.83745000  0.92240000  1.0 0.0811517754
C  C97  1  0.93690000  0.62994000  0.70480000  1.0 0.0880537291
C  C98  1  0.56310000  0.12994000  0.29520000  1.0 0.0880537291
C  C99  1  0.06310000  0.37006000  0.29520000  1.0 0.0880537291
C  C100  1  0.43690000  0.87006000  0.70480000  1.0 0.0880537291
C  C101  1  0.49990000  0.52117000  0.76280000  1.0 0.0811517754
C  C102  1  0.00010000  0.02117000  0.23720000  1.0 0.0811517754
C  C103  1  0.50010000  0.47883000  0.23720000  1.0 0.0811517754
C  C104  1  0.99990000  0.97883000  0.76280000  1.0 0.0811517754
C  C105  1  0.57480000  0.50888000  0.82000000  1.0 -0.1586547617
C  C106  1  0.92520000  0.00888000  0.18000000  1.0 -0.1586547617
C  C107  1  0.42520000  0.49112000  0.18000000  1.0 -0.1586547617
C  C108  1  0.07480000  0.99112000  0.82000000  1.0 -0.1586547617
C  C109  1  0.49350000  0.59818000  0.81980000  1.0 -0.2087969784
C  C110  1  0.00650000  0.09818000  0.18020000  1.0 -0.2087969784
C  C111  1  0.50650000  0.40182000  0.18020000  1.0 -0.2018147726
C  C112  1  0.99350000  0.90182000  0.81980000  1.0 -0.2018147726
C  C113  1  0.00220000  0.63353000  0.57870000  1.0 -0.1496939728
C  C114  1  0.49780000  0.13353000  0.42130000  1.0 -0.1496939728
C  C115  1  0.99780000  0.36647000  0.42130000  1.0 -0.1496939728
C  C116  1  0.50220000  0.86647000  0.57870000  1.0 -0.1496939728
C  C117  1  0.60280000  0.73403000  0.94240000  1.0 -0.0991875146
C  C118  1  0.89720000  0.23403000  0.05760000  1.0 -0.0991875146
C  C119  1  0.39720000  0.26597000  0.05760000  1.0 -0.0991875146
C  C120  1  0.10280000  0.76597000  0.94240000  1.0 -0.0991875146
C  C121  1  0.01390000  0.65417000  0.50690000  1.0 -0.0991875146
C  C122  1  0.48610000  0.15417000  0.49310000  1.0 -0.0991875146
C  C123  1  0.98610000  0.34583000  0.49310000  1.0 -0.0991875146
C  C124  1  0.51390000  0.84583000  0.50690000  1.0 -0.0991875146
C  C125  1  0.45060000  0.48832000  0.71520000  1.0 -0.1496939728
C  C126  1  0.04940000  0.98832000  0.28480000  1.0 -0.1496939728
C  C127  1  0.54940000  0.51168000  0.28480000  1.0 -0.1496939728
C  C128  1  0.95060000  0.01168000  0.71520000  1.0 -0.1496939728
C  C129  1  0.56240000  0.70906000  0.87330000  1.0 -0.1496939728
C  C130  1  0.93760000  0.20906000  0.12670000  1.0 -0.1496939728
C  C131  1  0.43760000  0.29094000  0.12670000  1.0 -0.1496939728
C  C132  1  0.06240000  0.79094000  0.87330000  1.0 -0.1496939728
C  C133  1  0.93120000  0.66970000  0.07240000  1.0 -0.0798379008
C  C134  1  0.56880000  0.16970000  0.92760000  1.0 -0.0798379008
C  C135  1  0.06880000  0.33030000  0.92760000  1.0 -0.0798379008
C  C136  1  0.43120000  0.83030000  0.07240000  1.0 -0.0798379008
C  C137  1  0.93190000  0.58367000  0.70930000  1.0 -0.1923603799
C  C138  1  0.56810000  0.08367000  0.29070000  1.0 -0.1923603799
C  C139  1  0.06810000  0.41633000  0.29070000  1.0 -0.1923603799
C  C140  1  0.43190000  0.91633000  0.70930000  1.0 -0.1923603799
C  C141  1  0.90630000  0.69192000  0.59920000  1.0 -0.1496939728
C  C142  1  0.59370000  0.19192000  0.40080000  1.0 -0.1496939728
C  C143  1  0.09370000  0.30808000  0.40080000  1.0 -0.1496939728
C  C144  1  0.40630000  0.80808000  0.59920000  1.0 -0.1496939728
C  C145  1  0.92960000  0.65557000  0.77520000  1.0 -0.2087969784
C  C146  1  0.57040000  0.15557000  0.22480000  1.0 -0.2087969784
C  C147  1  0.07040000  0.34443000  0.22480000  1.0 -0.2087969784
C  C148  1  0.42960000  0.84443000  0.77520000  1.0 -0.2087969784
C  C149  1  0.97080000  0.69374000  0.47960000  1.0 -0.0242909279
C  C150  1  0.52920000  0.19374000  0.52040000  1.0 -0.0242909279
C  C151  1  0.02920000  0.30626000  0.52040000  1.0 -0.0242909279
C  C152  1  0.47080000  0.80626000  0.47960000  1.0 -0.0242909279
C  C153  1  0.87760000  0.70632000  0.91490000  1.0 -0.1496939728
C  C154  1  0.62240000  0.20632000  0.08510000  1.0 -0.1496939728
C  C155  1  0.12240000  0.29368000  0.08510000  1.0 -0.1496939728
C  C156  1  0.37760000  0.79368000  0.91490000  1.0 -0.1496939728
C  C157  1  0.91660000  0.71224000  0.52590000  1.0 -0.0991875146
C  C158  1  0.58340000  0.21224000  0.47410000  1.0 -0.0991875146
C  C159  1  0.08340000  0.28776000  0.47410000  1.0 -0.0991875146
C  C160  1  0.41660000  0.78776000  0.52590000  1.0 -0.0991875146
C  C161  1  0.91050000  0.58896000  0.84970000  1.0 -0.2018147726
C  C162  1  0.58950000  0.08896000  0.15030000  1.0 -0.2018147726
C  C163  1  0.08950000  0.41104000  0.15030000  1.0 -0.2018147726
C  C164  1  0.41050000  0.91104000  0.84970000  1.0 -0.2018147726
C  C165  1  0.95890000  0.48520000  0.74810000  1.0 -0.140099195
C  C166  1  0.54110000  0.98520000  0.25190000  1.0 -0.140099195
C  C167  1  0.04110000  0.51480000  0.25190000  1.0 -0.140099195
C  C168  1  0.45890000  0.01480000  0.74810000  1.0 -0.140099195
C  C169  1  0.91800000  0.56282000  0.78120000  1.0 0.0880537291
C  C170  1  0.58200000  0.06282000  0.21880000  1.0 0.0880537291
C  C171  1  0.08200000  0.43718000  0.21880000  1.0 0.0880537291
C  C172  1  0.41800000  0.93718000  0.78120000  1.0 0.0880537291
C  C173  1  0.41350000  0.63497000  0.50830000  1.0 -0.140099195
C  C174  1  0.08650000  0.13497000  0.49170000  1.0 -0.140099195
C  C175  1  0.58650000  0.36503000  0.49170000  1.0 -0.140099195
C  C176  1  0.91350000  0.86503000  0.50830000  1.0 -0.140099195
C  C177  1  0.47520000  0.56911000  0.75220000  1.0 0.0880537291
C  C178  1  0.02480000  0.06911000  0.24780000  1.0 0.0880537291
C  C179  1  0.52480000  0.43089000  0.24780000  1.0 0.0880537291
C  C180  1  0.97520000  0.93089000  0.75220000  1.0 0.0880537291
C  C181  1  0.43970000  0.65988000  0.73020000  1.0 -0.2087969784
C  C182  1  0.06030000  0.15988000  0.26980000  1.0 -0.2087969784
C  C183  1  0.56030000  0.34012000  0.26980000  1.0 -0.2087969784
C  C184  1  0.93970000  0.84012000  0.73020000  1.0 -0.2087969784
C  C185  1  0.98580000  0.71718000  0.40290000  1.0 0.5819916304
C  C186  1  0.51420000  0.21718000  0.59710000  1.0 0.5819916304
C  C187  1  0.01420000  0.28282000  0.59710000  1.0 0.5819916304
C  C188  1  0.48580000  0.78282000  0.40290000  1.0 0.5819916304
C  C189  1  0.58670000  0.72524000  0.02070000  1.0 -0.0284370174
C  C190  1  0.91330000  0.22524000  0.97930000  1.0 -0.0284370174
C  C191  1  0.41330000  0.27476000  0.97930000  1.0 -0.0284370174
C  C192  1  0.08670000  0.77476000  0.02070000  1.0 -0.0284370174
C  C193  1  0.59980000  0.46473000  0.82900000  1.0 -0.0934760152
C  C194  1  0.90020000  0.96473000  0.17100000  1.0 -0.0991875146
C  C195  1  0.40020000  0.53527000  0.17100000  1.0 -0.0934760152
C  C196  1  0.09980000  0.03527000  0.82900000  1.0 -0.0934760152
C  C197  1  0.58000000  0.38457000  0.78880000  1.0 0.5870323157
C  C198  1  0.92000000  0.88457000  0.21120000  1.0 0.5870323157
C  C199  1  0.42000000  0.61543000  0.21120000  1.0 0.5870323157
C  C200  1  0.08000000  0.11543000  0.78880000  1.0 0.5870323157
C  C201  1  0.47610000  0.44416000  0.72350000  1.0 -0.0934760152
C  C202  1  0.02390000  0.94416000  0.27650000  1.0 -0.0934760152
C  C203  1  0.52390000  0.55584000  0.27650000  1.0 -0.0934760152
C  C204  1  0.97610000  0.05584000  0.72350000  1.0 -0.0934760152
C  C205  1  0.94950000  0.43941000  0.75240000  1.0 -0.0991875146
C  C206  1  0.55050000  0.93941000  0.24760000  1.0 -0.0991875146
C  C207  1  0.05050000  0.56059000  0.24760000  1.0 -0.0991875146
C  C208  1  0.44950000  0.06059000  0.75240000  1.0 -0.0991875146
C  C209  1  0.85080000  0.49496000  0.82740000  1.0 -0.1496939728
C  C210  1  0.64920000  0.99496000  0.17260000  1.0 -0.1496939728
C  C211  1  0.14920000  0.50504000  0.17260000  1.0 -0.1496939728
C  C212  1  0.35080000  0.00504000  0.82740000  1.0 -0.1496939728
C  C213  1  0.91080000  0.74111000  0.14090000  1.0 0.5870323157
C  C214  1  0.58920000  0.24111000  0.85910000  1.0 0.5870323157
C  C215  1  0.08920000  0.25889000  0.85910000  1.0 0.5870323157
C  C216  1  0.41080000  0.75889000  0.14090000  1.0 0.5870323157
C  C217  1  0.62990000  0.75258000  0.09490000  1.0 0.5870323157
C  C218  1  0.87010000  0.25258000  0.90510000  1.0 0.5870323157
C  C219  1  0.37010000  0.24742000  0.90510000  1.0 0.5870323157
C  C220  1  0.12990000  0.74742000  0.09490000  1.0 0.5870323157
C  C221  1  0.77400000  0.67050000  0.23510000  1.0 -0.1125517387
C  C222  1  0.72600000  0.17050000  0.76490000  1.0 -0.1125517387
C  C223  1  0.22600000  0.32950000  0.76490000  1.0 -0.1125517387
C  C224  1  0.27400000  0.82950000  0.23510000  1.0 -0.1125517387
C  C225  1  0.63130000  0.52470000  0.10850000  1.0 -0.5085146848
C  C226  1  0.86870000  0.02470000  0.89150000  1.0 -0.5085146848
C  C227  1  0.36870000  0.47530000  0.89150000  1.0 -0.5085146848
C  C228  1  0.13130000  0.97530000  0.10850000  1.0 -0.5085146848
C  C229  1  0.70440000  0.53430000  0.18350000  1.0 0.2440056529
C  C230  1  0.79560000  0.03430000  0.81650000  1.0 0.2440056529
C  C231  1  0.29560000  0.46570000  0.81650000  1.0 0.2440056529
C  C232  1  0.20440000  0.96570000  0.18350000  1.0 0.2440056529
C  C233  1  0.73160000  0.58130000  0.20040000  1.0 0.0330961559
C  C234  1  0.76840000  0.08130000  0.79960000  1.0 0.0330961559
C  C235  1  0.26840000  0.41870000  0.79960000  1.0 0.0330961559
C  C236  1  0.23160000  0.91870000  0.20040000  1.0 0.0330961559
C  C237  1  0.66880000  0.61510000  0.19530000  1.0 -0.1184205922
C  C238  1  0.83120000  0.11510000  0.80470000  1.0 -0.1298606452
C  C239  1  0.33120000  0.38490000  0.80470000  1.0 -0.1184205922
C  C240  1  0.16880000  0.88490000  0.19530000  1.0 -0.1184205922
C  C241  1  0.81530000  0.59100000  0.22660000  1.0 -0.1298606452
C  C242  1  0.68470000  0.09100000  0.77340000  1.0 -0.1298606452
C  C243  1  0.18470000  0.40900000  0.77340000  1.0 -0.1298606452
C  C244  1  0.31530000  0.90900000  0.22660000  1.0 -0.1298606452
C  C245  1  0.84140000  0.63480000  0.25630000  1.0 -0.0670300994
C  C246  1  0.65860000  0.13480000  0.74370000  1.0 -0.0670300994
C  C247  1  0.15860000  0.36520000  0.74370000  1.0 -0.0670300994
C  C248  1  0.34140000  0.86520000  0.25630000  1.0 -0.0670300994
C  C249  1  0.69010000  0.66000000  0.21430000  1.0 -0.1184205922
C  C250  1  0.80990000  0.16000000  0.78570000  1.0 -0.1184205922
C  C251  1  0.30990000  0.34000000  0.78570000  1.0 -0.1184205922
C  C252  1  0.19010000  0.84000000  0.21430000  1.0 -0.1184205922
C  C253  1  0.77600000  0.42930000  0.25400000  1.0 0.5112520631
C  C254  1  0.72400000  0.92930000  0.74600000  1.0 0.5112520631
C  C255  1  0.22400000  0.57070000  0.74600000  1.0 0.5112520631
C  C256  1  0.27600000  0.07070000  0.25400000  1.0 0.5043244537
C  C257  1  0.74670000  0.38610000  0.22110000  1.0 -0.5508061199
C  C258  1  0.75330000  0.88610000  0.77890000  1.0 -0.5508061199
C  C259  1  0.25330000  0.61390000  0.77890000  1.0 -0.5508061199
C  C260  1  0.24670000  0.11390000  0.22110000  1.0 -0.5508061199
C  C261  1  0.63900000  0.68790000  0.29000000  1.0 -0.1298606452
C  C262  1  0.86100000  0.18790000  0.71000000  1.0 -0.1298606452
C  C263  1  0.36100000  0.31210000  0.71000000  1.0 -0.1298606452
C  C264  1  0.13900000  0.81210000  0.29000000  1.0 -0.1298606452
N  N1  1  0.75500000  0.50590000  0.23450000  1.0 -0.1923603799
N  N2  1  0.74500000  0.00590000  0.76550000  1.0 -0.1923603799
N  N3  1  0.24500000  0.49410000  0.76550000  1.0 -0.1923603799
N  N4  1  0.25500000  0.99410000  0.23450000  1.0 -0.1923603799
O  O1  1  0.57527000  0.72002000  0.29678000  1.0 -0.3376477186
O  O2  1  0.92473000  0.22002000  0.70322000  1.0 -0.3376477186
O  O3  1  0.42473000  0.27998000  0.70322000  1.0 -0.3376477186
O  O4  1  0.07527000  0.77998000  0.29678000  1.0 -0.3376477186
O  O5  1  0.70483000  0.76583000  0.09711000  1.0 -0.5582049165
O  O6  1  0.79517000  0.26583000  0.90289000  1.0 -0.5582049165
O  O7  1  0.29517000  0.23417000  0.90289000  1.0 -0.5582049165
O  O8  1  0.20483000  0.73417000  0.09711000  1.0 -0.5582049165
O  O9  1  0.64867000  0.37602000  0.84047000  1.0 -0.5712630574
O  O10  1  0.85133000  0.87602000  0.15953000  1.0 -0.5712630574
O  O11  1  0.35133000  0.62398000  0.15953000  1.0 -0.5712630574
O  O12  1  0.14867000  0.12398000  0.84047000  1.0 -0.5712630574
O  O13  1  0.92299000  0.34739000  0.76027000  1.0 -0.5508061199
O  O14  1  0.57701000  0.84739000  0.23973000  1.0 -0.5508061199
O  O15  1  0.07701000  0.65261000  0.23973000  1.0 -0.5508061199
O  O16  1  0.42299000  0.15261000  0.76027000  1.0 -0.5508061199
O  O17  1  0.94611000  0.72422000  0.21218000  1.0 -0.5582049165
O  O18  1  0.55389000  0.22422000  0.78782000  1.0 -0.5582049165
O  O19  1  0.05389000  0.27578000  0.78782000  1.0 -0.5582049165
O  O20  1  0.44611000  0.77578000  0.21218000  1.0 -0.5582049165
O  O21  1  0.31342000  0.69345000  0.27169000  1.0 -0.5822476048
O  O22  1  0.18658000  0.19345000  0.72831000  1.0 -0.5822476048
O  O23  1  0.68658000  0.30655000  0.72831000  1.0 -0.5822476048
O  O24  1  0.81342000  0.80655000  0.27169000  1.0 -0.5822476048
O  O25  1  0.20029000  0.71567000  0.31834000  1.0 -0.5508061199
O  O26  1  0.29971000  0.21567000  0.68166000  1.0 -0.5508061199
O  O27  1  0.79971000  0.28433000  0.68166000  1.0 -0.5508061199
O  O28  1  0.70029000  0.78433000  0.31834000  1.0 -0.5508061199
O  O29  1  0.04009000  0.69956000  0.36700000  1.0 -0.5508061199
O  O30  1  0.45991000  0.19956000  0.63300000  1.0 -0.5508061199
O  O31  1  0.95991000  0.30044000  0.63300000  1.0 -0.5508061199
O  O32  1  0.54009000  0.80044000  0.36700000  1.0 -0.5508061199
O  O33  1  0.58718000  0.76035000  0.14898000  1.0 -0.5582049165
O  O34  1  0.91282000  0.26035000  0.85102000  1.0 -0.5582049165
O  O35  1  0.41282000  0.23965000  0.85102000  1.0 -0.5582049165
O  O36  1  0.08718000  0.73965000  0.14898000  1.0 -0.5582049165
O  O37  1  0.88815000  0.78082000  0.13759000  1.0 -0.5508061199
O  O38  1  0.61185000  0.28082000  0.86241000  1.0 -0.5508061199
O  O39  1  0.11185000  0.21918000  0.86241000  1.0 -0.5508061199
O  O40  1  0.38815000  0.71918000  0.13759000  1.0 -0.5508061199
O  O41  1  0.53441000  0.35645000  0.74048000  1.0 -0.5582049165
O  O42  1  0.96559000  0.85645000  0.25952000  1.0 -0.5582049165
O  O43  1  0.46559000  0.64355000  0.25952000  1.0 -0.5582049165
O  O44  1  0.03441000  0.14355000  0.74048000  1.0 -0.5582049165
O  O45  1  0.94320000  0.75206000  0.38009000  1.0 -0.5508061199
O  O46  1  0.55680000  0.25206000  0.61991000  1.0 -0.5508061199
O  O47  1  0.05680000  0.24794000  0.61991000  1.0 -0.5508061199
O  O48  1  0.44320000  0.74794000  0.38009000  1.0 -0.5508061199
O  O49  1  0.83100000  0.35774000  0.84266000  1.0 -0.5582049165
O  O50  1  0.66900000  0.85774000  0.15734000  1.0 -0.5582049165
O  O51  1  0.16900000  0.64226000  0.15734000  1.0 -0.5582049165
O  O52  1  0.33100000  0.14226000  0.84266000  1.0 -0.5582049165
O  O53  1  0.83700000  0.44740000  0.33800000  1.0 -0.5822476048
O  O54  1  0.66300000  0.94740000  0.66200000  1.0 -0.5822476048
O  O55  1  0.16300000  0.55260000  0.66200000  1.0 -0.5822476048
O  O56  1  0.33700000  0.05260000  0.33800000  1.0 -0.5822476048
O  O57  1  0.72790000  0.46150000  0.20670000  1.0 -0.1184205922
O  O58  1  0.77210000  0.96150000  0.79330000  1.0 -0.1184205922
O  O59  1  0.27210000  0.53850000  0.79330000  1.0 -0.1184205922
O  O60  1  0.22790000  0.03850000  0.20670000  1.0 -0.1184205922
