# DDEC6 charges by PACMAN v1.1 (https://github.com/mtap-research/PACMAN-charge/)
data_KICHIR_FSR_pacman
_symmetry_space_group_name_H-M   'P 1'
_cell_length_a   16.22310000
_cell_length_b   30.06120000
_cell_length_c   16.26150000
_cell_angle_alpha   90.00000000
_cell_angle_beta   101.18200000
_cell_angle_gamma   90.00000000
_symmetry_Int_Tables_number   1
_chemical_formula_structural   Fe3H55C67N3O16
_chemical_formula_sum   'Fe12 H220 C268 N12 O64'
_cell_volume   7779.95184246
_cell_formula_units_Z   4
loop_
 _symmetry_equiv_pos_site_id
 _symmetry_equiv_pos_as_xyz
  1  'x, y, z'
loop_
 _atom_site_type_symbol
 _atom_site_label
 _atom_site_symmetry_multiplicity
 _atom_site_fract_x
 _atom_site_fract_y
 _atom_site_fract_z
 _atom_site_occupancy
 _atom_site_charge
Fe  Fe1  1  0.71596000  0.29405000  0.56893000  1.0 0.9562661102
Fe  Fe2  1  0.28404000  0.79405000  0.93107000  1.0 0.9548460295
Fe  Fe3  1  0.28404000  0.70595000  0.43107000  1.0 0.9548460295
Fe  Fe4  1  0.71596000  0.20595000  0.06893000  1.0 0.9562661102
Fe  Fe5  1  0.26256000  0.78691000  0.56650000  1.0 1.0803388407
Fe  Fe6  1  0.73744000  0.28691000  0.93350000  1.0 1.0803388407
Fe  Fe7  1  0.73744000  0.21309000  0.43350000  1.0 1.0803388407
Fe  Fe8  1  0.26256000  0.71309000  0.06650000  1.0 1.0803388407
Fe  Fe9  1  0.85041000  0.32282000  0.73934000  1.0 1.0088980844
Fe  Fe10  1  0.14959000  0.82282000  0.76066000  1.0 1.0088980844
Fe  Fe11  1  0.14959000  0.67718000  0.26066000  1.0 1.0088980844
Fe  Fe12  1  0.85041000  0.17718000  0.23934000  1.0 1.0088980844
H  H1  1  0.10670000  0.66650000  0.48480000  1.0 0.1011608815
H  H2  1  0.89330000  0.16650000  0.01520000  1.0 0.1011608815
H  H3  1  0.89330000  0.33350000  0.51520000  1.0 0.1011608815
H  H4  1  0.10670000  0.83350000  0.98480000  1.0 0.1011608815
H  H5  1  0.95800000  0.60050000  0.44120000  1.0 0.1113779318
H  H6  1  0.04200000  0.10050000  0.05880000  1.0 0.1113779318
H  H7  1  0.04200000  0.39950000  0.55880000  1.0 0.1113779318
H  H8  1  0.95800000  0.89950000  0.94120000  1.0 0.1113779318
H  H9  1  0.01280000  0.63860000  0.40870000  1.0 0.1011608815
H  H10  1  0.98720000  0.13860000  0.09130000  1.0 0.1011608815
H  H11  1  0.98720000  0.36140000  0.59130000  1.0 0.1011608815
H  H12  1  0.01280000  0.86140000  0.90870000  1.0 0.1011608815
H  H13  1  0.03430000  0.58730000  0.39670000  1.0 0.1384212133
H  H14  1  0.96570000  0.08730000  0.10330000  1.0 0.1384212133
H  H15  1  0.96570000  0.41270000  0.60330000  1.0 0.1384212133
H  H16  1  0.03430000  0.91270000  0.89670000  1.0 0.1384212133
H  H17  1  0.07840000  0.58230000  0.63550000  1.0 0.2210190644
H  H18  1  0.92160000  0.08230000  0.86450000  1.0 0.2210190644
H  H19  1  0.92160000  0.41770000  0.36450000  1.0 0.2210190644
H  H20  1  0.07840000  0.91770000  0.13550000  1.0 0.2210190644
H  H21  1  0.03080000  0.54970000  0.56400000  1.0 0.1284993871
H  H22  1  0.96920000  0.04970000  0.93600000  1.0 0.1284993871
H  H23  1  0.96920000  0.45030000  0.43600000  1.0 0.1284993871
H  H24  1  0.03080000  0.95030000  0.06400000  1.0 0.1284993871
H  H25  1  0.13100000  0.55380000  0.58040000  1.0 0.1284993871
H  H26  1  0.86900000  0.05380000  0.91960000  1.0 0.1284993871
H  H27  1  0.86900000  0.44620000  0.41960000  1.0 0.1284993871
H  H28  1  0.13100000  0.94620000  0.08040000  1.0 0.1284993871
H  H29  1  0.98370000  0.76220000  0.48800000  1.0 0.1113779318
H  H30  1  0.01630000  0.26220000  0.01200000  1.0 0.1113779318
H  H31  1  0.01630000  0.23780000  0.51200000  1.0 0.1113779318
H  H32  1  0.98370000  0.73780000  0.98800000  1.0 0.1113779318
H  H33  1  0.86500000  0.71990000  0.43810000  1.0 0.1113779318
H  H34  1  0.13500000  0.21990000  0.06190000  1.0 0.1113779318
H  H35  1  0.13500000  0.28010000  0.56190000  1.0 0.1113779318
H  H36  1  0.86500000  0.78010000  0.93810000  1.0 0.1113779318
H  H37  1  0.90320000  0.64960000  0.65420000  1.0 0.1011608815
H  H38  1  0.09680000  0.14960000  0.84580000  1.0 0.1011608815
H  H39  1  0.09680000  0.35040000  0.34580000  1.0 0.1011608815
H  H40  1  0.90320000  0.85040000  0.15420000  1.0 0.1011608815
H  H41  1  0.02660000  0.69360000  0.70460000  1.0 0.1113779318
H  H42  1  0.97340000  0.19360000  0.79540000  1.0 0.1113779318
H  H43  1  0.97340000  0.30640000  0.29540000  1.0 0.1113779318
H  H44  1  0.02660000  0.80640000  0.20460000  1.0 0.1113779318
H  H45  1  0.52140000  0.61270000  0.44750000  1.0 0.1113779318
H  H46  1  0.47860000  0.11270000  0.05250000  1.0 0.1113779318
H  H47  1  0.47860000  0.38730000  0.55250000  1.0 0.1113779318
H  H48  1  0.52140000  0.88730000  0.94750000  1.0 0.1113779318
H  H49  1  0.62350000  0.68460000  0.28310000  1.0 0.1113779318
H  H50  1  0.37650000  0.18460000  0.21690000  1.0 0.1113779318
H  H51  1  0.37650000  0.31540000  0.71690000  1.0 0.1113779318
H  H52  1  0.62350000  0.81540000  0.78310000  1.0 0.1113779318
H  H53  1  0.48940000  0.70800000  0.21740000  1.0 0.120230757
H  H54  1  0.51060000  0.20800000  0.28260000  1.0 0.120230757
H  H55  1  0.51060000  0.29200000  0.78260000  1.0 0.120230757
H  H56  1  0.48940000  0.79200000  0.71740000  1.0 0.120230757
H  H57  1  0.38800000  0.63780000  0.38570000  1.0 0.120230757
H  H58  1  0.61200000  0.13780000  0.11430000  1.0 0.120230757
H  H59  1  0.61200000  0.36220000  0.61430000  1.0 0.120230757
H  H60  1  0.38800000  0.86220000  0.88570000  1.0 0.120230757
H  H61  1  0.98900000  0.11880000  0.57490000  1.0 0.1113779318
H  H62  1  0.01100000  0.61880000  0.92510000  1.0 0.1113779318
H  H63  1  0.01100000  0.88120000  0.42510000  1.0 0.1113779318
H  H64  1  0.98900000  0.38120000  0.07490000  1.0 0.1113779318
H  H65  1  0.13730000  0.32920000  0.94100000  1.0 0.120230757
H  H66  1  0.86270000  0.82920000  0.55900000  1.0 0.120230757
H  H67  1  0.86270000  0.67080000  0.05900000  1.0 0.120230757
H  H68  1  0.13730000  0.17080000  0.44100000  1.0 0.120230757
H  H69  1  0.21000000  0.31400000  0.89320000  1.0 0.1384212133
H  H70  1  0.79000000  0.81400000  0.60680000  1.0 0.1384212133
H  H71  1  0.79000000  0.68600000  0.10680000  1.0 0.1384212133
H  H72  1  0.21000000  0.18600000  0.39320000  1.0 0.1384212133
H  H73  1  0.20170000  0.36520000  0.91750000  1.0 0.1384212133
H  H74  1  0.79830000  0.86520000  0.58250000  1.0 0.1384212133
H  H75  1  0.79830000  0.63480000  0.08250000  1.0 0.1384212133
H  H76  1  0.20170000  0.13480000  0.41750000  1.0 0.1384212133
H  H77  1  0.86770000  0.16060000  0.56860000  1.0 0.120230757
H  H78  1  0.13230000  0.66060000  0.93140000  1.0 0.120230757
H  H79  1  0.13230000  0.83940000  0.43140000  1.0 0.120230757
H  H80  1  0.86770000  0.33940000  0.06860000  1.0 0.120230757
H  H81  1  0.22100000  0.19330000  0.60580000  1.0 0.1113779318
H  H82  1  0.77900000  0.69330000  0.89420000  1.0 0.1113779318
H  H83  1  0.77900000  0.80670000  0.39420000  1.0 0.1113779318
H  H84  1  0.22100000  0.30670000  0.10580000  1.0 0.1113779318
H  H85  1  0.86280000  0.45890000  0.66220000  1.0 0.120230757
H  H86  1  0.13720000  0.95890000  0.83780000  1.0 0.120230757
H  H87  1  0.13720000  0.54110000  0.33780000  1.0 0.120230757
H  H88  1  0.86280000  0.04110000  0.16220000  1.0 0.120230757
H  H89  1  0.73130000  0.69090000  0.42520000  1.0 0.1113779318
H  H90  1  0.26870000  0.19090000  0.07480000  1.0 0.1113779318
H  H91  1  0.26870000  0.30910000  0.57480000  1.0 0.1113779318
H  H92  1  0.73130000  0.80910000  0.92520000  1.0 0.1113779318
H  H93  1  0.10120000  0.07860000  0.63920000  1.0 0.1113779318
H  H94  1  0.89880000  0.57860000  0.86080000  1.0 0.1113779318
H  H95  1  0.89880000  0.92140000  0.36080000  1.0 0.1113779318
H  H96  1  0.10120000  0.42140000  0.13920000  1.0 0.1113779318
H  H97  1  0.33333333  0.07510000  0.58230000  1.0 0.1113779318
H  H98  1  0.66666667  0.57510000  0.91770000  1.0 0.1113779318
H  H99  1  0.66666667  0.92490000  0.41770000  1.0 0.1113779318
H  H100  1  0.33333333  0.42490000  0.08230000  1.0 0.1113779318
H  H101  1  0.63640000  0.56670000  0.42190000  1.0 0.1113779318
H  H102  1  0.36360000  0.06670000  0.07810000  1.0 0.1113779318
H  H103  1  0.36360000  0.43330000  0.57810000  1.0 0.1113779318
H  H104  1  0.63640000  0.93330000  0.92190000  1.0 0.1113779318
H  H105  1  0.14090000  0.93580000  0.70300000  1.0 0.120230757
H  H106  1  0.85910000  0.43580000  0.79700000  1.0 0.120230757
H  H107  1  0.85910000  0.06420000  0.29700000  1.0 0.120230757
H  H108  1  0.14090000  0.56420000  0.20300000  1.0 0.120230757
H  H109  1  0.47710000  0.25150000  0.61240000  1.0 0.1113779318
H  H110  1  0.52290000  0.75150000  0.88760000  1.0 0.1113779318
H  H111  1  0.52290000  0.74850000  0.38760000  1.0 0.1113779318
H  H112  1  0.47710000  0.24850000  0.11240000  1.0 0.1113779318
H  H113  1  0.27440000  0.93250000  0.51690000  1.0 0.1284993871
H  H114  1  0.72560000  0.43250000  0.98310000  1.0 0.1284993871
H  H115  1  0.72560000  0.06750000  0.48310000  1.0 0.1284993871
H  H116  1  0.27440000  0.56750000  0.01690000  1.0 0.1284993871
H  H117  1  0.85240000  0.53260000  0.61740000  1.0 0.1113779318
H  H118  1  0.14760000  0.03260000  0.88260000  1.0 0.1113779318
H  H119  1  0.14760000  0.46740000  0.38260000  1.0 0.1113779318
H  H120  1  0.85240000  0.96740000  0.11740000  1.0 0.1113779318
H  H121  1  0.38790000  0.11600000  0.48700000  1.0 0.1113779318
H  H122  1  0.61210000  0.61600000  0.01300000  1.0 0.1113779318
H  H123  1  0.61210000  0.88400000  0.51300000  1.0 0.1113779318
H  H124  1  0.38790000  0.38400000  0.98700000  1.0 0.1113779318
H  H125  1  0.14650000  0.01260000  0.70140000  1.0 0.1113779318
H  H126  1  0.85350000  0.51260000  0.79860000  1.0 0.1113779318
H  H127  1  0.85350000  0.98740000  0.29860000  1.0 0.1113779318
H  H128  1  0.14650000  0.48740000  0.20140000  1.0 0.1113779318
H  H129  1  0.69090000  0.42370000  0.45570000  1.0 0.120230757
H  H130  1  0.30910000  0.92370000  0.04430000  1.0 0.120230757
H  H131  1  0.30910000  0.57630000  0.54430000  1.0 0.120230757
H  H132  1  0.69090000  0.07630000  0.95570000  1.0 0.120230757
H  H133  1  0.12800000  0.21960000  0.69030000  1.0 0.1113779318
H  H134  1  0.87200000  0.71960000  0.80970000  1.0 0.1113779318
H  H135  1  0.87200000  0.78040000  0.30970000  1.0 0.1113779318
H  H136  1  0.12800000  0.28040000  0.19030000  1.0 0.1113779318
H  H137  1  0.68360000  0.49750000  0.41060000  1.0 0.1113779318
H  H138  1  0.31640000  0.99750000  0.08940000  1.0 0.1113779318
H  H139  1  0.31640000  0.50250000  0.58940000  1.0 0.1113779318
H  H140  1  0.68360000  0.00250000  0.91060000  1.0 0.1113779318
H  H141  1  0.35830000  0.21640000  0.64300000  1.0 0.1113779318
H  H142  1  0.64170000  0.71640000  0.85700000  1.0 0.1113779318
H  H143  1  0.64170000  0.78360000  0.35700000  1.0 0.1113779318
H  H144  1  0.35830000  0.28360000  0.14300000  1.0 0.1113779318
H  H145  1  0.00730000  0.26220000  0.68210000  1.0 0.120230757
H  H146  1  0.99270000  0.76220000  0.81790000  1.0 0.120230757
H  H147  1  0.99270000  0.73780000  0.31790000  1.0 0.120230757
H  H148  1  0.00730000  0.23780000  0.18210000  1.0 0.120230757
H  H149  1  0.28400000  0.01000000  0.52240000  1.0 0.1113779318
H  H150  1  0.71600000  0.51000000  0.97760000  1.0 0.1113779318
H  H151  1  0.71600000  0.99000000  0.47760000  1.0 0.1113779318
H  H152  1  0.28400000  0.49000000  0.02240000  1.0 0.1113779318
H  H153  1  0.50780000  0.15050000  0.45720000  1.0 0.1284993871
H  H154  1  0.49220000  0.65050000  0.04280000  1.0 0.1284993871
H  H155  1  0.49220000  0.84950000  0.54280000  1.0 0.1284993871
H  H156  1  0.50780000  0.34950000  0.95720000  1.0 0.1284993871
H  H157  1  0.87150000  0.59110000  0.54660000  1.0 0.120230757
H  H158  1  0.12850000  0.09110000  0.95340000  1.0 0.120230757
H  H159  1  0.12850000  0.40890000  0.45340000  1.0 0.120230757
H  H160  1  0.87150000  0.90890000  0.04660000  1.0 0.120230757
H  H161  1  0.00840000  0.34820000  0.86180000  1.0 0.120230757
H  H162  1  0.99160000  0.84820000  0.63820000  1.0 0.120230757
H  H163  1  0.99160000  0.65180000  0.13820000  1.0 0.120230757
H  H164  1  0.00840000  0.15180000  0.36180000  1.0 0.120230757
H  H165  1  0.18640000  0.37130000  0.74340000  1.0 0.1498028885
H  H166  1  0.81360000  0.87130000  0.75660000  1.0 0.1498028885
H  H167  1  0.81360000  0.62870000  0.25660000  1.0 0.1498028885
H  H168  1  0.18640000  0.12870000  0.24340000  1.0 0.1498028885
H  H169  1  0.18760000  0.31810000  0.74670000  1.0 0.1284993871
H  H170  1  0.81240000  0.81810000  0.75330000  1.0 0.1284993871
H  H171  1  0.81240000  0.68190000  0.25330000  1.0 0.1284993871
H  H172  1  0.18760000  0.18190000  0.24670000  1.0 0.1284993871
H  H173  1  0.10790000  0.34350000  0.69410000  1.0 0.1498028885
H  H174  1  0.89210000  0.84350000  0.80590000  1.0 0.1498028885
H  H175  1  0.89210000  0.65650000  0.30590000  1.0 0.1498028885
H  H176  1  0.10790000  0.15650000  0.19410000  1.0 0.1498028885
H  H177  1  0.58910000  0.38360000  0.29490000  1.0 0.120230757
H  H178  1  0.41090000  0.88360000  0.20510000  1.0 0.120230757
H  H179  1  0.41090000  0.61640000  0.70510000  1.0 0.120230757
H  H180  1  0.58910000  0.11640000  0.79490000  1.0 0.120230757
H  H181  1  0.62330000  0.37130000  0.21180000  1.0 0.1284993871
H  H182  1  0.37670000  0.87130000  0.28820000  1.0 0.1284993871
H  H183  1  0.37670000  0.62870000  0.78820000  1.0 0.1284993871
H  H184  1  0.62330000  0.12870000  0.71180000  1.0 0.1284993871
H  H185  1  0.54020000  0.34780000  0.23040000  1.0 0.120230757
H  H186  1  0.45980000  0.84780000  0.26960000  1.0 0.120230757
H  H187  1  0.45980000  0.65220000  0.76960000  1.0 0.1284993871
H  H188  1  0.54020000  0.15220000  0.73040000  1.0 0.120230757
H  H189  1  0.76000000  0.29610000  0.27570000  1.0 0.1384212133
H  H190  1  0.24000000  0.79610000  0.22430000  1.0 0.1384212133
H  H191  1  0.24000000  0.70390000  0.72430000  1.0 0.1384212133
H  H192  1  0.76000000  0.20390000  0.77570000  1.0 0.1384212133
H  H193  1  0.67860000  0.27920000  0.21140000  1.0 0.1384212133
H  H194  1  0.32140000  0.77920000  0.28860000  1.0 0.1384212133
H  H195  1  0.32140000  0.72080000  0.78860000  1.0 0.1384212133
H  H196  1  0.67860000  0.22080000  0.71140000  1.0 0.1384212133
H  H197  1  0.71410000  0.32830000  0.20270000  1.0 0.1384212133
H  H198  1  0.28590000  0.82830000  0.29730000  1.0 0.1384212133
H  H199  1  0.28590000  0.67170000  0.79730000  1.0 0.1384212133
H  H200  1  0.71410000  0.17170000  0.70270000  1.0 0.1384212133
H  H201  1  0.61520000  0.33320000  0.41040000  1.0 0.1011608815
H  H202  1  0.38480000  0.83320000  0.08960000  1.0 0.1011608815
H  H203  1  0.38480000  0.66680000  0.58960000  1.0 0.1011608815
H  H204  1  0.61520000  0.16680000  0.91040000  1.0 0.1011608815
H  H205  1  0.82370000  0.72530000  0.54450000  1.0 0.120230757
H  H206  1  0.17630000  0.22530000  0.95550000  1.0 0.120230757
H  H207  1  0.17630000  0.27470000  0.45550000  1.0 0.120230757
H  H208  1  0.82370000  0.77470000  0.04450000  1.0 0.120230757
H  H209  1  0.93400000  0.76720000  0.60840000  1.0 0.1011608815
H  H210  1  0.06600000  0.26720000  0.89160000  1.0 0.1011608815
H  H211  1  0.06600000  0.23280000  0.39160000  1.0 0.1011608815
H  H212  1  0.93400000  0.73280000  0.10840000  1.0 0.1011608815
H  H213  1  0.09060000  0.68960000  0.51050000  1.0 0.0810614567
H  H214  1  0.90940000  0.18960000  0.98950000  1.0 0.0810614567
H  H215  1  0.90940000  0.31040000  0.48950000  1.0 0.0810614567
H  H216  1  0.09060000  0.81040000  0.01050000  1.0 0.0810614567
H  H217  1  0.97130000  0.64520000  0.44780000  1.0 0.0670575633
H  H218  1  0.02870000  0.14520000  0.05220000  1.0 0.0588139072
H  H219  1  0.02870000  0.35480000  0.55220000  1.0 0.0588139072
H  H220  1  0.97130000  0.85480000  0.94780000  1.0 0.0670575633
C  C1  1  0.11550000  0.64440000  0.52730000  1.0 0.1498028885
C  C2  1  0.88450000  0.14440000  0.97270000  1.0 0.1498028885
C  C3  1  0.88450000  0.35560000  0.47270000  1.0 0.1498028885
C  C4  1  0.11550000  0.85560000  0.02730000  1.0 0.1498028885
C  C5  1  0.01450000  0.60880000  0.43380000  1.0 -0.3166340837
C  C6  1  0.98550000  0.10880000  0.06620000  1.0 -0.3166340837
C  C7  1  0.98550000  0.39120000  0.56620000  1.0 -0.3166340837
C  C8  1  0.01450000  0.89120000  0.93380000  1.0 -0.3166340837
C  C9  1  0.07850000  0.57000000  0.57970000  1.0 -0.2756755898
C  C10  1  0.92150000  0.07000000  0.92030000  1.0 -0.2756755898
C  C11  1  0.92150000  0.43000000  0.42030000  1.0 -0.2756755898
C  C12  1  0.07850000  0.93000000  0.07970000  1.0 -0.2756755898
C  C13  1  0.97220000  0.73720000  0.51970000  1.0 -0.0370783704
C  C14  1  0.02780000  0.23720000  0.98030000  1.0 -0.0370783704
C  C15  1  0.02780000  0.26280000  0.48030000  1.0 -0.0370783704
C  C16  1  0.97220000  0.76280000  0.01970000  1.0 -0.0370783704
C  C17  1  0.90100000  0.71100000  0.48870000  1.0 -0.0294480545
C  C18  1  0.09900000  0.21100000  0.01130000  1.0 -0.0294480545
C  C19  1  0.09900000  0.28900000  0.51130000  1.0 -0.0294480545
C  C20  1  0.90100000  0.78900000  0.98870000  1.0 -0.0294480545
C  C21  1  0.92460000  0.67000000  0.61900000  1.0 -0.1628800469
C  C22  1  0.07540000  0.17000000  0.88100000  1.0 -0.1628800469
C  C23  1  0.07540000  0.33000000  0.38100000  1.0 -0.1628800469
C  C24  1  0.92460000  0.83000000  0.11900000  1.0 -0.1628800469
C  C25  1  0.99620000  0.69640000  0.64870000  1.0 -0.1508584755
C  C26  1  0.00380000  0.19640000  0.85130000  1.0 -0.1508584755
C  C27  1  0.00380000  0.30360000  0.35130000  1.0 -0.1508584755
C  C28  1  0.99620000  0.80360000  0.14870000  1.0 -0.1508584755
C  C29  1  0.51500000  0.63271000  0.40140000  1.0 -0.1413972291
C  C30  1  0.48500000  0.13271000  0.09860000  1.0 -0.1413972291
C  C31  1  0.48500000  0.36729000  0.59860000  1.0 -0.1413972291
C  C32  1  0.51500000  0.86729000  0.90140000  1.0 -0.1413972291
C  C33  1  0.57570000  0.67491000  0.30390000  1.0 -0.1628800469
C  C34  1  0.42430000  0.17491000  0.19610000  1.0 -0.1628800469
C  C35  1  0.42430000  0.32509000  0.69610000  1.0 -0.1628800469
C  C36  1  0.57570000  0.82509000  0.80390000  1.0 -0.1628800469
C  C37  1  0.49610000  0.68930000  0.26530000  1.0 -0.1006424341
C  C38  1  0.50390000  0.18930000  0.23470000  1.0 -0.1006424341
C  C39  1  0.50390000  0.31070000  0.73470000  1.0 -0.1006424341
C  C40  1  0.49610000  0.81070000  0.76530000  1.0 -0.1006424341
C  C41  1  0.43570000  0.64745000  0.36460000  1.0 -0.1073456095
C  C42  1  0.56430000  0.14745000  0.13540000  1.0 -0.1073456095
C  C43  1  0.56430000  0.35255000  0.63540000  1.0 -0.1073456095
C  C44  1  0.43570000  0.85255000  0.86460000  1.0 -0.1073456095
C  C45  1  0.07230000  0.16535000  0.62900000  1.0 0.0670575633
C  C46  1  0.92770000  0.66535000  0.87100000  1.0 0.0670575633
C  C47  1  0.92770000  0.83465000  0.37100000  1.0 0.0670575633
C  C48  1  0.07230000  0.33465000  0.12900000  1.0 0.0670575633
C  C49  1  0.99340000  0.14842000  0.59570000  1.0 -0.1508584755
C  C50  1  0.00660000  0.64842000  0.90430000  1.0 -0.1508584755
C  C51  1  0.00660000  0.85158000  0.40430000  1.0 -0.1508584755
C  C52  1  0.99340000  0.35158000  0.09570000  1.0 -0.1508584755
C  C53  1  0.17050000  0.33790000  0.89920000  1.0 -0.3715074981
C  C54  1  0.82950000  0.83790000  0.60080000  1.0 -0.3715074981
C  C55  1  0.82950000  0.66210000  0.10080000  1.0 -0.3715074981
C  C56  1  0.17050000  0.16210000  0.39920000  1.0 -0.3715074981
C  C57  1  0.58470000  0.22469000  0.51790000  1.0 0.5915496846
C  C58  1  0.41530000  0.72469000  0.98210000  1.0 0.5915496846
C  C59  1  0.41530000  0.77531000  0.48210000  1.0 0.5915496846
C  C60  1  0.58470000  0.27531000  0.01790000  1.0 0.5915496846
C  C61  1  0.10050000  0.75475000  0.62200000  1.0 0.5754475644
C  C62  1  0.89950000  0.25475000  0.87800000  1.0 0.5754475644
C  C63  1  0.89950000  0.24525000  0.37800000  1.0 0.5754475644
C  C64  1  0.10050000  0.74525000  0.12200000  1.0 0.5754475644
C  C65  1  0.20130000  0.87635000  0.60770000  1.0 0.5915496846
C  C66  1  0.79870000  0.37635000  0.89230000  1.0 0.5915496846
C  C67  1  0.79870000  0.12365000  0.39230000  1.0 0.5915496846
C  C68  1  0.20130000  0.62365000  0.10770000  1.0 0.5915496846
C  C69  1  0.42600000  0.67622000  0.29710000  1.0 -0.0294480545
C  C70  1  0.57400000  0.17622000  0.20290000  1.0 -0.0294480545
C  C71  1  0.57400000  0.32378000  0.70290000  1.0 -0.0294480545
C  C72  1  0.42600000  0.82378000  0.79710000  1.0 -0.0294480545
C  C73  1  0.78110000  0.38698000  0.59610000  1.0 0.5636690905
C  C74  1  0.21890000  0.88698000  0.90390000  1.0 0.5636690905
C  C75  1  0.21890000  0.61302000  0.40390000  1.0 0.5636690905
C  C76  1  0.78110000  0.11302000  0.09610000  1.0 0.5636690905
C  C77  1  0.92070000  0.17329000  0.59180000  1.0 -0.0835638965
C  C78  1  0.07930000  0.67329000  0.90820000  1.0 -0.0835638965
C  C79  1  0.07930000  0.82671000  0.40820000  1.0 -0.0835638965
C  C80  1  0.92070000  0.32671000  0.09180000  1.0 -0.0835638965
C  C81  1  0.84980000  0.24493000  0.60630000  1.0 0.5675309351
C  C82  1  0.15020000  0.74493000  0.89370000  1.0 0.5675309351
C  C83  1  0.15020000  0.75507000  0.39370000  1.0 0.5675309351
C  C84  1  0.84980000  0.25507000  0.10630000  1.0 0.5675309351
C  C85  1  0.58590000  0.64672000  0.37190000  1.0 0.0670575633
C  C86  1  0.41410000  0.14672000  0.12810000  1.0 0.0670575633
C  C87  1  0.41410000  0.35328000  0.62810000  1.0 0.0670575633
C  C88  1  0.58590000  0.85328000  0.87190000  1.0 0.0670575633
C  C89  1  0.92510000  0.21609000  0.62150000  1.0 -0.0294480545
C  C90  1  0.07490000  0.71609000  0.87850000  1.0 -0.0294480545
C  C91  1  0.07490000  0.78391000  0.37850000  1.0 -0.0294480545
C  C92  1  0.92510000  0.28391000  0.12150000  1.0 -0.0294480545
C  C93  1  0.02230000  0.72858000  0.58950000  1.0 0.0082125062
C  C94  1  0.97770000  0.22858000  0.91050000  1.0 0.0082125062
C  C95  1  0.97770000  0.27142000  0.41050000  1.0 0.0082125062
C  C96  1  0.02230000  0.77142000  0.08950000  1.0 0.0082125062
C  C97  1  0.77650000  0.43428000  0.56360000  1.0 -0.0294480545
C  C98  1  0.22350000  0.93428000  0.93640000  1.0 -0.0294480545
C  C99  1  0.22350000  0.56572000  0.43640000  1.0 -0.0294480545
C  C100  1  0.77650000  0.06572000  0.06360000  1.0 -0.0294480545
C  C101  1  0.20600000  0.92623000  0.60850000  1.0 -0.0294480545
C  C102  1  0.79400000  0.42623000  0.89150000  1.0 -0.0294480545
C  C103  1  0.79400000  0.07377000  0.39150000  1.0 -0.0294480545
C  C104  1  0.20600000  0.57377000  0.10850000  1.0 -0.0294480545
C  C105  1  0.14920000  0.13989000  0.62280000  1.0 0.0810614567
C  C106  1  0.85080000  0.63989000  0.87720000  1.0 0.0810614567
C  C107  1  0.85080000  0.86011000  0.37720000  1.0 0.0810614567
C  C108  1  0.14920000  0.36011000  0.12280000  1.0 0.0810614567
C  C109  1  0.21980000  0.16175000  0.60640000  1.0 -0.2176389123
C  C110  1  0.78020000  0.66175000  0.89360000  1.0 -0.2176389123
C  C111  1  0.78020000  0.83825000  0.39360000  1.0 -0.2176389123
C  C112  1  0.21980000  0.33825000  0.10640000  1.0 -0.2176389123
C  C113  1  0.34020000  0.69348000  0.25810000  1.0 0.6099246791
C  C114  1  0.65980000  0.19348000  0.24190000  1.0 0.6099246791
C  C115  1  0.65980000  0.30652000  0.74190000  1.0 0.6099246791
C  C116  1  0.34020000  0.80652000  0.75810000  1.0 0.6099246791
C  C117  1  0.82560000  0.46680000  0.61170000  1.0 -0.1073456095
C  C118  1  0.17440000  0.96680000  0.88830000  1.0 -0.1073456095
C  C119  1  0.17440000  0.53320000  0.38830000  1.0 -0.1073456095
C  C120  1  0.82560000  0.03320000  0.11170000  1.0 -0.1073456095
C  C121  1  0.73730000  0.66048000  0.44140000  1.0 -0.2176389123
C  C122  1  0.26270000  0.16048000  0.05860000  1.0 -0.2176389123
C  C123  1  0.26270000  0.33952000  0.55860000  1.0 -0.2176389123
C  C124  1  0.73730000  0.83952000  0.94140000  1.0 -0.2176389123
C  C125  1  0.14880000  0.09361000  0.62660000  1.0 -0.2103591908
C  C126  1  0.85120000  0.59361000  0.87340000  1.0 -0.2103591908
C  C127  1  0.85120000  0.90639000  0.37340000  1.0 -0.2103591908
C  C128  1  0.14880000  0.40639000  0.12660000  1.0 -0.2103591908
C  C129  1  0.21450000  0.01933000  0.61200000  1.0 0.0670575633
C  C130  1  0.78550000  0.51933000  0.88800000  1.0 0.0670575633
C  C131  1  0.78550000  0.98067000  0.38800000  1.0 0.0670575633
C  C132  1  0.21450000  0.48067000  0.11200000  1.0 0.0670575633
C  C133  1  0.50570000  0.20368000  0.53460000  1.0 -0.0294480545
C  C134  1  0.49430000  0.70368000  0.96540000  1.0 -0.0294480545
C  C135  1  0.49430000  0.79632000  0.46540000  1.0 -0.0294480545
C  C136  1  0.50570000  0.29632000  0.03460000  1.0 -0.0294480545
C  C137  1  0.28850000  0.13801000  0.59100000  1.0 0.0810614567
C  C138  1  0.71150000  0.63801000  0.90900000  1.0 0.0810614567
C  C139  1  0.71150000  0.86199000  0.40900000  1.0 0.0810614567
C  C140  1  0.28850000  0.36199000  0.09100000  1.0 0.0810614567
C  C141  1  0.67030000  0.63087000  0.41580000  1.0 0.0909509014
C  C142  1  0.32970000  0.13087000  0.08420000  1.0 0.0909509014
C  C143  1  0.32970000  0.36913000  0.58420000  1.0 0.0909509014
C  C144  1  0.67030000  0.86913000  0.91580000  1.0 0.0909509014
C  C145  1  0.28670000  0.09153000  0.59350000  1.0 -0.2103591908
C  C146  1  0.71330000  0.59153000  0.90650000  1.0 -0.2103591908
C  C147  1  0.71330000  0.90847000  0.40650000  1.0 -0.2103591908
C  C148  1  0.28670000  0.40847000  0.09350000  1.0 -0.2103591908
C  C149  1  0.36340000  0.16105000  0.57120000  1.0 0.0670575633
C  C150  1  0.63660000  0.66105000  0.92880000  1.0 0.0670575633
C  C151  1  0.63660000  0.83895000  0.42880000  1.0 0.0670575633
C  C152  1  0.36340000  0.33895000  0.07120000  1.0 0.0670575633
C  C153  1  0.21750000  0.06894000  0.61200000  1.0 0.0909509014
C  C154  1  0.78250000  0.56894000  0.88800000  1.0 0.0909509014
C  C155  1  0.78250000  0.93106000  0.38800000  1.0 0.0909509014
C  C156  1  0.21750000  0.43106000  0.11200000  1.0 0.0909509014
C  C157  1  0.68170000  0.58676000  0.43870000  1.0 -0.1964235802
C  C158  1  0.31830000  0.08676000  0.06130000  1.0 -0.1964235802
C  C159  1  0.31830000  0.41324000  0.56130000  1.0 -0.1964235802
C  C160  1  0.68170000  0.91324000  0.93870000  1.0 -0.1964235802
C  C161  1  0.16890000  0.95059000  0.66470000  1.0 -0.1006424341
C  C162  1  0.83110000  0.45059000  0.83530000  1.0 -0.1006424341
C  C163  1  0.83110000  0.04941000  0.33530000  1.0 -0.1006424341
C  C164  1  0.16890000  0.54941000  0.16470000  1.0 -0.1006424341
C  C165  1  0.46020000  0.22344000  0.58800000  1.0 -0.1006424341
C  C166  1  0.53980000  0.72344000  0.91200000  1.0 -0.1006424341
C  C167  1  0.53980000  0.77656000  0.41200000  1.0 -0.1006424341
C  C168  1  0.46020000  0.27656000  0.08800000  1.0 -0.1006424341
C  C169  1  0.24860000  0.94859000  0.55530000  1.0 -0.1006424341
C  C170  1  0.75140000  0.44859000  0.94470000  1.0 -0.1006424341
C  C171  1  0.75140000  0.05141000  0.44470000  1.0 -0.1006424341
C  C172  1  0.24860000  0.55141000  0.05530000  1.0 -0.1006424341
C  C173  1  0.76540000  0.52283000  0.51060000  1.0 0.0810614567
C  C174  1  0.23460000  0.02283000  0.98940000  1.0 0.0810614567
C  C175  1  0.23460000  0.47717000  0.48940000  1.0 0.0810614567
C  C176  1  0.76540000  0.97717000  0.01060000  1.0 0.0810614567
C  C177  1  0.81930000  0.51050000  0.58470000  1.0 -0.1508584755
C  C178  1  0.18070000  0.01050000  0.91530000  1.0 -0.1508584755
C  C179  1  0.18070000  0.48950000  0.41530000  1.0 -0.1508584755
C  C180  1  0.81930000  0.98950000  0.08470000  1.0 -0.1508584755
C  C181  1  0.40690000  0.14300000  0.51440000  1.0 -0.1628800469
C  C182  1  0.59310000  0.64300000  0.98560000  1.0 -0.1628800469
C  C183  1  0.59310000  0.85700000  0.48560000  1.0 -0.1628800469
C  C184  1  0.40690000  0.35700000  0.01440000  1.0 -0.1628800469
C  C185  1  0.17340000  0.99635000  0.66390000  1.0 -0.1508584755
C  C186  1  0.82660000  0.49635000  0.83610000  1.0 -0.1508584755
C  C187  1  0.82660000  0.00365000  0.33610000  1.0 -0.1508584755
C  C188  1  0.17340000  0.50365000  0.16390000  1.0 -0.1508584755
C  C189  1  0.72360000  0.44581000  0.48870000  1.0 -0.1006424341
C  C190  1  0.27640000  0.94581000  0.01130000  1.0 -0.1006424341
C  C191  1  0.27640000  0.55419000  0.51130000  1.0 -0.1006424341
C  C192  1  0.72360000  0.05419000  0.98870000  1.0 -0.1006424341
C  C193  1  0.07550000  0.20772000  0.66340000  1.0 -0.1712172726
C  C194  1  0.92450000  0.70772000  0.83660000  1.0 -0.1712172726
C  C195  1  0.92450000  0.79228000  0.33660000  1.0 -0.1712172726
C  C196  1  0.07550000  0.29228000  0.16340000  1.0 -0.1712172726
C  C197  1  0.88300000  0.67628000  0.52530000  1.0 0.0588139072
C  C198  1  0.11700000  0.17628000  0.97470000  1.0 0.0588139072
C  C199  1  0.11700000  0.32372000  0.47470000  1.0 0.0588139072
C  C200  1  0.88300000  0.82372000  0.02530000  1.0 0.0588139072
C  C201  1  0.81180000  0.64585000  0.48970000  1.0 0.052448016
C  C202  1  0.18820000  0.14585000  0.01030000  1.0 0.052448016
C  C203  1  0.18820000  0.35415000  0.51030000  1.0 0.052448016
C  C204  1  0.81180000  0.85415000  0.98970000  1.0 0.052448016
C  C205  1  0.71900000  0.48977000  0.46230000  1.0 -0.1628800469
C  C206  1  0.28100000  0.98977000  0.03770000  1.0 -0.1628800469
C  C207  1  0.28100000  0.51023000  0.53770000  1.0 -0.1628800469
C  C208  1  0.71900000  0.01023000  0.96230000  1.0 -0.1628800469
C  C209  1  0.38930000  0.20244000  0.60630000  1.0 -0.1712172726
C  C210  1  0.61070000  0.70244000  0.89370000  1.0 -0.1712172726
C  C211  1  0.61070000  0.79756000  0.39370000  1.0 -0.1712172726
C  C212  1  0.38930000  0.29756000  0.10630000  1.0 -0.1712172726
C  C213  1  0.75590000  0.57056000  0.48480000  1.0 0.0909509014
C  C214  1  0.24410000  0.07056000  0.01520000  1.0 0.0909509014
C  C215  1  0.24410000  0.42944000  0.51520000  1.0 0.0909509014
C  C216  1  0.75590000  0.92944000  0.98480000  1.0 0.0909509014
C  C217  1  0.00330000  0.23300000  0.65910000  1.0 -0.1206063708
C  C218  1  0.99670000  0.73300000  0.84090000  1.0 -0.1206063708
C  C219  1  0.99670000  0.76700000  0.34090000  1.0 -0.1206063708
C  C220  1  0.00330000  0.26700000  0.15910000  1.0 -0.1206063708
C  C221  1  0.25340000  0.99486000  0.55820000  1.0 -0.1628800469
C  C222  1  0.74660000  0.49486000  0.94180000  1.0 -0.1628800469
C  C223  1  0.74660000  0.00514000  0.44180000  1.0 -0.1628800469
C  C224  1  0.25340000  0.50514000  0.05820000  1.0 -0.1628800469
C  C225  1  0.47820000  0.16371000  0.49600000  1.0 -0.1006424341
C  C226  1  0.52180000  0.66371000  0.00400000  1.0 -0.1006424341
C  C227  1  0.52180000  0.83629000  0.50400000  1.0 -0.1006424341
C  C228  1  0.47820000  0.33629000  0.99600000  1.0 -0.1006424341
C  C229  1  0.82070000  0.60103000  0.51220000  1.0 -0.2103591908
C  C230  1  0.17930000  0.10103000  0.98780000  1.0 -0.2103591908
C  C231  1  0.17930000  0.39897000  0.48780000  1.0 -0.2103591908
C  C232  1  0.82070000  0.89897000  0.01220000  1.0 -0.2103591908
C  C233  1  0.02980000  0.34450000  0.81180000  1.0 0.282295612
C  C234  1  0.97020000  0.84450000  0.68820000  1.0 0.282295612
C  C235  1  0.97020000  0.65550000  0.18820000  1.0 0.282295612
C  C236  1  0.02980000  0.15550000  0.31180000  1.0 0.282295612
C  C237  1  0.15200000  0.34460000  0.74460000  1.0 -0.340589265
C  C238  1  0.84800000  0.84460000  0.75540000  1.0 -0.340589265
C  C239  1  0.84800000  0.65540000  0.25540000  1.0 -0.340589265
C  C240  1  0.15200000  0.15540000  0.24460000  1.0 -0.340589265
C  C241  1  0.59570000  0.35960000  0.25580000  1.0 -0.3524495611
C  C242  1  0.40430000  0.85960000  0.24420000  1.0 -0.3524495611
C  C243  1  0.40430000  0.64040000  0.74420000  1.0 -0.3524495611
C  C244  1  0.59570000  0.14040000  0.75580000  1.0 -0.3524495611
C  C245  1  0.70560000  0.30500000  0.24240000  1.0 -0.3566525379
C  C246  1  0.29440000  0.80500000  0.25760000  1.0 -0.3566525379
C  C247  1  0.29440000  0.69500000  0.75760000  1.0 -0.3566525379
C  C248  1  0.70560000  0.19500000  0.74240000  1.0 -0.3566525379
C  C249  1  0.65280000  0.31690000  0.38370000  1.0 0.2733153379
C  C250  1  0.34720000  0.81690000  0.11630000  1.0 0.2733153379
C  C251  1  0.34720000  0.68310000  0.61630000  1.0 0.2733153379
C  C252  1  0.65280000  0.18310000  0.88370000  1.0 0.2733153379
C  C253  1  0.87830000  0.71290000  0.54980000  1.0 -0.0123917182
C  C254  1  0.12170000  0.21290000  0.95020000  1.0 -0.0123917182
C  C255  1  0.12170000  0.28710000  0.45020000  1.0 -0.0123917182
C  C256  1  0.87830000  0.78710000  0.04980000  1.0 -0.0123917182
C  C257  1  0.94570000  0.73930000  0.58550000  1.0 -0.0370783704
C  C258  1  0.05430000  0.23930000  0.91450000  1.0 -0.0370783704
C  C259  1  0.05430000  0.26070000  0.41450000  1.0 -0.0370783704
C  C260  1  0.94570000  0.76070000  0.08550000  1.0 -0.0370783704
C  C261  1  0.03720000  0.69330000  0.52530000  1.0 -0.1508584755
C  C262  1  0.96280000  0.19330000  0.97470000  1.0 -0.1508584755
C  C263  1  0.96280000  0.30670000  0.47470000  1.0 -0.1508584755
C  C264  1  0.03720000  0.80670000  0.02530000  1.0 -0.1508584755
C  C265  1  0.96830000  0.66690000  0.48960000  1.0 -0.1964235802
C  C266  1  0.03170000  0.16690000  0.01040000  1.0 -0.1910488506
C  C267  1  0.03170000  0.33310000  0.51040000  1.0 -0.1910488506
C  C268  1  0.96830000  0.83310000  0.98960000  1.0 -0.1964235802
N  N1  1  0.07070000  0.60910000  0.51410000  1.0 -0.0835638965
N  N2  1  0.92930000  0.10910000  0.98590000  1.0 -0.0835638965
N  N3  1  0.92930000  0.39090000  0.48590000  1.0 -0.0835638965
N  N4  1  0.07070000  0.89090000  0.01410000  1.0 -0.0835638965
N  N5  1  0.64810000  0.32320000  0.30200000  1.0 0.120230757
N  N6  1  0.35190000  0.82320000  0.19800000  1.0 0.120230757
N  N7  1  0.35190000  0.67680000  0.69800000  1.0 0.120230757
N  N8  1  0.64810000  0.17680000  0.80200000  1.0 0.120230757
N  N9  1  0.11400000  0.34570000  0.81830000  1.0 0.0278529091
N  N10  1  0.88600000  0.84570000  0.68170000  1.0 0.0278529091
N  N11  1  0.88600000  0.65430000  0.18170000  1.0 0.0278529091
N  N12  1  0.11400000  0.15430000  0.31830000  1.0 0.0278529091
O  O1  1  0.17080000  0.65250000  0.59260000  1.0 -0.1006424341
O  O2  1  0.82920000  0.15250000  0.90740000  1.0 -0.1006424341
O  O3  1  0.82920000  0.34750000  0.40740000  1.0 -0.1006424341
O  O4  1  0.17080000  0.84750000  0.09260000  1.0 -0.0927436674
O  O5  1  0.28230000  0.69170000  0.30100000  1.0 -0.5991966451
O  O6  1  0.71770000  0.19170000  0.19900000  1.0 -0.5991966451
O  O7  1  0.71770000  0.30830000  0.69900000  1.0 -0.5991966451
O  O8  1  0.28230000  0.80830000  0.80100000  1.0 -0.5991966451
O  O9  1  0.73353000  0.35956000  0.55000000  1.0 -0.5663935939
O  O10  1  0.26647000  0.85956000  0.95000000  1.0 -0.5663935939
O  O11  1  0.26647000  0.64044000  0.45000000  1.0 -0.5663935939
O  O12  1  0.73353000  0.14044000  0.05000000  1.0 -0.5663935939
O  O13  1  0.60491000  0.26193000  0.55390000  1.0 -0.5663935939
O  O14  1  0.39509000  0.76193000  0.94610000  1.0 -0.5663935939
O  O15  1  0.39509000  0.73807000  0.44610000  1.0 -0.5663935939
O  O16  1  0.60491000  0.23807000  0.05390000  1.0 -0.5663935939
O  O17  1  0.62480000  0.20435000  0.47140000  1.0 -0.5410558694
O  O18  1  0.37520000  0.70435000  0.02860000  1.0 -0.5410558694
O  O19  1  0.37520000  0.79565000  0.52860000  1.0 -0.5410558694
O  O20  1  0.62480000  0.29565000  0.97140000  1.0 -0.5348313401
O  O21  1  0.77925000  0.22851000  0.57280000  1.0 -0.5518976698
O  O22  1  0.22075000  0.72851000  0.92720000  1.0 -0.5518976698
O  O23  1  0.22075000  0.77149000  0.42720000  1.0 -0.5518976698
O  O24  1  0.77925000  0.27149000  0.07280000  1.0 -0.5518976698
O  O25  1  0.85500000  0.28596000  0.62270000  1.0 -0.5610345552
O  O26  1  0.14500000  0.78596000  0.87730000  1.0 -0.5610345552
O  O27  1  0.14500000  0.71404000  0.37730000  1.0 -0.5610345552
O  O28  1  0.85500000  0.21404000  0.12270000  1.0 -0.5610345552
O  O29  1  0.15670000  0.85865000  0.65470000  1.0 -0.5991966451
O  O30  1  0.84330000  0.35865000  0.84530000  1.0 -0.5991966451
O  O31  1  0.84330000  0.14135000  0.34530000  1.0 -0.5991966451
O  O32  1  0.15670000  0.64135000  0.15470000  1.0 -0.5991966451
O  O33  1  0.23990000  0.85559000  0.56010000  1.0 -0.5610345552
O  O34  1  0.76010000  0.35559000  0.93990000  1.0 -0.5610345552
O  O35  1  0.76010000  0.14441000  0.43990000  1.0 -0.5610345552
O  O36  1  0.23990000  0.64441000  0.06010000  1.0 -0.5610345552
O  O37  1  0.14710000  0.76351000  0.57290000  1.0 -0.5141260127
O  O38  1  0.85290000  0.26351000  0.92710000  1.0 -0.5141260127
O  O39  1  0.85290000  0.23649000  0.42710000  1.0 -0.5141260127
O  O40  1  0.14710000  0.73649000  0.07290000  1.0 -0.5141260127
O  O41  1  0.70910000  0.28782000  0.43340000  1.0 -0.6175430218
O  O42  1  0.29090000  0.78782000  0.06660000  1.0 -0.6175430218
O  O43  1  0.29090000  0.71218000  0.56660000  1.0 -0.6175430218
O  O44  1  0.70910000  0.21218000  0.93340000  1.0 -0.6175430218
O  O45  1  0.82860000  0.37879000  0.66430000  1.0 -0.5410558694
O  O46  1  0.17140000  0.87879000  0.83570000  1.0 -0.5410558694
O  O47  1  0.17140000  0.62121000  0.33570000  1.0 -0.5410558694
O  O48  1  0.82860000  0.12121000  0.16430000  1.0 -0.5410558694
O  O49  1  0.33070000  0.70848000  0.18570000  1.0 -0.5348313401
O  O50  1  0.66930000  0.20848000  0.31430000  1.0 -0.5348313401
O  O51  1  0.66930000  0.29152000  0.81430000  1.0 -0.5348313401
O  O52  1  0.33070000  0.79152000  0.68570000  1.0 -0.5348313401
O  O53  1  0.98150000  0.33938000  0.74970000  1.0 -0.3959115097
O  O54  1  0.01850000  0.83938000  0.75030000  1.0 -0.3959115097
O  O55  1  0.01850000  0.66062000  0.25030000  1.0 -0.3959115097
O  O56  1  0.98150000  0.16062000  0.24970000  1.0 -0.3959115097
O  O57  1  0.11610000  0.76435000  0.69920000  1.0 -0.5410558694
O  O58  1  0.88390000  0.26435000  0.80080000  1.0 -0.5410558694
O  O59  1  0.88390000  0.23565000  0.30080000  1.0 -0.5410558694
O  O60  1  0.11610000  0.73565000  0.19920000  1.0 -0.5410558694
O  O61  1  0.15270000  0.61640000  0.63900000  1.0 -0.1848188141
O  O62  1  0.84730000  0.11640000  0.86100000  1.0 -0.1848188141
O  O63  1  0.84730000  0.38360000  0.36100000  1.0 -0.1848188141
O  O64  1  0.15270000  0.88360000  0.13900000  1.0 -0.1910488506
