# DDEC6 charges by PACMAN v1.1 (https://github.com/mtap-research/PACMAN-charge/)
data_KICXAX_ASR_pacman
_symmetry_space_group_name_H-M   'P 1'
_cell_length_a   14.84000000
_cell_length_b   14.90700000
_cell_length_c   22.11800000
_cell_angle_alpha   88.76700000
_cell_angle_beta   87.16900000
_cell_angle_gamma   75.79600000
_symmetry_Int_Tables_number   1
_chemical_formula_structural   CoAsH24W9C16(NO2)12
_chemical_formula_sum   'Co4 As4 H96 W36 C64 N48 O96'
_cell_volume   4737.34318943
_cell_formula_units_Z   4
loop_
 _symmetry_equiv_pos_site_id
 _symmetry_equiv_pos_as_xyz
  1  'x, y, z'
loop_
 _atom_site_type_symbol
 _atom_site_label
 _atom_site_symmetry_multiplicity
 _atom_site_fract_x
 _atom_site_fract_y
 _atom_site_fract_z
 _atom_site_occupancy
 _atom_site_charge
Co  Co1  1  0.50000000  0.00000000  0.50000000  1.0 0.7493316143
Co  Co2  1  0.00000000  0.50000000  0.50000000  1.0 0.8423285096
Co  Co3  1  0.72270000  0.24750000  0.01960000  1.0 0.7365757137
Co  Co4  1  0.27730000  0.75250000  0.98040000  1.0 0.7365757137
As  As1  1  0.78230000  0.87780000  0.22580000  1.0 1.541688463
As  As2  1  0.21770000  0.12220000  0.77420000  1.0 1.541688463
As  As3  1  0.74910000  0.62860000  0.22490000  1.0 1.5574329107
As  As4  1  0.25090000  0.37140000  0.77510000  1.0 1.5531738012
H  H1  1  0.73130000  0.32370000  0.87730000  1.0 0.1007010623
H  H2  1  0.26870000  0.67630000  0.12270000  1.0 0.1088097984
H  H3  1  0.55910000  0.44390000  0.00550000  1.0 0.1007010623
H  H4  1  0.44090000  0.55610000  0.99450000  1.0 0.1007010623
H  H5  1  0.58890000  0.50840000  0.80430000  1.0 0.1007010623
H  H6  1  0.41110000  0.49160000  0.19570000  1.0 0.1007010623
H  H7  1  0.67190000  0.54490000  0.82740000  1.0 0.1007010623
H  H8  1  0.32810000  0.45510000  0.17260000  1.0 0.1007010623
H  H9  1  0.58830000  0.30880000  0.14360000  1.0 0.1404628725
H  H10  1  0.41170000  0.69120000  0.85640000  1.0 0.1404628725
H  H11  1  0.55650000  0.14000000  0.02180000  1.0 0.1088097984
H  H12  1  0.44350000  0.86000000  0.97820000  1.0 0.1088097984
H  H13  1  0.39550000  0.11680000  0.13530000  1.0 0.1007010623
H  H14  1  0.60450000  0.88320000  0.86470000  1.0 0.1007010623
H  H15  1  0.41840000  0.08750000  0.06760000  1.0 0.1007010623
H  H16  1  0.58160000  0.91250000  0.93240000  1.0 0.1007010623
H  H17  1  0.31410000  0.22500000  0.03590000  1.0 0.0787111648
H  H18  1  0.68590000  0.77500000  0.96410000  1.0 0.0787111648
H  H19  1  0.26250000  0.16520000  0.07720000  1.0 0.0899614881
H  H20  1  0.73750000  0.83480000  0.92280000  1.0 0.0899614881
H  H21  1  0.85250000  0.04330000  0.98870000  1.0 0.1194016185
H  H22  1  0.14750000  0.95670000  0.01130000  1.0 0.1194016185
H  H23  1  0.76800000  0.53630000  0.49740000  1.0 0.127730335
H  H24  1  0.23200000  0.46370000  0.50260000  1.0 0.127730335
H  H25  1  0.94140000  0.36800000  0.61200000  1.0 0.1088097984
H  H26  1  0.05860000  0.63200000  0.38800000  1.0 0.1194016185
H  H27  1  0.57710000  0.78690000  0.72240000  1.0 0.1007010623
H  H28  1  0.42290000  0.21310000  0.27760000  1.0 0.1007010623
H  H29  1  0.57580000  0.68890000  0.69770000  1.0 0.1007010623
H  H30  1  0.42420000  0.31110000  0.30230000  1.0 0.1007010623
H  H31  1  0.73190000  0.66600000  0.66540000  1.0 0.0899614881
H  H32  1  0.26810000  0.33400000  0.33460000  1.0 0.0899614881
H  H33  1  0.71920000  0.67810000  0.73580000  1.0 0.0899614881
H  H34  1  0.28080000  0.32190000  0.26420000  1.0 0.0899614881
H  H35  1  0.73300000  0.82650000  0.65770000  1.0 0.0899614881
H  H36  1  0.26700000  0.17350000  0.34230000  1.0 0.0899614881
H  H37  1  0.73530000  0.82750000  0.72830000  1.0 0.0899614881
H  H38  1  0.26470000  0.17250000  0.27170000  1.0 0.0899614881
H  H39  1  0.26540000  0.26190000  0.15910000  1.0 0.0899614881
H  H40  1  0.73460000  0.73810000  0.84090000  1.0 0.0899614881
H  H41  1  0.31540000  0.32220000  0.11710000  1.0 0.0787111648
H  H42  1  0.68460000  0.67780000  0.88290000  1.0 0.0787111648
H  H43  1  0.16640000  0.39930000  0.12790000  1.0 0.1007010623
H  H44  1  0.83360000  0.60070000  0.87210000  1.0 0.1007010623
H  H45  1  0.18220000  0.36410000  0.06100000  1.0 0.1088097984
H  H46  1  0.81780000  0.63590000  0.93900000  1.0 0.1007010623
H  H47  1  0.02680000  0.32300000  0.03980000  1.0 0.1088097984
H  H48  1  0.97320000  0.67700000  0.96020000  1.0 0.1088097984
H  H49  1  0.88620000  0.81120000  0.69390000  1.0 0.1007010623
H  H50  1  0.11380000  0.18880000  0.30610000  1.0 0.1007010623
H  H51  1  0.88250000  0.71220000  0.71890000  1.0 0.1007010623
H  H52  1  0.11750000  0.28780000  0.28110000  1.0 0.1007010623
H  H53  1  0.81550000  0.34470000  0.69680000  1.0 0.0899614881
H  H54  1  0.18450000  0.65530000  0.30320000  1.0 0.0899614881
H  H55  1  0.71940000  0.34590000  0.66980000  1.0 0.1088097984
H  H56  1  0.28060000  0.65410000  0.33020000  1.0 0.1088097984
H  H57  1  0.65520000  0.48680000  0.70300000  1.0 0.1007010623
H  H58  1  0.34480000  0.51320000  0.29700000  1.0 0.1007010623
H  H59  1  0.75240000  0.50810000  0.71230000  1.0 0.1007010623
H  H60  1  0.24760000  0.49190000  0.28770000  1.0 0.1007010623
H  H61  1  0.65890000  0.06990000  0.80910000  1.0 0.0787111648
H  H62  1  0.34110000  0.93010000  0.19090000  1.0 0.0787111648
H  H63  1  0.72030000  0.96990000  0.82090000  1.0 0.1007010623
H  H64  1  0.27970000  0.03010000  0.17910000  1.0 0.1007010623
H  H65  1  0.85020000  0.00900000  0.77670000  1.0 0.0899614881
H  H66  1  0.14980000  0.99100000  0.22330000  1.0 0.0899614881
H  H67  1  0.79500000  0.11280000  0.77000000  1.0 0.0787111648
H  H68  1  0.20500000  0.88720000  0.23000000  1.0 0.0787111648
H  H69  1  0.00580000  0.17730000  0.19050000  1.0 0.1194016185
H  H70  1  0.99420000  0.82270000  0.80950000  1.0 0.1194016185
H  H71  1  0.80950000  0.98540000  0.68520000  1.0 0.1007010623
H  H72  1  0.19050000  0.01460000  0.31480000  1.0 0.1007010623
H  H73  1  0.70700000  0.99890000  0.71160000  1.0 0.0899614881
H  H74  1  0.29300000  0.00110000  0.28840000  1.0 0.0899614881
H  H75  1  0.78420000  0.13390000  0.66100000  1.0 0.1088097984
H  H76  1  0.21580000  0.86610000  0.33900000  1.0 0.1088097984
H  H77  1  0.68480000  0.15480000  0.69400000  1.0 0.0899614881
H  H78  1  0.31520000  0.84520000  0.30600000  1.0 0.0899614881
H  H79  1  0.69870000  0.36440000  0.78110000  1.0 0.0714237488
H  H80  1  0.30130000  0.63560000  0.21890000  1.0 0.0714237488
H  H81  1  0.77850000  0.41140000  0.79620000  1.0 0.0714237488
H  H82  1  0.22150000  0.58860000  0.20380000  1.0 0.0714237488
H  H83  1  0.66030000  0.18780000  0.88920000  1.0 0.1088097984
H  H84  1  0.33970000  0.81220000  0.11080000  1.0 0.1088097984
H  H85  1  0.87770000  0.72350000  0.48220000  1.0 0.1007010623
H  H86  1  0.12230000  0.27650000  0.51780000  1.0 0.1007010623
H  H87  1  0.96510000  0.58470000  0.63720000  1.0 0.1194016185
H  H88  1  0.03490000  0.41530000  0.36280000  1.0 0.1194016185
H  H89  1  0.59910000  0.77520000  0.48570000  1.0 0.1007010623
H  H90  1  0.40090000  0.22480000  0.51430000  1.0 0.1007010623
H  H91  1  0.51550000  0.92060000  0.64050000  1.0 0.1007010623
H  H92  1  0.48450000  0.07940000  0.35950000  1.0 0.1007010623
H  H93  1  0.71960000  0.98310000  0.48740000  1.0 0.127730335
H  H94  1  0.28040000  0.01690000  0.51260000  1.0 0.127730335
H  H95  1  0.54530000  0.11660000  0.62240000  1.0 0.1194016185
H  H96  1  0.45470000  0.88340000  0.37760000  1.0 0.127730335
W  W1  1  0.79694000  0.07776000  0.14118000  1.0 2.3508257279
W  W2  1  0.20306000  0.92224000  0.85882000  1.0 2.3508257279
W  W3  1  0.50457000  0.72302000  0.22543000  1.0 2.0305545538
W  W4  1  0.49543000  0.27698000  0.77457000  1.0 2.0189504831
W  W5  1  0.87969000  0.59712000  0.08755000  1.0 2.3217267006
W  W6  1  0.12031000  0.40288000  0.91245000  1.0 2.3311784475
W  W7  1  0.90887000  0.84180000  0.08705000  1.0 2.3117726653
W  W8  1  0.09113000  0.15820000  0.91295000  1.0 2.3117726653
W  W9  1  0.53960000  0.96550000  0.22894000  1.0 1.9772346227
W  W10  1  0.46040000  0.03450000  0.77106000  1.0 1.967879793
W  W11  1  0.83765000  0.39157000  0.27073000  1.0 2.2970776766
W  W12  1  0.16235000  0.60843000  0.72927000  1.0 2.3117726653
W  W13  1  0.60418000  0.47490000  0.26876000  1.0 2.3117726653
W  W14  1  0.39582000  0.52510000  0.73124000  1.0 2.3217267006
W  W15  1  0.73296000  0.43510000  0.13795000  1.0 2.4049318045
W  W16  1  0.26704000  0.56490000  0.86205000  1.0 2.4069923767
W  W17  1  0.65094000  0.91982000  0.09336000  1.0 1.7326026766
W  W18  1  0.34906000  0.08018000  0.90664000  1.0 1.7326026766
W  W19  1  0.62174000  0.67567000  0.09203000  1.0 2.0756345003
W  W20  1  0.37826000  0.32433000  0.90797000  1.0 2.07444503
W  W21  1  0.92501000  0.02731000  0.26466000  1.0 2.3508257279
W  W22  1  0.07499000  0.97269000  0.73534000  1.0 2.34144499
W  W23  1  0.85815000  0.59126000  0.36429000  1.0 2.4049318045
W  W24  1  0.14185000  0.40874000  0.63571000  1.0 2.4049318045
W  W25  1  0.99263000  0.54033000  0.21732000  1.0 2.0189504831
W  W26  1  0.00737000  0.45967000  0.78268000  1.0 1.9990081995
W  W27  1  0.90018000  0.83063000  0.36292000  1.0 2.3808921783
W  W28  1  0.09982000  0.16937000  0.63708000  1.0 2.3692536562
W  W29  1  0.69215000  0.11011000  0.27942000  1.0 2.2730021684
W  W30  1  0.30785000  0.88989000  0.72058000  1.0 2.2730021684
W  W31  1  0.62617000  0.66348000  0.36806000  1.0 2.388328573
W  W32  1  0.37383000  0.33652000  0.63194000  1.0 2.3808921783
W  W33  1  0.66780000  0.90216000  0.36984000  1.0 2.4069923767
W  W34  1  0.33220000  0.09784000  0.63016000  1.0 2.4069923767
W  W35  1  0.02612000  0.78291000  0.21353000  1.0 2.1365635603
W  W36  1  0.97388000  0.21709000  0.78647000  1.0 2.1592576712
C  C1  1  0.68800000  0.36500000  0.90100000  1.0 0.0573666452
C  C2  1  0.31200000  0.63500000  0.09900000  1.0 0.0573666452
C  C3  1  0.59400000  0.43200000  0.96900000  1.0 0.1088097984
C  C4  1  0.40600000  0.56800000  0.03100000  1.0 0.1088097984
C  C5  1  0.64900000  0.49000000  0.82200000  1.0 -0.1895848417
C  C6  1  0.35100000  0.51000000  0.17800000  1.0 -0.1895848417
C  C7  1  0.56500000  0.26900000  0.12100000  1.0 0.1007010623
C  C8  1  0.43500000  0.73100000  0.87900000  1.0 0.1007010623
C  C9  1  0.54500000  0.17900000  0.05500000  1.0 0.0787111648
C  C10  1  0.45500000  0.82100000  0.94500000  1.0 0.0787111648
C  C11  1  0.40200000  0.14000000  0.09400000  1.0 -0.1614395657
C  C12  1  0.59800000  0.86000000  0.90600000  1.0 -0.1614395657
C  C13  1  0.30800000  0.20200000  0.07700000  1.0 -0.2110722826
C  C14  1  0.69200000  0.79800000  0.92300000  1.0 -0.2110722826
C  C15  1  0.81200000  0.06000000  0.95700000  1.0 0.1194016185
C  C16  1  0.18800000  0.94000000  0.04300000  1.0 0.1194016185
C  C17  1  0.79000000  0.49800000  0.53010000  1.0 0.1404628725
C  C18  1  0.21000000  0.50200000  0.46990000  1.0 0.1404628725
C  C19  1  0.88800000  0.40300000  0.59480000  1.0 0.0129168483
C  C20  1  0.11200000  0.59700000  0.40520000  1.0 0.0129168483
C  C21  1  0.60400000  0.74100000  0.69200000  1.0 -0.1503278132
C  C22  1  0.39600000  0.25900000  0.30800000  1.0 -0.1503278132
C  C23  1  0.70600000  0.71000000  0.69700000  1.0 -0.2197252118
C  C24  1  0.29400000  0.29000000  0.30300000  1.0 -0.2197252118
C  C25  1  0.75400000  0.78900000  0.69300000  1.0 -0.2277348549
C  C26  1  0.24600000  0.21100000  0.30700000  1.0 -0.2277348549
C  C27  1  0.27000000  0.28500000  0.11800000  1.0 -0.2401629851
C  C28  1  0.73000000  0.71500000  0.88200000  1.0 -0.2401629851
C  C29  1  0.18000000  0.34400000  0.10300000  1.0 -0.1793775351
C  C30  1  0.82000000  0.65600000  0.89700000  1.0 -0.1793775351
C  C31  1  0.03600000  0.29600000  0.07800000  1.0 0.0787111648
C  C32  1  0.96400000  0.70400000  0.92200000  1.0 0.0787111648
C  C33  1  0.85900000  0.75900000  0.68800000  1.0 -0.1503278132
C  C34  1  0.14100000  0.24100000  0.31200000  1.0 -0.1503278132
C  C35  1  0.76300000  0.38300000  0.67700000  1.0 -0.1614395657
C  C36  1  0.23700000  0.61700000  0.32300000  1.0 -0.1614395657
C  C37  1  0.71800000  0.46000000  0.71500000  1.0 -0.2110722826
C  C38  1  0.28200000  0.54000000  0.28500000  1.0 -0.2110722826
C  C39  1  0.72100000  0.03500000  0.81900000  1.0 -0.1793775351
C  C40  1  0.27900000  0.96500000  0.18100000  1.0 -0.1793775351
C  C41  1  0.79000000  0.04900000  0.76900000  1.0 -0.2277348549
C  C42  1  0.21000000  0.95100000  0.23100000  1.0 -0.2277348549
C  C43  1  0.02400000  0.21800000  0.16300000  1.0 0.1007010623
C  C44  1  0.97600000  0.78200000  0.83700000  1.0 0.1007010623
C  C45  1  0.75800000  0.02800000  0.70600000  1.0 -0.2197252118
C  C46  1  0.24200000  0.97200000  0.29400000  1.0 -0.2197252118
C  C47  1  0.73100000  0.10900000  0.67170000  1.0 -0.1503278132
C  C48  1  0.26900000  0.89100000  0.32830000  1.0 -0.1503278132
C  C49  1  0.71700000  0.42300000  0.78100000  1.0 -0.2277348549
C  C50  1  0.28300000  0.57700000  0.21900000  1.0 -0.2277348549
C  C51  1  0.70600000  0.13900000  0.90400000  1.0 0.0714237488
C  C52  1  0.29400000  0.86100000  0.09600000  1.0 0.0714237488
C  C53  1  0.88700000  0.70900000  0.52290000  1.0 0.1194016185
C  C54  1  0.11300000  0.29100000  0.47710000  1.0 0.1194016185
C  C55  1  0.93700000  0.63100000  0.61050000  1.0 0.0356509074
C  C56  1  0.06300000  0.36900000  0.38950000  1.0 0.0356509074
C  C57  1  0.58900000  0.79100000  0.52640000  1.0 0.127730335
C  C58  1  0.41100000  0.20900000  0.47360000  1.0 0.127730335
C  C59  1  0.54200000  0.87300000  0.61390000  1.0 0.0180960934
C  C60  1  0.45800000  0.12700000  0.38610000  1.0 0.0180960934
C  C61  1  0.69700000  0.01400000  0.52340000  1.0 0.1486609339
C  C62  1  0.30300000  0.98600000  0.47660000  1.0 0.1486609339
C  C63  1  0.59900000  0.08900000  0.59970000  1.0 0.0004823998
C  C64  1  0.40100000  0.91100000  0.40030000  1.0 0.0004823998
N  N1  1  0.73480000  0.47300000  0.57870000  1.0 -0.3205173553
N  N2  1  0.26520000  0.52700000  0.42130000  1.0 -0.3205173553
N  N3  1  0.79500000  0.41400000  0.61870000  1.0 0.1486609339
N  N4  1  0.20500000  0.58600000  0.38130000  1.0 0.1486609339
N  N5  1  0.88500000  0.45500000  0.54000000  1.0 -0.3781577886
N  N6  1  0.11500000  0.54500000  0.46000000  1.0 -0.3781577886
N  N7  1  0.66900000  0.35000000  0.96100000  1.0 -0.396832803
N  N8  1  0.33100000  0.65000000  0.03900000  1.0 -0.396832803
N  N9  1  0.74400000  0.13800000  0.95600000  1.0 -0.3511625619
N  N10  1  0.25600000  0.86200000  0.04400000  1.0 -0.3511625619
N  N11  1  0.93900000  0.62400000  0.54640000  1.0 -0.3744053633
N  N12  1  0.06100000  0.37600000  0.45360000  1.0 -0.3781577886
N  N13  1  0.85200000  0.76890000  0.57230000  1.0 -0.3100452588
N  N14  1  0.14800000  0.23110000  0.42770000  1.0 -0.3100452588
N  N15  1  0.88300000  0.72000000  0.62650000  1.0 0.1404628725
N  N16  1  0.11700000  0.28000000  0.37350000  1.0 0.1404628725
N  N17  1  0.60100000  0.23200000  0.06600000  1.0 -0.3372522683
N  N18  1  0.39900000  0.76800000  0.93400000  1.0 -0.3372522683
N  N19  1  0.54200000  0.87900000  0.54970000  1.0 -0.3643656165
N  N20  1  0.45800000  0.12100000  0.45030000  1.0 -0.3643656165
N  N21  1  0.61700000  0.73040000  0.57620000  1.0 -0.3100452588
N  N22  1  0.38300000  0.26960000  0.42380000  1.0 -0.3100452588
N  N23  1  0.58800000  0.78100000  0.63030000  1.0 0.1404628725
N  N24  1  0.41200000  0.21900000  0.36970000  1.0 0.1404628725
N  N25  1  0.60200000  0.04700000  0.54230000  1.0 -0.3781577886
N  N26  1  0.39800000  0.95300000  0.45770000  1.0 -0.3744053633
N  N27  1  0.75270000  0.03500000  0.56910000  1.0 -0.2994607181
N  N28  1  0.24730000  0.96500000  0.43090000  1.0 -0.2994607181
N  N29  1  0.69200000  0.08100000  0.61630000  1.0 0.1404628725
N  N30  1  0.30800000  0.91900000  0.38370000  1.0 0.1404628725
N  N31  1  0.64100000  0.44300000  0.88300000  1.0 0.1710142105
N  N32  1  0.35900000  0.55700000  0.11700000  1.0 0.1710142105
N  N33  1  0.58000000  0.48600000  0.92400000  1.0 -0.2277348549
N  N34  1  0.42000000  0.51400000  0.07600000  1.0 -0.2277348549
N  N35  1  0.47400000  0.18400000  0.09200000  1.0 0.1710142105
N  N36  1  0.52600000  0.81600000  0.90800000  1.0 0.1710142105
N  N37  1  0.48700000  0.23500000  0.13600000  1.0 -0.2401629851
N  N38  1  0.51300000  0.76500000  0.86400000  1.0 -0.2401629851
N  N39  1  0.74300000  0.06300000  0.87600000  1.0 0.1404628725
N  N40  1  0.25700000  0.93700000  0.12400000  1.0 0.1404628725
N  N41  1  0.10500000  0.29700000  0.11300000  1.0 0.1486609339
N  N42  1  0.89500000  0.70300000  0.88700000  1.0 0.1486609339
N  N43  1  0.08800000  0.25900000  0.16600000  1.0 -0.2277348549
N  N44  1  0.91200000  0.74100000  0.83400000  1.0 -0.2277348549
N  N45  1  0.98600000  0.25100000  0.10600000  1.0 -0.1895848417
N  N46  1  0.01400000  0.74900000  0.89400000  1.0 -0.1895848417
N  N47  1  0.81700000  0.00700000  0.90700000  1.0 -0.3329214842
N  N48  1  0.18300000  0.99300000  0.09300000  1.0 -0.3329214842
O  O1  1  0.92700000  0.54300000  0.42260000  1.0 -0.7790307791
O  O2  1  0.07300000  0.45700000  0.57740000  1.0 -0.7790307791
O  O3  1  0.75400000  0.65900000  0.07800000  1.0 -0.9408735823
O  O4  1  0.24600000  0.34100000  0.92200000  1.0 -0.9408735823
O  O5  1  0.81600000  0.11500000  0.29720000  1.0 -0.9704256893
O  O6  1  0.18400000  0.88500000  0.70280000  1.0 -0.9704256893
O  O7  1  0.70800000  0.37800000  0.28640000  1.0 -0.9818877668
O  O8  1  0.29200000  0.62200000  0.71360000  1.0 -0.9818877668
O  O9  1  0.79500000  0.81300000  0.08960000  1.0 -0.8637749464
O  O10  1  0.20500000  0.18700000  0.91040000  1.0 -0.8637749464
O  O11  1  0.72400000  0.35700000  0.08280000  1.0 -0.7638436348
O  O12  1  0.27600000  0.64300000  0.91720000  1.0 -0.7638436348
O  O13  1  0.97600000  0.78000000  0.29370000  1.0 -0.9506315869
O  O14  1  0.02400000  0.22000000  0.70630000  1.0 -0.9506315869
O  O15  1  0.90500000  0.94700000  0.33070000  1.0 -1.0075515301
O  O16  1  0.09500000  0.05300000  0.66930000  1.0 -1.0075515301
O  O17  1  0.75000000  0.65600000  0.29590000  1.0 -0.8800933948
O  O18  1  0.25000000  0.34400000  0.70410000  1.0 -0.8800933948
O  O19  1  0.71800000  0.15300000  0.19580000  1.0 -0.8637749464
O  O20  1  0.28200000  0.84700000  0.80420000  1.0 -0.8637749464
O  O21  1  0.86700000  0.71100000  0.37670000  1.0 -0.9211767332
O  O22  1  0.13300000  0.28900000  0.62330000  1.0 -0.9211767332
O  O23  1  0.74100000  0.61000000  0.40680000  1.0 -0.9211767332
O  O24  1  0.25900000  0.39000000  0.59320000  1.0 -0.9211767332
O  O25  1  0.94500000  0.57600000  0.29780000  1.0 -0.9097101992
O  O26  1  0.05500000  0.42400000  0.70220000  1.0 -0.9097101992
O  O27  1  0.65900000  0.69500000  0.18980000  1.0 -0.9097101992
O  O28  1  0.34100000  0.30500000  0.81020000  1.0 -0.9097101992
O  O29  1  0.53700000  0.58700000  0.23580000  1.0 -0.9704256893
O  O30  1  0.46300000  0.41300000  0.76420000  1.0 -0.9704256893
O  O31  1  0.85300000  0.62800000  0.18950000  1.0 -0.9097101992
O  O32  1  0.14700000  0.37200000  0.81050000  1.0 -0.9097101992
O  O33  1  0.55400000  0.72100000  0.30790000  1.0 -0.9211767332
O  O34  1  0.44600000  0.27900000  0.69210000  1.0 -0.9211767332
O  O35  1  0.68700000  0.87700000  0.19220000  1.0 -0.8637749464
O  O36  1  0.31300000  0.12300000  0.80780000  1.0 -0.8661705644
O  O37  1  0.93000000  0.44300000  0.23010000  1.0 -0.9593160064
O  O38  1  0.07000000  0.55700000  0.76990000  1.0 -0.9593160064
O  O39  1  0.58100000  0.91800000  0.30540000  1.0 -0.9211767332
O  O40  1  0.41900000  0.08200000  0.69460000  1.0 -0.9211767332
O  O41  1  0.51100000  0.84400000  0.21860000  1.0 -0.9024934646
O  O42  1  0.48900000  0.15600000  0.78140000  1.0 -0.9024934646
O  O43  1  0.02200000  0.80800000  0.12830000  1.0 -0.9408735823
O  O44  1  0.97800000  0.19200000  0.87170000  1.0 -0.9408735823
O  O45  1  0.84000000  0.47600000  0.33140000  1.0 -0.9818877668
O  O46  1  0.16000000  0.52400000  0.66860000  1.0 -0.9818877668
O  O47  1  0.77800000  0.84600000  0.29880000  1.0 -0.9097101992
O  O48  1  0.22200000  0.15400000  0.70120000  1.0 -0.9024934646
O  O49  1  0.62600000  0.55000000  0.33870000  1.0 -0.985645035
O  O50  1  0.37400000  0.45000000  0.66130000  1.0 -0.985645035
O  O51  1  0.82600000  0.49100000  0.10760000  1.0 -0.9593160064
O  O52  1  0.17400000  0.50900000  0.89240000  1.0 -0.9593160064
O  O53  1  0.59800000  0.06500000  0.24270000  1.0 -0.9506315869
O  O54  1  0.40200000  0.93500000  0.75730000  1.0 -0.9593160064
O  O55  1  0.64800000  0.54700000  0.11180000  1.0 -0.9408735823
O  O56  1  0.35200000  0.45300000  0.88820000  1.0 -0.9408735823
O  O57  1  0.61500000  0.81000000  0.09040000  1.0 -0.8888775856
O  O58  1  0.38500000  0.19000000  0.90960000  1.0 -0.8800933948
O  O59  1  0.91500000  0.70800000  0.08150000  1.0 -0.8177154751
O  O60  1  0.08500000  0.29200000  0.91850000  1.0 -0.8177154751
O  O61  1  0.54800000  0.98100000  0.14300000  1.0 -0.8888775856
O  O62  1  0.45200000  0.01900000  0.85700000  1.0 -0.8888775856
O  O63  1  0.62600000  0.42200000  0.19290000  1.0 -0.8888775856
O  O64  1  0.37400000  0.57800000  0.80710000  1.0 -0.8888775856
O  O65  1  0.88300000  0.96300000  0.11010000  1.0 -0.9506315869
O  O66  1  0.11700000  0.03700000  0.88990000  1.0 -0.9506315869
O  O67  1  0.68600000  0.02100000  0.34130000  1.0 -0.9818877668
O  O68  1  0.31400000  0.97900000  0.65870000  1.0 -0.9818877668
O  O69  1  0.98700000  0.53500000  0.13040000  1.0 -0.9506315869
O  O70  1  0.01300000  0.46500000  0.86960000  1.0 -0.9506315869
O  O71  1  0.50700000  0.70600000  0.14050000  1.0 -0.9211767332
O  O72  1  0.49300000  0.29400000  0.85950000  1.0 -0.9211767332
O  O73  1  0.81100000  0.35500000  0.19270000  1.0 -0.9024934646
O  O74  1  0.18900000  0.64500000  0.80730000  1.0 -0.9024934646
O  O75  1  0.78600000  0.88000000  0.40830000  1.0 -0.9319448859
O  O76  1  0.21400000  0.12000000  0.59170000  1.0 -0.9319448859
O  O77  1  0.99000000  0.91700000  0.23160000  1.0 -0.9506315869
O  O78  1  0.01000000  0.08300000  0.76840000  1.0 -0.9506315869
O  O79  1  0.90300000  0.09000000  0.18840000  1.0 -0.9211767332
O  O80  1  0.09700000  0.91000000  0.81160000  1.0 -0.9211767332
O  O81  1  0.66000000  0.78000000  0.38260000  1.0 -0.9211767332
O  O82  1  0.34000000  0.22000000  0.61740000  1.0 -0.9211767332
O  O83  1  0.87400000  0.81000000  0.18630000  1.0 -0.9211767332
O  O84  1  0.12600000  0.19000000  0.81370000  1.0 -0.9211767332
O  O85  1  0.69400000  0.03800000  0.12870000  1.0 -0.9506315869
O  O86  1  0.30600000  0.96200000  0.87130000  1.0 -0.9506315869
O  O87  1  0.02100000  0.66200000  0.20390000  1.0 -0.9024934646
O  O88  1  0.97900000  0.33800000  0.79610000  1.0 -0.9024934646
O  O89  1  0.73600000  0.52000000  0.22390000  1.0 -1.0440122873
O  O90  1  0.26400000  0.48000000  0.77610000  1.0 -1.0440122873
O  O91  1  0.80700000  0.15500000  0.08550000  1.0 -0.7120747358
O  O92  1  0.19300000  0.84500000  0.91450000  1.0 -0.7120747358
O  O93  1  0.79800000  0.98500000  0.22680000  1.0 -1.0291952879
O  O94  1  0.20200000  0.01500000  0.77320000  1.0 -1.0291952879
O  O95  1  0.59400000  0.94800000  0.42820000  1.0 -0.7335846813
O  O96  1  0.40600000  0.05200000  0.57180000  1.0 -0.7335846813
