# DDEC6 charges by PACMAN v1.1 (https://github.com/mtap-research/PACMAN-charge/)
data_KIDXIH_ASR_pacman
_symmetry_space_group_name_H-M   'P 1'
_cell_length_a   12.31930000
_cell_length_b   12.56940000
_cell_length_c   14.23470000
_cell_angle_alpha   105.35900000
_cell_angle_beta   103.87100000
_cell_angle_gamma   99.26200000
_symmetry_Int_Tables_number   1
_chemical_formula_structural   Li2ZnH15C24NO8
_chemical_formula_sum   'Li4 Zn2 H30 C48 N2 O16'
_cell_volume   2003.30086864
_cell_formula_units_Z   2
loop_
 _symmetry_equiv_pos_site_id
 _symmetry_equiv_pos_as_xyz
  1  'x, y, z'
loop_
 _atom_site_type_symbol
 _atom_site_label
 _atom_site_symmetry_multiplicity
 _atom_site_fract_x
 _atom_site_fract_y
 _atom_site_fract_z
 _atom_site_occupancy
 _atom_site_charge
Li  Li1  1  0.93610000  0.04190000  0.06100000  1.0 0.8146356658
Li  Li2  1  0.28430000  0.67750000  0.78690000  1.0 0.7756318763
Li  Li3  1  0.06390000  0.95810000  0.93900000  1.0 0.8146356658
Li  Li4  1  0.71570000  0.32250000  0.21310000  1.0 0.7756318763
Zn  Zn1  1  0.92898000  0.30115000  0.14126000  1.0 0.9311545209
Zn  Zn2  1  0.07102000  0.69885000  0.85874000  1.0 0.9311545209
H  H1  1  0.03840000  0.38390000  0.91980000  1.0 0.1371805981
H  H2  1  0.21490000  0.32270000  0.71610000  1.0 0.1127050485
H  H3  1  0.01500000  0.03170000  0.35520000  1.0 0.1127050485
H  H4  1  0.35120000  0.11420000  0.63660000  1.0 0.1191697977
H  H5  1  0.35050000  0.23800000  0.69670000  1.0 0.1127050485
H  H6  1  0.58150000  0.25970000  0.99670000  1.0 0.1191697977
H  H7  1  0.59080000  0.93310000  0.89480000  1.0 0.1191697977
H  H8  1  0.41040000  0.89350000  0.78210000  1.0 0.1127050485
H  H9  1  0.13890000  0.09140000  0.85360000  1.0 0.1191697977
H  H10  1  0.26720000  0.96490000  0.68090000  1.0 0.1191697977
H  H11  1  0.21140000  0.99120000  0.76980000  1.0 0.1300409675
H  H12  1  0.11830000  0.02060000  0.50940000  1.0 0.1127050485
H  H13  1  0.19980000  0.35030000  0.42670000  1.0 0.1300409675
H  H14  1  0.31100000  0.33520000  0.57590000  1.0 0.1191697977
H  H15  1  0.40210000  0.21990000  0.88130000  1.0 0.1191697977
H  H16  1  0.96160000  0.61610000  0.08020000  1.0 0.1371805981
H  H17  1  0.78510000  0.67730000  0.28390000  1.0 0.1127050485
H  H18  1  0.98500000  0.96830000  0.64480000  1.0 0.1127050485
H  H19  1  0.64880000  0.88580000  0.36340000  1.0 0.1191697977
H  H20  1  0.64950000  0.76200000  0.30330000  1.0 0.1127050485
H  H21  1  0.41850000  0.74030000  0.00330000  1.0 0.1191697977
H  H22  1  0.40920000  0.06690000  0.10520000  1.0 0.1191697977
H  H23  1  0.58960000  0.10650000  0.21790000  1.0 0.1127050485
H  H24  1  0.86110000  0.90860000  0.14640000  1.0 0.1191697977
H  H25  1  0.73280000  0.03510000  0.31910000  1.0 0.1191697977
H  H26  1  0.78860000  0.00880000  0.23020000  1.0 0.1300409675
H  H27  1  0.88170000  0.97940000  0.49060000  1.0 0.1127050485
H  H28  1  0.80020000  0.64970000  0.57330000  1.0 0.1300409675
H  H29  1  0.68900000  0.66480000  0.42410000  1.0 0.1191697977
H  H30  1  0.59790000  0.78010000  0.11870000  1.0 0.1191697977
C  C1  1  0.38620000  0.05190000  0.81914000  1.0 0.1127050485
C  C2  1  0.09610000  0.19270000  0.37518000  1.0 -0.0360726624
C  C3  1  0.60620000  0.10130000  0.95670000  1.0 -0.0453702569
C  C4  1  0.07590000  0.33670000  0.88390000  1.0 -0.1201307311
C  C5  1  0.08160000  0.23260000  0.89808000  1.0 -0.0176491592
C  C6  1  0.22720000  0.17530000  0.55750000  1.0 0.0893659197
C  C7  1  0.12650000  0.36980000  0.81580000  1.0 -0.0123034942
C  C8  1  0.18500000  0.19170000  0.77171000  1.0 0.1695798353
C  C9  1  0.72670000  0.12720000  0.02593000  1.0 0.6145776824
C  C10  1  0.18070000  0.29880000  0.76096000  1.0 -0.2087580844
C  C11  1  0.07320000  0.09350000  0.40022000  1.0 -0.1063091106
C  C12  1  0.30160000  0.16390000  0.65450000  1.0 -0.1805699452
C  C13  1  0.54780000  0.18610000  0.95290000  1.0 -0.1037329643
C  C14  1  0.55300000  0.99120000  0.89230000  1.0 -0.0905864795
C  C15  1  0.44480000  0.96760000  0.82480000  1.0 -0.1730299875
C  C16  1  0.13550000  0.16091000  0.84305000  1.0 -0.2087580844
C  C17  1  0.02980000  0.19930000  0.27505000  1.0 0.59719515
C  C18  1  0.26850000  0.02300000  0.74188000  1.0 -0.1861169919
C  C19  1  0.13660000  0.08590000  0.49190000  1.0 -0.1604405229
C  C20  1  0.03170000  0.20000000  0.97602000  1.0 0.6297041491
C  C21  1  0.18460000  0.28310000  0.44230000  1.0 -0.0905864795
C  C22  1  0.25070000  0.27450000  0.53220000  1.0 -0.1604405229
C  C23  1  0.43970000  0.16190000  0.88420000  1.0 -0.1518932218
C  C24  1  0.12780000  0.48580000  0.80480000  1.0 0.59719515
C  C25  1  0.61380000  0.94810000  0.18086000  1.0 0.1127050485
C  C26  1  0.90390000  0.80730000  0.62482000  1.0 -0.0360726624
C  C27  1  0.39380000  0.89870000  0.04330000  1.0 -0.0453702569
C  C28  1  0.92410000  0.66330000  0.11610000  1.0 -0.1201307311
C  C29  1  0.91840000  0.76740000  0.10192000  1.0 -0.0176491592
C  C30  1  0.77280000  0.82470000  0.44250000  1.0 0.0893659197
C  C31  1  0.87350000  0.63020000  0.18420000  1.0 -0.0123034942
C  C32  1  0.81500000  0.80830000  0.22829000  1.0 0.1695798353
C  C33  1  0.27330000  0.87280000  0.97407000  1.0 0.6145776824
C  C34  1  0.81930000  0.70120000  0.23904000  1.0 -0.2087580844
C  C35  1  0.92680000  0.90650000  0.59978000  1.0 -0.1063091106
C  C36  1  0.69840000  0.83610000  0.34550000  1.0 -0.1805699452
C  C37  1  0.45220000  0.81390000  0.04710000  1.0 -0.1037329643
C  C38  1  0.44700000  0.00880000  0.10770000  1.0 -0.0905864795
C  C39  1  0.55520000  0.03240000  0.17520000  1.0 -0.1730299875
C  C40  1  0.86450000  0.83909000  0.15695000  1.0 -0.2087580844
C  C41  1  0.97020000  0.80070000  0.72495000  1.0 0.59719515
C  C42  1  0.73150000  0.97700000  0.25812000  1.0 -0.1861169919
C  C43  1  0.86340000  0.91410000  0.50810000  1.0 -0.1518932218
C  C44  1  0.96830000  0.80000000  0.02398000  1.0 0.6297041491
C  C45  1  0.81540000  0.71690000  0.55770000  1.0 -0.0905864795
C  C46  1  0.74930000  0.72550000  0.46780000  1.0 -0.1604405229
C  C47  1  0.56030000  0.83810000  0.11580000  1.0 -0.1518932218
C  C48  1  0.87220000  0.51420000  0.19520000  1.0 0.59719515
N  N1  1  0.23568000  0.11917000  0.71297000  1.0 -0.0905864795
N  N2  1  0.76432000  0.88083000  0.28703000  1.0 -0.0905864795
O  O1  1  0.03204000  0.10450000  0.98725000  1.0 -0.7064166948
O  O2  1  0.02653000  0.29896000  0.26948000  1.0 -0.5712523147
O  O3  1  0.76416000  0.22659000  0.09385000  1.0 -0.6858327075
O  O4  1  0.78354000  0.05514000  0.01310000  1.0 -0.6095441564
O  O5  1  0.06486000  0.53922000  0.84657000  1.0 -0.5307713731
O  O6  1  0.99263000  0.27431000  0.02630000  1.0 -0.5579076692
O  O7  1  0.98329000  0.11021000  0.20354000  1.0 -0.6557937249
O  O8  1  0.19260000  0.52520000  0.76170000  1.0 -0.6701411888
O  O9  1  0.96796000  0.89550000  0.01275000  1.0 -0.7064166948
O  O10  1  0.97347000  0.70104000  0.73052000  1.0 -0.5712523147
O  O11  1  0.23584000  0.77341000  0.90615000  1.0 -0.6858327075
O  O12  1  0.21646000  0.94486000  0.98690000  1.0 -0.6095441564
O  O13  1  0.93514000  0.46078000  0.15343000  1.0 -0.5307713731
O  O14  1  0.00737000  0.72569000  0.97370000  1.0 -0.5579076692
O  O15  1  0.01671000  0.88979000  0.79646000  1.0 -0.6557937249
O  O16  1  0.80740000  0.47480000  0.23830000  1.0 -0.6701411888
