# DDEC6 charges by PACMAN v1.1 (https://github.com/mtap-research/PACMAN-charge/)
data_KIKYEL01_ASR_pacman
_symmetry_space_group_name_H-M   'P 1'
_cell_length_a   13.44750000
_cell_length_b   15.88260000
_cell_length_c   36.80580000
_cell_angle_alpha   90.00000000
_cell_angle_beta   90.00000000
_cell_angle_gamma   90.00000000
_symmetry_Int_Tables_number   1
_chemical_formula_structural   FeAg2H15C31N7
_chemical_formula_sum   'Fe8 Ag16 H120 C248 N56'
_cell_volume   7861.02926813
_cell_formula_units_Z   8
loop_
 _symmetry_equiv_pos_site_id
 _symmetry_equiv_pos_as_xyz
  1  'x, y, z'
loop_
 _atom_site_type_symbol
 _atom_site_label
 _atom_site_symmetry_multiplicity
 _atom_site_fract_x
 _atom_site_fract_y
 _atom_site_fract_z
 _atom_site_occupancy
 _atom_site_charge
Fe  Fe1  1  0.89624000  0.74864000  0.29628000  1.0 0.7591676826
Fe  Fe2  1  0.39624000  0.75136000  0.20372000  1.0 0.7591676826
Fe  Fe3  1  0.60376000  0.74864000  0.70372000  1.0 0.7591676826
Fe  Fe4  1  0.10376000  0.75136000  0.79628000  1.0 0.7591676826
Fe  Fe5  1  0.10376000  0.25136000  0.70372000  1.0 0.7591676826
Fe  Fe6  1  0.60376000  0.24864000  0.79628000  1.0 0.7591676826
Fe  Fe7  1  0.39624000  0.25136000  0.29628000  1.0 0.7591676826
Fe  Fe8  1  0.89624000  0.24864000  0.20372000  1.0 0.7591676826
Ag  Ag1  1  0.12234000  0.01406000  0.31071000  1.0 0.1399961197
Ag  Ag2  1  0.16423000  0.50953000  0.27613000  1.0 0.1812673791
Ag  Ag3  1  0.62234000  0.48594000  0.18929000  1.0 0.1399961197
Ag  Ag4  1  0.66423000  0.99047000  0.22387000  1.0 0.1812673791
Ag  Ag5  1  0.37766000  0.01406000  0.68929000  1.0 0.1399961197
Ag  Ag6  1  0.33577000  0.50953000  0.72387000  1.0 0.1812673791
Ag  Ag7  1  0.87766000  0.48594000  0.81071000  1.0 0.1399961197
Ag  Ag8  1  0.83577000  0.99047000  0.77613000  1.0 0.1812673791
Ag  Ag9  1  0.87766000  0.98594000  0.68929000  1.0 0.1399961197
Ag  Ag10  1  0.83577000  0.49047000  0.72387000  1.0 0.1812673791
Ag  Ag11  1  0.37766000  0.51406000  0.81071000  1.0 0.1399961197
Ag  Ag12  1  0.33577000  0.00953000  0.77613000  1.0 0.1812673791
Ag  Ag13  1  0.62234000  0.98594000  0.31071000  1.0 0.1399961197
Ag  Ag14  1  0.66423000  0.49047000  0.27613000  1.0 0.1812673791
Ag  Ag15  1  0.12234000  0.51406000  0.18929000  1.0 0.1399961197
Ag  Ag16  1  0.16423000  0.00953000  0.22387000  1.0 0.1812673791
H  H1  1  0.88194000  0.80774000  0.37694000  1.0 0.1125204343
H  H2  1  0.87474000  0.75560000  0.43512000  1.0 0.1399961197
H  H3  1  0.82879000  0.52952000  0.39524000  1.0 0.1399961197
H  H4  1  0.84237000  0.58510000  0.33886000  1.0 0.1125204343
H  H5  1  0.90649000  0.61805000  0.55224000  1.0 0.1399961197
H  H6  1  0.90666000  0.39737000  0.60505000  1.0 0.1399961197
H  H7  1  0.85695000  0.40030000  0.49770000  1.0 0.1292221465
H  H8  1  0.98146000  0.79675000  0.72496000  1.0 0.1125204343
H  H9  1  0.92275000  0.73767000  0.67278000  1.0 0.1508571992
H  H10  1  0.07808000  0.53047000  0.69589000  1.0 0.1399961197
H  H11  1  0.12949000  0.59369000  0.74784000  1.0 0.1125204343
H  H12  1  0.83065000  0.96881000  0.61232000  1.0 0.100619835
H  H13  1  0.88434000  0.10688000  0.60613000  1.0 0.1399961197
H  H14  1  0.75420000  0.11956000  0.50801000  1.0 0.100619835
H  H15  1  0.70051000  0.98148000  0.51419000  1.0 0.0907587047
H  H16  1  0.38194000  0.69226000  0.12306000  1.0 0.1125204343
H  H17  1  0.37474000  0.74440000  0.06488000  1.0 0.1399961197
H  H18  1  0.32879000  0.97048000  0.10476000  1.0 0.1399961197
H  H19  1  0.34237000  0.91490000  0.16114000  1.0 0.1125204343
H  H20  1  0.40649000  0.88195000  0.94776000  1.0 0.1399961197
H  H21  1  0.40666000  0.10263000  0.89495000  1.0 0.1399961197
H  H22  1  0.35695000  0.09970000  0.00230000  1.0 0.1292221465
H  H23  1  0.48146000  0.70325000  0.77504000  1.0 0.1125204343
H  H24  1  0.42275000  0.76233000  0.82722000  1.0 0.1508571992
H  H25  1  0.57808000  0.96953000  0.80411000  1.0 0.1399961197
H  H26  1  0.62949000  0.90631000  0.75216000  1.0 0.1125204343
H  H27  1  0.33065000  0.53119000  0.88768000  1.0 0.100619835
H  H28  1  0.38434000  0.39312000  0.89387000  1.0 0.1399961197
H  H29  1  0.25420000  0.38044000  0.99199000  1.0 0.100619835
H  H30  1  0.20051000  0.51852000  0.98581000  1.0 0.0907587047
H  H31  1  0.61806000  0.80774000  0.62306000  1.0 0.1125204343
H  H32  1  0.62526000  0.75560000  0.56488000  1.0 0.1399961197
H  H33  1  0.67121000  0.52952000  0.60476000  1.0 0.1399961197
H  H34  1  0.65763000  0.58510000  0.66114000  1.0 0.1125204343
H  H35  1  0.59351000  0.61805000  0.44776000  1.0 0.1399961197
H  H36  1  0.59334000  0.39737000  0.39495000  1.0 0.1399961197
H  H37  1  0.64305000  0.40030000  0.50230000  1.0 0.1292221465
H  H38  1  0.51854000  0.79675000  0.27504000  1.0 0.1125204343
H  H39  1  0.57725000  0.73767000  0.32722000  1.0 0.1508571992
H  H40  1  0.42192000  0.53047000  0.30411000  1.0 0.1399961197
H  H41  1  0.37051000  0.59369000  0.25216000  1.0 0.1125204343
H  H42  1  0.66935000  0.96881000  0.38768000  1.0 0.100619835
H  H43  1  0.61566000  0.10688000  0.39387000  1.0 0.1399961197
H  H44  1  0.74580000  0.11956000  0.49199000  1.0 0.100619835
H  H45  1  0.79949000  0.98148000  0.48581000  1.0 0.0907587047
H  H46  1  0.11806000  0.69226000  0.87694000  1.0 0.1125204343
H  H47  1  0.12526000  0.74440000  0.93512000  1.0 0.1399961197
H  H48  1  0.17121000  0.97048000  0.89524000  1.0 0.1399961197
H  H49  1  0.15763000  0.91490000  0.83886000  1.0 0.1125204343
H  H50  1  0.09351000  0.88195000  0.05224000  1.0 0.1399961197
H  H51  1  0.09334000  0.10263000  0.10505000  1.0 0.1399961197
H  H52  1  0.14305000  0.09970000  0.99770000  1.0 0.1292221465
H  H53  1  0.01854000  0.70325000  0.22496000  1.0 0.1125204343
H  H54  1  0.07725000  0.76233000  0.17278000  1.0 0.1508571992
H  H55  1  0.92192000  0.96953000  0.19589000  1.0 0.1399961197
H  H56  1  0.87051000  0.90631000  0.24784000  1.0 0.1125204343
H  H57  1  0.16935000  0.53119000  0.11232000  1.0 0.100619835
H  H58  1  0.11566000  0.39312000  0.10613000  1.0 0.1399961197
H  H59  1  0.24580000  0.38044000  0.00801000  1.0 0.100619835
H  H60  1  0.29949000  0.51852000  0.01419000  1.0 0.100619835
H  H61  1  0.11806000  0.19226000  0.62306000  1.0 0.1125204343
H  H62  1  0.12526000  0.24440000  0.56488000  1.0 0.1399961197
H  H63  1  0.17121000  0.47048000  0.60476000  1.0 0.1399961197
H  H64  1  0.15763000  0.41490000  0.66114000  1.0 0.1125204343
H  H65  1  0.09351000  0.38195000  0.44776000  1.0 0.1399961197
H  H66  1  0.09334000  0.60263000  0.39495000  1.0 0.1399961197
H  H67  1  0.14305000  0.59970000  0.50230000  1.0 0.1292221465
H  H68  1  0.01854000  0.20325000  0.27504000  1.0 0.1125204343
H  H69  1  0.07725000  0.26233000  0.32722000  1.0 0.1508571992
H  H70  1  0.92192000  0.46953000  0.30411000  1.0 0.1399961197
H  H71  1  0.87051000  0.40631000  0.25216000  1.0 0.1125204343
H  H72  1  0.16935000  0.03119000  0.38768000  1.0 0.100619835
H  H73  1  0.11566000  0.89312000  0.39387000  1.0 0.1399961197
H  H74  1  0.24580000  0.88044000  0.49199000  1.0 0.100619835
H  H75  1  0.29949000  0.01852000  0.48581000  1.0 0.100619835
H  H76  1  0.61806000  0.30774000  0.87694000  1.0 0.1125204343
H  H77  1  0.62526000  0.25560000  0.93512000  1.0 0.1399961197
H  H78  1  0.67121000  0.02952000  0.89524000  1.0 0.1399961197
H  H79  1  0.65763000  0.08510000  0.83886000  1.0 0.1125204343
H  H80  1  0.59351000  0.11805000  0.05224000  1.0 0.1399961197
H  H81  1  0.59334000  0.89737000  0.10505000  1.0 0.1399961197
H  H82  1  0.64305000  0.90030000  0.99770000  1.0 0.1292221465
H  H83  1  0.51854000  0.29675000  0.22496000  1.0 0.1125204343
H  H84  1  0.57725000  0.23767000  0.17278000  1.0 0.1508571992
H  H85  1  0.42192000  0.03047000  0.19589000  1.0 0.1399961197
H  H86  1  0.37051000  0.09369000  0.24784000  1.0 0.1125204343
H  H87  1  0.66935000  0.46881000  0.11232000  1.0 0.100619835
H  H88  1  0.61566000  0.60688000  0.10613000  1.0 0.1399961197
H  H89  1  0.74580000  0.61956000  0.00801000  1.0 0.100619835
H  H90  1  0.79949000  0.48148000  0.01419000  1.0 0.0907587047
H  H91  1  0.38194000  0.19226000  0.37694000  1.0 0.1125204343
H  H92  1  0.37474000  0.24440000  0.43512000  1.0 0.1399961197
H  H93  1  0.32879000  0.47048000  0.39524000  1.0 0.1399961197
H  H94  1  0.34237000  0.41490000  0.33886000  1.0 0.1125204343
H  H95  1  0.40649000  0.38195000  0.55224000  1.0 0.1399961197
H  H96  1  0.40666000  0.60263000  0.60505000  1.0 0.1399961197
H  H97  1  0.35695000  0.59970000  0.49770000  1.0 0.1292221465
H  H98  1  0.48146000  0.20325000  0.72496000  1.0 0.1125204343
H  H99  1  0.42275000  0.26233000  0.67278000  1.0 0.1508571992
H  H100  1  0.57808000  0.46953000  0.69589000  1.0 0.1399961197
H  H101  1  0.62949000  0.40631000  0.74784000  1.0 0.1125204343
H  H102  1  0.33065000  0.03119000  0.61232000  1.0 0.100619835
H  H103  1  0.38434000  0.89312000  0.60613000  1.0 0.1399961197
H  H104  1  0.25420000  0.88044000  0.50801000  1.0 0.1125204343
H  H105  1  0.20051000  0.01852000  0.51419000  1.0 0.100619835
H  H106  1  0.88194000  0.30774000  0.12306000  1.0 0.1125204343
H  H107  1  0.87474000  0.25560000  0.06488000  1.0 0.1399961197
H  H108  1  0.82879000  0.02952000  0.10476000  1.0 0.1399961197
H  H109  1  0.84237000  0.08510000  0.16114000  1.0 0.1125204343
H  H110  1  0.90649000  0.11805000  0.94776000  1.0 0.1399961197
H  H111  1  0.90666000  0.89737000  0.89495000  1.0 0.1399961197
H  H112  1  0.85695000  0.90030000  0.00230000  1.0 0.1292221465
H  H113  1  0.98146000  0.29675000  0.77504000  1.0 0.1125204343
H  H114  1  0.92275000  0.23767000  0.82722000  1.0 0.1508571992
H  H115  1  0.07808000  0.03047000  0.80411000  1.0 0.1399961197
H  H116  1  0.12949000  0.09369000  0.75216000  1.0 0.1125204343
H  H117  1  0.83065000  0.46881000  0.88768000  1.0 0.100619835
H  H118  1  0.88434000  0.60688000  0.89387000  1.0 0.1399961197
H  H119  1  0.75420000  0.61956000  0.99199000  1.0 0.100619835
H  H120  1  0.70051000  0.48148000  0.98581000  1.0 0.0907587047
C  C1  1  0.87320000  0.75020000  0.38030000  1.0 0.100619835
C  C2  1  0.86940000  0.71860000  0.41560000  1.0 -0.1922352973
C  C3  1  0.85800000  0.63520000  0.42220000  1.0 0.1685172406
C  C4  1  0.84320000  0.58640000  0.39250000  1.0 -0.1818110661
C  C5  1  0.84950000  0.62100000  0.35870000  1.0 0.066859673
C  C6  1  0.86130000  0.60010000  0.45780000  1.0 -0.0951387545
C  C7  1  0.86890000  0.56290000  0.48560000  1.0 -0.0779670898
C  C8  1  0.87930000  0.51560000  0.51929000  1.0 0.1399961197
C  C9  1  0.90040000  0.55970000  0.55190000  1.0 -0.1983984893
C  C10  1  0.91150000  0.51200000  0.58316000  1.0 0.1399961197
C  C11  1  0.90040000  0.42690000  0.58330000  1.0 -0.1818110661
C  C12  1  0.87980000  0.38370000  0.55140000  1.0 0.1292221465
C  C13  1  0.86990000  0.42860000  0.51930000  1.0 -0.1818110661
C  C14  1  0.93730000  0.55550000  0.61710000  1.0 -0.0674317104
C  C15  1  0.87130000  0.29140000  0.55190000  1.0 -0.0779670898
C  C16  1  0.86430000  0.22180000  0.55310000  1.0 -0.109464668
C  C17  1  0.00100000  0.74220000  0.71910000  1.0 0.100619835
C  C18  1  0.96600000  0.70730000  0.68750000  1.0 -0.1733340078
C  C19  1  0.99470000  0.62700000  0.67746000  1.0 0.1685172406
C  C20  1  0.05710000  0.58490000  0.70116000  1.0 -0.1922352973
C  C21  1  0.08790000  0.62350000  0.73230000  1.0 0.0907587047
C  C22  1  0.96030000  0.58940000  0.64501000  1.0 -0.109464668
C  C23  1  0.03450000  0.91080000  0.31610000  1.0 -0.0259681688
C  C24  1  0.21560000  0.11530000  0.30540000  1.0 -0.0259681688
C  C25  1  0.81530000  0.99900000  0.59140000  1.0 0.0586665639
C  C26  1  0.84750000  0.08170000  0.58770000  1.0 -0.2084335292
C  C27  1  0.82460000  0.12690000  0.55650000  1.0 0.1812673791
C  C28  1  0.76950000  0.08930000  0.52890000  1.0 -0.227603195
C  C29  1  0.73740000  0.00660000  0.53260000  1.0 0.0512723217
C  C30  1  0.07500000  0.61040000  0.28850000  1.0 -0.0259681688
C  C31  1  0.25530000  0.40600000  0.27058000  1.0 -0.0203473753
C  C32  1  0.37320000  0.74980000  0.11970000  1.0 0.100619835
C  C33  1  0.36940000  0.78140000  0.08440000  1.0 -0.1922352973
C  C34  1  0.35800000  0.86480000  0.07780000  1.0 0.1685172406
C  C35  1  0.34320000  0.91360000  0.10750000  1.0 -0.1818110661
C  C36  1  0.34950000  0.87900000  0.14130000  1.0 0.066859673
C  C37  1  0.36130000  0.89990000  0.04220000  1.0 -0.0951387545
C  C38  1  0.36890000  0.93710000  0.01440000  1.0 -0.0779670898
C  C39  1  0.37930000  0.98440000  0.98071000  1.0 0.1399961197
C  C40  1  0.40040000  0.94030000  0.94810000  1.0 -0.1983984893
C  C41  1  0.41150000  0.98800000  0.91684000  1.0 0.1399961197
C  C42  1  0.40040000  0.07310000  0.91670000  1.0 -0.1818110661
C  C43  1  0.37980000  0.11630000  0.94860000  1.0 0.1292221465
C  C44  1  0.36990000  0.07140000  0.98070000  1.0 -0.1818110661
C  C45  1  0.43730000  0.94450000  0.88290000  1.0 -0.0674317104
C  C46  1  0.37130000  0.20860000  0.94810000  1.0 -0.0779670898
C  C47  1  0.36430000  0.27820000  0.94690000  1.0 -0.109464668
C  C48  1  0.50100000  0.75780000  0.78090000  1.0 0.100619835
C  C49  1  0.46600000  0.79270000  0.81250000  1.0 -0.1733340078
C  C50  1  0.49470000  0.87300000  0.82254000  1.0 0.1685172406
C  C51  1  0.55710000  0.91510000  0.79884000  1.0 -0.1922352973
C  C52  1  0.58790000  0.87650000  0.76770000  1.0 0.0907587047
C  C53  1  0.46030000  0.91060000  0.85499000  1.0 -0.109464668
C  C54  1  0.53450000  0.58920000  0.18390000  1.0 -0.0203473753
C  C55  1  0.71560000  0.38470000  0.19460000  1.0 -0.0259681688
C  C56  1  0.31530000  0.50100000  0.90860000  1.0 0.0586665639
C  C57  1  0.34750000  0.41830000  0.91230000  1.0 -0.2084335292
C  C58  1  0.32460000  0.37310000  0.94350000  1.0 0.1812673791
C  C59  1  0.26950000  0.41070000  0.97110000  1.0 -0.227603195
C  C60  1  0.23740000  0.49340000  0.96740000  1.0 0.0512723217
C  C61  1  0.57500000  0.88960000  0.21150000  1.0 -0.0259681688
C  C62  1  0.75530000  0.09400000  0.22942000  1.0 -0.0203473753
C  C63  1  0.62680000  0.75020000  0.61970000  1.0 0.100619835
C  C64  1  0.63060000  0.71860000  0.58440000  1.0 -0.1922352973
C  C65  1  0.64200000  0.63520000  0.57780000  1.0 0.1685172406
C  C66  1  0.65680000  0.58640000  0.60750000  1.0 -0.1818110661
C  C67  1  0.65050000  0.62100000  0.64130000  1.0 0.066859673
C  C68  1  0.63870000  0.60010000  0.54220000  1.0 -0.0951387545
C  C69  1  0.63110000  0.56290000  0.51440000  1.0 -0.0779670898
C  C70  1  0.62070000  0.51560000  0.48071000  1.0 0.1399961197
C  C71  1  0.59960000  0.55970000  0.44810000  1.0 -0.1983984893
C  C72  1  0.58850000  0.51200000  0.41684000  1.0 0.1399961197
C  C73  1  0.59960000  0.42690000  0.41670000  1.0 -0.1818110661
C  C74  1  0.62020000  0.38370000  0.44860000  1.0 0.1292221465
C  C75  1  0.63010000  0.42860000  0.48070000  1.0 -0.1818110661
C  C76  1  0.56270000  0.55550000  0.38290000  1.0 -0.0674317104
C  C77  1  0.62870000  0.29140000  0.44810000  1.0 -0.0779670898
C  C78  1  0.63570000  0.22180000  0.44690000  1.0 -0.109464668
C  C79  1  0.49900000  0.74220000  0.28090000  1.0 0.100619835
C  C80  1  0.53400000  0.70730000  0.31250000  1.0 -0.1733340078
C  C81  1  0.50530000  0.62700000  0.32254000  1.0 0.1685172406
C  C82  1  0.44290000  0.58490000  0.29884000  1.0 -0.1922352973
C  C83  1  0.41210000  0.62350000  0.26770000  1.0 0.0907587047
C  C84  1  0.53970000  0.58940000  0.35499000  1.0 -0.109464668
C  C85  1  0.46550000  0.91080000  0.68390000  1.0 -0.0259681688
C  C86  1  0.28440000  0.11530000  0.69460000  1.0 -0.0259681688
C  C87  1  0.68470000  0.99900000  0.40860000  1.0 0.0586665639
C  C88  1  0.65250000  0.08170000  0.41230000  1.0 -0.2084335292
C  C89  1  0.67540000  0.12690000  0.44350000  1.0 0.1812673791
C  C90  1  0.73050000  0.08930000  0.47110000  1.0 -0.227603195
C  C91  1  0.76260000  0.00660000  0.46740000  1.0 0.0512723217
C  C92  1  0.42500000  0.61040000  0.71150000  1.0 -0.0259681688
C  C93  1  0.24470000  0.40600000  0.72942000  1.0 -0.0203473753
C  C94  1  0.12680000  0.74980000  0.88030000  1.0 0.100619835
C  C95  1  0.13060000  0.78140000  0.91560000  1.0 -0.1922352973
C  C96  1  0.14200000  0.86480000  0.92220000  1.0 0.1685172406
C  C97  1  0.15680000  0.91360000  0.89250000  1.0 -0.1818110661
C  C98  1  0.15050000  0.87900000  0.85870000  1.0 0.066859673
C  C99  1  0.13870000  0.89990000  0.95780000  1.0 -0.0941345429
C  C100  1  0.13110000  0.93710000  0.98560000  1.0 -0.0779670898
C  C101  1  0.12070000  0.98440000  0.01929000  1.0 0.1399961197
C  C102  1  0.09960000  0.94030000  0.05190000  1.0 -0.1983984893
C  C103  1  0.08850000  0.98800000  0.08316000  1.0 0.1399961197
C  C104  1  0.09960000  0.07310000  0.08330000  1.0 -0.1818110661
C  C105  1  0.12020000  0.11630000  0.05140000  1.0 0.1292221465
C  C106  1  0.13010000  0.07140000  0.01930000  1.0 -0.1818110661
C  C107  1  0.06270000  0.94450000  0.11710000  1.0 -0.0674317104
C  C108  1  0.12870000  0.20860000  0.05190000  1.0 -0.0779670898
C  C109  1  0.13570000  0.27820000  0.05310000  1.0 -0.109464668
C  C110  1  0.99900000  0.75780000  0.21910000  1.0 0.100619835
C  C111  1  0.03400000  0.79270000  0.18750000  1.0 -0.1733340078
C  C112  1  0.00530000  0.87300000  0.17746000  1.0 0.1685172406
C  C113  1  0.94290000  0.91510000  0.20116000  1.0 -0.1922352973
C  C114  1  0.91210000  0.87650000  0.23230000  1.0 0.0907587047
C  C115  1  0.03970000  0.91060000  0.14501000  1.0 -0.109464668
C  C116  1  0.96550000  0.58920000  0.81610000  1.0 -0.0203473753
C  C117  1  0.78440000  0.38470000  0.80540000  1.0 -0.0259681688
C  C118  1  0.18470000  0.50100000  0.09140000  1.0 0.0586665639
C  C119  1  0.15250000  0.41830000  0.08770000  1.0 -0.2084335292
C  C120  1  0.17540000  0.37310000  0.05650000  1.0 0.1812673791
C  C121  1  0.23050000  0.41070000  0.02890000  1.0 -0.227603195
C  C122  1  0.26260000  0.49340000  0.03260000  1.0 0.0512723217
C  C123  1  0.92500000  0.88960000  0.78850000  1.0 -0.0259681688
C  C124  1  0.74470000  0.09400000  0.77058000  1.0 -0.0203473753
C  C125  1  0.12680000  0.24980000  0.61970000  1.0 0.100619835
C  C126  1  0.13060000  0.28140000  0.58440000  1.0 -0.1922352973
C  C127  1  0.14200000  0.36480000  0.57780000  1.0 0.1685172406
C  C128  1  0.15680000  0.41360000  0.60750000  1.0 -0.1818110661
C  C129  1  0.15050000  0.37900000  0.64130000  1.0 0.066859673
C  C130  1  0.13870000  0.39990000  0.54220000  1.0 -0.0951387545
C  C131  1  0.13110000  0.43710000  0.51440000  1.0 -0.0779670898
C  C132  1  0.12070000  0.48440000  0.48071000  1.0 0.1399961197
C  C133  1  0.09960000  0.44030000  0.44810000  1.0 -0.1983984893
C  C134  1  0.08850000  0.48800000  0.41684000  1.0 0.1399961197
C  C135  1  0.09960000  0.57310000  0.41670000  1.0 -0.1818110661
C  C136  1  0.12020000  0.61630000  0.44860000  1.0 0.1292221465
C  C137  1  0.13010000  0.57140000  0.48070000  1.0 -0.1818110661
C  C138  1  0.06270000  0.44450000  0.38290000  1.0 -0.0674317104
C  C139  1  0.12870000  0.70860000  0.44810000  1.0 -0.0779670898
C  C140  1  0.13570000  0.77820000  0.44690000  1.0 -0.109464668
C  C141  1  0.99900000  0.25780000  0.28090000  1.0 0.100619835
C  C142  1  0.03400000  0.29270000  0.31250000  1.0 -0.1733340078
C  C143  1  0.00530000  0.37300000  0.32254000  1.0 0.1685172406
C  C144  1  0.94290000  0.41510000  0.29884000  1.0 -0.1922352973
C  C145  1  0.91210000  0.37650000  0.26770000  1.0 0.0907587047
C  C146  1  0.03970000  0.41060000  0.35499000  1.0 -0.109464668
C  C147  1  0.96550000  0.08920000  0.68390000  1.0 -0.0203473753
C  C148  1  0.78440000  0.88470000  0.69460000  1.0 -0.0259681688
C  C149  1  0.18470000  0.00100000  0.40860000  1.0 0.0586665639
C  C150  1  0.15250000  0.91830000  0.41230000  1.0 -0.2084335292
C  C151  1  0.17540000  0.87310000  0.44350000  1.0 0.1812673791
C  C152  1  0.23050000  0.91070000  0.47110000  1.0 -0.227603195
C  C153  1  0.26260000  0.99340000  0.46740000  1.0 0.0512723217
C  C154  1  0.92500000  0.38960000  0.71150000  1.0 -0.0203473753
C  C155  1  0.74470000  0.59400000  0.72942000  1.0 -0.0203473753
C  C156  1  0.62680000  0.25020000  0.88030000  1.0 0.100619835
C  C157  1  0.63060000  0.21860000  0.91560000  1.0 -0.1922352973
C  C158  1  0.64200000  0.13520000  0.92220000  1.0 0.1685172406
C  C159  1  0.65680000  0.08640000  0.89250000  1.0 -0.1818110661
C  C160  1  0.65050000  0.12100000  0.85870000  1.0 0.066859673
C  C161  1  0.63870000  0.10010000  0.95780000  1.0 -0.0941345429
C  C162  1  0.63110000  0.06290000  0.98560000  1.0 -0.0779670898
C  C163  1  0.62070000  0.01560000  0.01929000  1.0 0.1399961197
C  C164  1  0.59960000  0.05970000  0.05190000  1.0 -0.1983984893
C  C165  1  0.58850000  0.01200000  0.08316000  1.0 0.1399961197
C  C166  1  0.59960000  0.92690000  0.08330000  1.0 -0.1818110661
C  C167  1  0.62020000  0.88370000  0.05140000  1.0 0.1292221465
C  C168  1  0.63010000  0.92860000  0.01930000  1.0 -0.1818110661
C  C169  1  0.56270000  0.05550000  0.11710000  1.0 -0.0674317104
C  C170  1  0.62870000  0.79140000  0.05190000  1.0 -0.0779670898
C  C171  1  0.63570000  0.72180000  0.05310000  1.0 -0.109464668
C  C172  1  0.49900000  0.24220000  0.21910000  1.0 0.100619835
C  C173  1  0.53400000  0.20730000  0.18750000  1.0 -0.1733340078
C  C174  1  0.50530000  0.12700000  0.17746000  1.0 0.1685172406
C  C175  1  0.44290000  0.08490000  0.20116000  1.0 -0.1922352973
C  C176  1  0.41210000  0.12350000  0.23230000  1.0 0.0907587047
C  C177  1  0.53970000  0.08940000  0.14501000  1.0 -0.109464668
C  C178  1  0.46550000  0.41080000  0.81610000  1.0 -0.0203473753
C  C179  1  0.28440000  0.61530000  0.80540000  1.0 -0.0259681688
C  C180  1  0.68470000  0.49900000  0.09140000  1.0 0.0586665639
C  C181  1  0.65250000  0.58170000  0.08770000  1.0 -0.2084335292
C  C182  1  0.67540000  0.62690000  0.05650000  1.0 0.1812673791
C  C183  1  0.73050000  0.58930000  0.02890000  1.0 -0.227603195
C  C184  1  0.76260000  0.50660000  0.03260000  1.0 0.0586665639
C  C185  1  0.42500000  0.11040000  0.78850000  1.0 -0.0259681688
C  C186  1  0.24470000  0.90600000  0.77058000  1.0 -0.0203473753
C  C187  1  0.37320000  0.24980000  0.38030000  1.0 0.100619835
C  C188  1  0.36940000  0.28140000  0.41560000  1.0 -0.1922352973
C  C189  1  0.35800000  0.36480000  0.42220000  1.0 0.1685172406
C  C190  1  0.34320000  0.41360000  0.39250000  1.0 -0.1818110661
C  C191  1  0.34950000  0.37900000  0.35870000  1.0 0.066859673
C  C192  1  0.36130000  0.39990000  0.45780000  1.0 -0.0951387545
C  C193  1  0.36890000  0.43710000  0.48560000  1.0 -0.0779670898
C  C194  1  0.37930000  0.48440000  0.51929000  1.0 0.1399961197
C  C195  1  0.40040000  0.44030000  0.55190000  1.0 -0.1983984893
C  C196  1  0.41150000  0.48800000  0.58316000  1.0 0.1399961197
C  C197  1  0.40040000  0.57310000  0.58330000  1.0 -0.1818110661
C  C198  1  0.37980000  0.61630000  0.55140000  1.0 0.1292221465
C  C199  1  0.36990000  0.57140000  0.51930000  1.0 -0.1818110661
C  C200  1  0.43730000  0.44450000  0.61710000  1.0 -0.0674317104
C  C201  1  0.37130000  0.70860000  0.55190000  1.0 -0.0779670898
C  C202  1  0.36430000  0.77820000  0.55310000  1.0 -0.109464668
C  C203  1  0.50100000  0.25780000  0.71910000  1.0 0.100619835
C  C204  1  0.46600000  0.29270000  0.68750000  1.0 -0.1733340078
C  C205  1  0.49470000  0.37300000  0.67746000  1.0 0.1685172406
C  C206  1  0.55710000  0.41510000  0.70116000  1.0 -0.1922352973
C  C207  1  0.58790000  0.37650000  0.73230000  1.0 0.0907587047
C  C208  1  0.46030000  0.41060000  0.64501000  1.0 -0.109464668
C  C209  1  0.53450000  0.08920000  0.31610000  1.0 -0.0203473753
C  C210  1  0.71560000  0.88470000  0.30540000  1.0 -0.0259681688
C  C211  1  0.31530000  0.00100000  0.59140000  1.0 0.0586665639
C  C212  1  0.34750000  0.91830000  0.58770000  1.0 -0.2084335292
C  C213  1  0.32460000  0.87310000  0.55650000  1.0 0.1812673791
C  C214  1  0.26950000  0.91070000  0.52890000  1.0 -0.227603195
C  C215  1  0.23740000  0.99340000  0.53260000  1.0 0.0512723217
C  C216  1  0.57500000  0.38960000  0.28850000  1.0 -0.0259681688
C  C217  1  0.75530000  0.59400000  0.27058000  1.0 -0.0203473753
C  C218  1  0.87320000  0.25020000  0.11970000  1.0 0.100619835
C  C219  1  0.86940000  0.21860000  0.08440000  1.0 -0.1922352973
C  C220  1  0.85800000  0.13520000  0.07780000  1.0 0.1685172406
C  C221  1  0.84320000  0.08640000  0.10750000  1.0 -0.1818110661
C  C222  1  0.84950000  0.12100000  0.14130000  1.0 0.066859673
C  C223  1  0.86130000  0.10010000  0.04220000  1.0 -0.0951387545
C  C224  1  0.86890000  0.06290000  0.01440000  1.0 -0.0779670898
C  C225  1  0.87930000  0.01560000  0.98071000  1.0 0.1399961197
C  C226  1  0.90040000  0.05970000  0.94810000  1.0 -0.1983984893
C  C227  1  0.91150000  0.01200000  0.91684000  1.0 0.1399961197
C  C228  1  0.90040000  0.92690000  0.91670000  1.0 -0.1818110661
C  C229  1  0.87980000  0.88370000  0.94860000  1.0 0.1292221465
C  C230  1  0.86990000  0.92860000  0.98070000  1.0 -0.1818110661
C  C231  1  0.93730000  0.05550000  0.88290000  1.0 -0.0674317104
C  C232  1  0.87130000  0.79140000  0.94810000  1.0 -0.0779670898
C  C233  1  0.86430000  0.72180000  0.94690000  1.0 -0.109464668
C  C234  1  0.00100000  0.24220000  0.78090000  1.0 0.100619835
C  C235  1  0.96600000  0.20730000  0.81250000  1.0 -0.1733340078
C  C236  1  0.99470000  0.12700000  0.82254000  1.0 0.1685172406
C  C237  1  0.05710000  0.08490000  0.79884000  1.0 -0.1922352973
C  C238  1  0.08790000  0.12350000  0.76770000  1.0 0.0907587047
C  C239  1  0.96030000  0.08940000  0.85499000  1.0 -0.109464668
C  C240  1  0.03450000  0.41080000  0.18390000  1.0 -0.0203473753
C  C241  1  0.21560000  0.61530000  0.19460000  1.0 -0.0259681688
C  C242  1  0.81530000  0.49900000  0.90860000  1.0 0.0586665639
C  C243  1  0.84750000  0.58170000  0.91230000  1.0 -0.2084335292
C  C244  1  0.82460000  0.62690000  0.94350000  1.0 0.1812673791
C  C245  1  0.76950000  0.58930000  0.97110000  1.0 -0.227603195
C  C246  1  0.73740000  0.50660000  0.96740000  1.0 0.0512723217
C  C247  1  0.07500000  0.11040000  0.21150000  1.0 -0.0259681688
C  C248  1  0.25530000  0.90600000  0.22942000  1.0 -0.0203473753
N  N1  1  0.86510000  0.70170000  0.35186000  1.0 -0.2084335292
N  N2  1  0.06170000  0.70170000  0.74177000  1.0 -0.2084335292
N  N3  1  0.98790000  0.85040000  0.31665000  1.0 -0.3301462734
N  N4  1  0.27170000  0.16770000  0.30122000  1.0 -0.3301462734
N  N5  1  0.76030000  0.96150000  0.56390000  1.0 -0.2393485343
N  N6  1  0.01980000  0.66280000  0.29381000  1.0 -0.3301462734
N  N7  1  0.30430000  0.34850000  0.27327000  1.0 -0.3301462734
N  N8  1  0.36510000  0.79830000  0.14814000  1.0 -0.2084335292
N  N9  1  0.56170000  0.79830000  0.75823000  1.0 -0.2084335292
N  N10  1  0.48790000  0.64960000  0.18335000  1.0 -0.3301462734
N  N11  1  0.77170000  0.33230000  0.19878000  1.0 -0.3301462734
N  N12  1  0.26030000  0.53850000  0.93610000  1.0 -0.2393485343
N  N13  1  0.51980000  0.83720000  0.20619000  1.0 -0.3301462734
N  N14  1  0.80430000  0.15150000  0.22673000  1.0 -0.3301462734
N  N15  1  0.63490000  0.70170000  0.64814000  1.0 -0.2084335292
N  N16  1  0.43830000  0.70170000  0.25823000  1.0 -0.2084335292
N  N17  1  0.51210000  0.85040000  0.68335000  1.0 -0.3301462734
N  N18  1  0.22830000  0.16770000  0.69878000  1.0 -0.3301462734
N  N19  1  0.73970000  0.96150000  0.43610000  1.0 -0.2393485343
N  N20  1  0.48020000  0.66280000  0.70619000  1.0 -0.3301462734
N  N21  1  0.19570000  0.34850000  0.72673000  1.0 -0.3301462734
N  N22  1  0.13490000  0.79830000  0.85186000  1.0 -0.2084335292
N  N23  1  0.93830000  0.79830000  0.24177000  1.0 -0.2084335292
N  N24  1  0.01210000  0.64960000  0.81665000  1.0 -0.3301462734
N  N25  1  0.72830000  0.33230000  0.80122000  1.0 -0.3301462734
N  N26  1  0.23970000  0.53850000  0.06390000  1.0 -0.2393485343
N  N27  1  0.98020000  0.83720000  0.79381000  1.0 -0.3301462734
N  N28  1  0.69570000  0.15150000  0.77327000  1.0 -0.3301462734
N  N29  1  0.13490000  0.29830000  0.64814000  1.0 -0.2084335292
N  N30  1  0.93830000  0.29830000  0.25823000  1.0 -0.2084335292
N  N31  1  0.01210000  0.14960000  0.68335000  1.0 -0.3301462734
N  N32  1  0.72830000  0.83230000  0.69878000  1.0 -0.3301462734
N  N33  1  0.23970000  0.03850000  0.43610000  1.0 -0.2393485343
N  N34  1  0.98020000  0.33720000  0.70619000  1.0 -0.3301462734
N  N35  1  0.69570000  0.65150000  0.72673000  1.0 -0.3301462734
N  N36  1  0.63490000  0.20170000  0.85186000  1.0 -0.2084335292
N  N37  1  0.43830000  0.20170000  0.24177000  1.0 -0.2084335292
N  N38  1  0.51210000  0.35040000  0.81665000  1.0 -0.3301462734
N  N39  1  0.22830000  0.66770000  0.80122000  1.0 -0.3301462734
N  N40  1  0.73970000  0.46150000  0.06390000  1.0 -0.2393485343
N  N41  1  0.48020000  0.16280000  0.79381000  1.0 -0.3301462734
N  N42  1  0.19570000  0.84850000  0.77327000  1.0 -0.3301462734
N  N43  1  0.36510000  0.29830000  0.35186000  1.0 -0.2084335292
N  N44  1  0.56170000  0.29830000  0.74177000  1.0 -0.2084335292
N  N45  1  0.48790000  0.14960000  0.31665000  1.0 -0.3301462734
N  N46  1  0.77170000  0.83230000  0.30122000  1.0 -0.3301462734
N  N47  1  0.26030000  0.03850000  0.56390000  1.0 -0.2393485343
N  N48  1  0.51980000  0.33720000  0.29381000  1.0 -0.3301462734
N  N49  1  0.80430000  0.65150000  0.27327000  1.0 -0.3301462734
N  N50  1  0.86510000  0.20170000  0.14814000  1.0 -0.2084335292
N  N51  1  0.06170000  0.20170000  0.75823000  1.0 -0.2084335292
N  N52  1  0.98790000  0.35040000  0.18335000  1.0 -0.3301462734
N  N53  1  0.27170000  0.66770000  0.19878000  1.0 -0.3301462734
N  N54  1  0.76030000  0.46150000  0.93610000  1.0 -0.2393485343
N  N55  1  0.01980000  0.16280000  0.20619000  1.0 -0.3301462734
N  N56  1  0.30430000  0.84850000  0.22673000  1.0 -0.3301462734
