# DDEC6 charges by PACMAN v1.1 (https://github.com/mtap-research/PACMAN-charge/)
data_KIMPAB_ion_pacman
_symmetry_space_group_name_H-M   'P 1'
_cell_length_a   12.55500000
_cell_length_b   12.55500000
_cell_length_c   12.55500000
_cell_angle_alpha   113.49800000
_cell_angle_beta   113.49800000
_cell_angle_gamma   113.49800000
_symmetry_Int_Tables_number   1
_chemical_formula_structural   YP3C9N3(ClO3)3
_chemical_formula_sum   'Y2 P6 C18 N6 Cl6 O18'
_cell_volume   1245.84259637
_cell_formula_units_Z   2
loop_
 _symmetry_equiv_pos_site_id
 _symmetry_equiv_pos_as_xyz
  1  'x, y, z'
loop_
 _atom_site_type_symbol
 _atom_site_label
 _atom_site_symmetry_multiplicity
 _atom_site_fract_x
 _atom_site_fract_y
 _atom_site_fract_z
 _atom_site_occupancy
 _atom_site_charge
Y  Y1  1  0.50000000  0.50000000  0.50000000  1.0 2.0632068169
Y  Y2  1  0.00000000  0.00000000  0.00000000  1.0 2.0840221894
P  P1  1  0.38580000  0.26370000  0.13010000  1.0 1.364455109
P  P2  1  0.13010000  0.38580000  0.26370000  1.0 1.364455109
P  P3  1  0.26370000  0.13010000  0.38580000  1.0 1.364455109
P  P4  1  0.61420000  0.73630000  0.86990000  1.0 1.364455109
P  P5  1  0.86990000  0.61420000  0.73630000  1.0 1.364455109
P  P6  1  0.73630000  0.86990000  0.61420000  1.0 1.364455109
C  C1  1  0.52580000  0.24230000  0.19930000  1.0 -0.1417221996
C  C2  1  0.19930000  0.52580000  0.24230000  1.0 -0.1417221996
C  C3  1  0.24230000  0.19930000  0.52580000  1.0 -0.1417221996
C  C4  1  0.47420000  0.75770000  0.80070000  1.0 -0.1417221996
C  C5  1  0.80070000  0.47420000  0.75770000  1.0 -0.1417221996
C  C6  1  0.75770000  0.80070000  0.47420000  1.0 -0.1417221996
C  C7  1  0.63920000  0.13990000  0.13850000  1.0 0.22431541
C  C8  1  0.13850000  0.63920000  0.13990000  1.0 0.22431541
C  C9  1  0.13990000  0.13850000  0.63920000  1.0 0.22431541
C  C10  1  0.36080000  0.86010000  0.86150000  1.0 0.22431541
C  C11  1  0.86150000  0.36080000  0.86010000  1.0 0.22431541
C  C12  1  0.86010000  0.86150000  0.36080000  1.0 0.22431541
C  C13  1  0.38140000  0.97020000  0.99450000  1.0 0.2392510972
C  C14  1  0.99450000  0.38140000  0.97020000  1.0 0.2392510972
C  C15  1  0.97020000  0.99450000  0.38140000  1.0 0.2392510972
C  C16  1  0.61860000  0.02980000  0.00550000  1.0 0.2392510972
C  C17  1  0.00550000  0.61860000  0.02980000  1.0 0.2392510972
C  C18  1  0.02980000  0.00550000  0.61860000  1.0 0.2392510972
N  N1  1  0.50600000  0.13230000  0.07050000  1.0 0.0825930662
N  N2  1  0.07050000  0.50600000  0.13230000  1.0 0.0825930662
N  N3  1  0.13230000  0.07050000  0.50600000  1.0 0.0825930662
N  N4  1  0.49400000  0.86770000  0.92950000  1.0 0.0825930662
N  N5  1  0.92950000  0.49400000  0.86770000  1.0 0.0825930662
N  N6  1  0.86770000  0.92950000  0.49400000  1.0 0.0825930662
Cl  Cl1  1  0.45900000  0.93360000  0.62590000  1.0 -0.2441024172
Cl  Cl2  1  0.93360000  0.62590000  0.45900000  1.0 -0.2441024172
Cl  Cl3  1  0.62590000  0.45900000  0.93360000  1.0 -0.2454843569
Cl  Cl4  1  0.54100000  0.06640000  0.37410000  1.0 -0.2441024172
Cl  Cl5  1  0.06640000  0.37410000  0.54100000  1.0 -0.2441024172
Cl  Cl6  1  0.37410000  0.54100000  0.06640000  1.0 -0.2441024172
O  O1  1  0.37460000  0.28840000  0.01550000  1.0 -0.6280416993
O  O2  1  0.01550000  0.37460000  0.28840000  1.0 -0.6280416993
O  O3  1  0.28840000  0.01550000  0.37460000  1.0 -0.6280416993
O  O4  1  0.62540000  0.71160000  0.98450000  1.0 -0.6280416993
O  O5  1  0.98450000  0.62540000  0.71160000  1.0 -0.6280416993
O  O6  1  0.71160000  0.98450000  0.62540000  1.0 -0.6280416993
O  O7  1  0.43440000  0.40630000  0.26770000  1.0 -0.797685777
O  O8  1  0.26770000  0.43440000  0.40630000  1.0 -0.797685777
O  O9  1  0.40630000  0.26770000  0.43440000  1.0 -0.797685777
O  O10  1  0.56560000  0.59370000  0.73230000  1.0 -0.797685777
O  O11  1  0.73230000  0.56560000  0.59370000  1.0 -0.797685777
O  O12  1  0.59370000  0.73230000  0.56560000  1.0 -0.797685777
O  O13  1  0.22730000  0.11430000  0.04770000  1.0 -0.7900371003
O  O14  1  0.04770000  0.22730000  0.11430000  1.0 -0.7900371003
O  O15  1  0.11430000  0.04770000  0.22730000  1.0 -0.7900371003
O  O16  1  0.77270000  0.88570000  0.95230000  1.0 -0.7900371003
O  O17  1  0.95230000  0.77270000  0.88570000  1.0 -0.7900371003
O  O18  1  0.88570000  0.95230000  0.77270000  1.0 -0.7900371003
