# DDEC6 charges by PACMAN v1.1 (https://github.com/mtap-research/PACMAN-charge/)
data_KINNUS_FSR_pacman
_symmetry_space_group_name_H-M   'P 1'
_cell_length_a   7.57350000
_cell_length_b   11.75470000
_cell_length_c   17.08420000
_cell_angle_alpha   82.19000000
_cell_angle_beta   86.28500000
_cell_angle_gamma   88.21800000
_symmetry_Int_Tables_number   1
_chemical_formula_structural   CuPH18C31(NF)4
_chemical_formula_sum   'Cu2 P2 H36 C62 N8 F8'
_cell_volume   1503.25131811
_cell_formula_units_Z   2
loop_
 _symmetry_equiv_pos_site_id
 _symmetry_equiv_pos_as_xyz
  1  'x, y, z'
loop_
 _atom_site_type_symbol
 _atom_site_label
 _atom_site_symmetry_multiplicity
 _atom_site_fract_x
 _atom_site_fract_y
 _atom_site_fract_z
 _atom_site_occupancy
 _atom_site_charge
Cu  Cu1  1  0.58373000  0.94727000  0.19414000  1.0 0.5792937716
Cu  Cu2  1  0.41627000  0.05273000  0.80586000  1.0 0.5792937716
P  P1  1  0.89521000  0.67614000  0.76548000  1.0 0.6443033059
P  P2  1  0.10479000  0.32386000  0.23452000  1.0 0.6455393274
H  H1  1  0.19760000  0.82160000  0.76430000  1.0 0.1103350485
H  H2  1  0.62730000  0.50700000  0.77170000  1.0 0.1103350485
H  H3  1  0.01320000  0.57620000  0.91800000  1.0 0.1103350485
H  H4  1  0.83620000  0.89160000  0.82200000  1.0 0.1103350485
H  H5  1  0.05200000  0.64830000  0.03610000  1.0 0.1103350485
H  H6  1  0.98080000  0.84020000  0.04780000  1.0 0.1103350485
H  H7  1  0.89540000  0.20330000  0.80570000  1.0 0.1103350485
H  H8  1  0.62980000  0.30560000  0.78840000  1.0 0.1103350485
H  H9  1  0.98450000  0.64160000  0.60780000  1.0 0.1187962218
H  H10  1  0.67310000  0.70290000  0.67780000  1.0 0.1774512594
H  H11  1  0.59290000  0.70940000  0.76610000  1.0 0.1774512594
H  H12  1  0.69470000  0.81670000  0.71780000  1.0 0.1740601053
H  H13  1  0.16080000  0.50050000  0.78370000  1.0 0.1103350485
H  H14  1  0.41180000  0.89210000  0.66590000  1.0 0.1103350485
H  H15  1  0.87030000  0.96010000  0.94180000  1.0 0.1187962218
H  H16  1  0.16200000  0.29920000  0.80340000  1.0 0.1187962218
H  H17  1  0.20350000  0.70940000  0.51110000  1.0 0.1103350485
H  H18  1  0.41760000  0.83380000  0.54060000  1.0 0.1103350485
H  H19  1  0.80240000  0.17840000  0.23570000  1.0 0.1103350485
H  H20  1  0.37270000  0.49300000  0.22830000  1.0 0.1103350485
H  H21  1  0.98680000  0.42380000  0.08200000  1.0 0.1103350485
H  H22  1  0.16380000  0.10840000  0.17800000  1.0 0.1103350485
H  H23  1  0.94800000  0.35170000  0.96390000  1.0 0.1103350485
H  H24  1  0.01920000  0.15980000  0.95220000  1.0 0.1103350485
H  H25  1  0.10460000  0.79670000  0.19430000  1.0 0.1103350485
H  H26  1  0.37020000  0.69440000  0.21160000  1.0 0.1103350485
H  H27  1  0.01550000  0.35840000  0.39220000  1.0 0.1187962218
H  H28  1  0.32690000  0.29710000  0.32220000  1.0 0.1774512594
H  H29  1  0.40710000  0.29060000  0.23390000  1.0 0.1774512594
H  H30  1  0.30530000  0.18330000  0.28220000  1.0 0.1740601053
H  H31  1  0.83920000  0.49950000  0.21630000  1.0 0.1103350485
H  H32  1  0.58820000  0.10790000  0.33410000  1.0 0.1103350485
H  H33  1  0.12970000  0.03990000  0.05820000  1.0 0.1187962218
H  H34  1  0.83800000  0.70080000  0.19660000  1.0 0.1187962218
H  H35  1  0.79650000  0.29060000  0.48890000  1.0 0.1103350485
H  H36  1  0.58240000  0.16620000  0.45940000  1.0 0.1103350485
C  C1  1  0.87590000  0.94448000  0.46720000  1.0 0.1103350485
C  C2  1  0.12410000  0.05552000  0.53280000  1.0 0.1103350485
C  C3  1  0.44380000  0.44825000  0.94071000  1.0 0.1103350485
C  C4  1  0.55620000  0.55175000  0.05929000  1.0 0.1103350485
C  C5  1  0.50590000  0.37395000  0.00474000  1.0 -0.0910566256
C  C6  1  0.49410000  0.62605000  0.99526000  1.0 -0.0910566256
C  C7  1  0.05910000  0.94453000  0.33854000  1.0 -0.1803757335
C  C8  1  0.94090000  0.05547000  0.66146000  1.0 -0.1803757335
C  C9  1  0.03010000  0.97123000  0.41974000  1.0 -0.0910566256
C  C10  1  0.96990000  0.02877000  0.58026000  1.0 -0.0910566256
C  C11  1  0.55340000  0.17517000  0.07665000  1.0 0.3099390358
C  C12  1  0.44660000  0.82483000  0.92335000  1.0 0.3099390358
C  C13  1  0.47540000  0.19362000  0.94420000  1.0 0.3099390358
C  C14  1  0.52460000  0.80638000  0.05580000  1.0 0.3099390358
C  C15  1  0.56060000  0.43389000  0.06388000  1.0 0.1103350485
C  C16  1  0.43940000  0.56611000  0.93612000  1.0 0.1103350485
C  C17  1  0.51250000  0.24984000  0.00843000  1.0 -0.1803757335
C  C18  1  0.48750000  0.75016000  0.99157000  1.0 -0.1803757335
C  C19  1  0.91560000  0.93169000  0.29262000  1.0 0.3099390358
C  C20  1  0.08440000  0.06831000  0.70738000  1.0 0.3099390358
C  C21  1  0.22770000  0.93899000  0.30076000  1.0 0.302573352
C  C22  1  0.77230000  0.06101000  0.69924000  1.0 0.302573352
C  C23  1  0.15270000  0.02790000  0.45737000  1.0 0.1187962218
C  C24  1  0.84730000  0.97210000  0.54263000  1.0 0.1187962218
C  C25  1  0.19840000  0.79927000  0.71286000  1.0 -0.100937593
C  C26  1  0.73570000  0.46480000  0.77795000  1.0 -0.100937593
C  C27  1  0.89420000  0.52234000  0.77689000  1.0 -0.1083456381
C  C28  1  0.07170000  0.72500000  0.69499000  1.0 -0.1083456381
C  C29  1  0.92160000  0.72650000  0.85835000  1.0 -0.1083456381
C  C30  1  0.98520000  0.65450000  0.92242000  1.0 -0.1083456381
C  C31  1  0.87920000  0.84180000  0.86550000  1.0 -0.0910566256
C  C32  1  0.00750000  0.69720000  0.99256000  1.0 -0.100937593
C  C33  1  0.96520000  0.81120000  0.99947000  1.0 -0.0821156423
C  C34  1  0.89520000  0.28490000  0.79798000  1.0 -0.0821156423
C  C35  1  0.73710000  0.34540000  0.78817000  1.0 -0.0821156423
C  C36  1  0.07210000  0.69170000  0.61972000  1.0 -0.100937593
C  C37  1  0.69080000  0.73270000  0.72751000  1.0 -0.6478812854
C  C38  1  0.05290000  0.46090000  0.78546000  1.0 -0.100937593
C  C39  1  0.32600000  0.84040000  0.65452000  1.0 -0.0821156423
C  C40  1  0.90050000  0.88240000  0.93642000  1.0 -0.0910566256
C  C41  1  0.05390000  0.34160000  0.79667000  1.0 -0.0821156423
C  C42  1  0.20170000  0.73230000  0.56239000  1.0 -0.100937593
C  C43  1  0.32880000  0.80650000  0.57984000  1.0 -0.0910566256
C  C44  1  0.80160000  0.20073000  0.28714000  1.0 -0.100937593
C  C45  1  0.26430000  0.53520000  0.22205000  1.0 -0.100937593
C  C46  1  0.10580000  0.47766000  0.22311000  1.0 -0.1083456381
C  C47  1  0.92830000  0.27500000  0.30501000  1.0 -0.1083456381
C  C48  1  0.07840000  0.27350000  0.14165000  1.0 -0.1083456381
C  C49  1  0.01480000  0.34550000  0.07758000  1.0 -0.1083456381
C  C50  1  0.12080000  0.15820000  0.13450000  1.0 -0.0910566256
C  C51  1  0.99250000  0.30280000  0.00744000  1.0 -0.0910566256
C  C52  1  0.03480000  0.18880000  0.00053000  1.0 -0.0821156423
C  C53  1  0.10480000  0.71510000  0.20202000  1.0 -0.0821156423
C  C54  1  0.26290000  0.65460000  0.21183000  1.0 -0.0821156423
C  C55  1  0.92790000  0.30830000  0.38028000  1.0 -0.100937593
C  C56  1  0.30920000  0.26730000  0.27249000  1.0 -0.6478812854
C  C57  1  0.94710000  0.53910000  0.21454000  1.0 -0.100937593
C  C58  1  0.67400000  0.15960000  0.34548000  1.0 -0.0821156423
C  C59  1  0.09950000  0.11760000  0.06358000  1.0 -0.0910566256
C  C60  1  0.94610000  0.65840000  0.20333000  1.0 -0.0821156423
C  C61  1  0.79830000  0.26770000  0.43761000  1.0 -0.100937593
C  C62  1  0.67120000  0.19350000  0.42016000  1.0 -0.0910566256
N  N1  1  0.79780000  0.92304000  0.25423000  1.0 -0.4480497698
N  N2  1  0.20220000  0.07696000  0.74577000  1.0 -0.4480497698
N  N3  1  0.44540000  0.14485000  0.89225000  1.0 -0.4570649425
N  N4  1  0.55460000  0.85515000  0.10775000  1.0 -0.4570649425
N  N5  1  0.58260000  0.10763000  0.13064000  1.0 -0.4354861239
N  N6  1  0.41740000  0.89237000  0.86936000  1.0 -0.4354861239
N  N7  1  0.36490000  0.93520000  0.26676000  1.0 -0.4480497698
N  N8  1  0.63510000  0.06480000  0.73324000  1.0 -0.4480497698
F  F1  1  0.30760000  0.05975000  0.41788000  1.0 -0.100937593
F  F2  1  0.69240000  0.94025000  0.58212000  1.0 -0.100937593
F  F3  1  0.62202000  0.37435000  0.13092000  1.0 -0.100937593
F  F4  1  0.37798000  0.62565000  0.86908000  1.0 -0.100937593
F  F5  1  0.38180000  0.40368000  0.87907000  1.0 -0.1083456381
F  F6  1  0.61820000  0.59632000  0.12093000  1.0 -0.1083456381
F  F7  1  0.74619000  0.88779000  0.43871000  1.0 -0.1083456381
F  F8  1  0.25381000  0.11221000  0.56129000  1.0 -0.1083456381
