# DDEC6 charges by PACMAN v1.1 (https://github.com/mtap-research/PACMAN-charge/)
data_KINRIK_FSR_pacman
_symmetry_space_group_name_H-M   'P 1'
_cell_length_a   23.42870000
_cell_length_b   23.42870000
_cell_length_c   23.42870000
_cell_angle_alpha   108.69100000
_cell_angle_beta   108.69100000
_cell_angle_gamma   108.69100000
_symmetry_Int_Tables_number   1
_chemical_formula_structural   Gd2Cu6H27C15(NO5)6
_chemical_formula_sum   'Gd12 Cu36 H162 C90 N36 O180'
_cell_volume   10175.64001454
_cell_formula_units_Z   6
loop_
 _symmetry_equiv_pos_site_id
 _symmetry_equiv_pos_as_xyz
  1  'x, y, z'
loop_
 _atom_site_type_symbol
 _atom_site_label
 _atom_site_symmetry_multiplicity
 _atom_site_fract_x
 _atom_site_fract_y
 _atom_site_fract_z
 _atom_site_occupancy
 _atom_site_charge
Gd  Gd1  1  0.77197000  0.77094000  0.45834000  1.0 1.9924440429
Gd  Gd2  1  0.77094000  0.45834000  0.77197000  1.0 1.9924440429
Gd  Gd3  1  0.45834000  0.77197000  0.77094000  1.0 1.9924440429
Gd  Gd4  1  0.72189000  0.72601000  0.07670000  1.0 2.0877662147
Gd  Gd5  1  0.72601000  0.07670000  0.72189000  1.0 2.0877662147
Gd  Gd6  1  0.07670000  0.72189000  0.72601000  1.0 2.0877662147
Gd  Gd7  1  0.22803000  0.22906000  0.54166000  1.0 1.9924440429
Gd  Gd8  1  0.22906000  0.54166000  0.22803000  1.0 1.9924440429
Gd  Gd9  1  0.54166000  0.22803000  0.22906000  1.0 1.9924440429
Gd  Gd10  1  0.27811000  0.27399000  0.92330000  1.0 2.0877662147
Gd  Gd11  1  0.27399000  0.92330000  0.27811000  1.0 2.0877662147
Gd  Gd12  1  0.92330000  0.27811000  0.27399000  1.0 2.0877662147
Cu  Cu1  1  0.73741000  0.68450000  0.20881000  1.0 0.933255518
Cu  Cu2  1  0.68450000  0.20881000  0.73741000  1.0 0.933255518
Cu  Cu3  1  0.20881000  0.73741000  0.68450000  1.0 0.933255518
Cu  Cu4  1  0.72098000  0.88119000  0.14675000  1.0 0.9512404745
Cu  Cu5  1  0.88119000  0.14675000  0.72098000  1.0 0.9512404745
Cu  Cu6  1  0.14675000  0.72098000  0.88119000  1.0 0.9512404745
Cu  Cu7  1  0.88967000  0.78659000  0.10743000  1.0 0.9421596423
Cu  Cu8  1  0.78659000  0.10743000  0.88967000  1.0 0.9421596423
Cu  Cu9  1  0.10743000  0.88967000  0.78659000  1.0 0.9421596423
Cu  Cu10  1  0.61954000  0.56847000  0.05430000  1.0 0.9421596423
Cu  Cu11  1  0.56847000  0.05430000  0.61954000  1.0 0.9421596423
Cu  Cu12  1  0.05430000  0.61954000  0.56847000  1.0 0.9421596423
Cu  Cu13  1  0.77174000  0.67043000  0.95488000  1.0 0.8967491036
Cu  Cu14  1  0.67043000  0.95488000  0.77174000  1.0 0.8967491036
Cu  Cu15  1  0.95488000  0.77174000  0.67043000  1.0 0.8967491036
Cu  Cu16  1  0.59964000  0.76539000  0.99239000  1.0 0.8884817009
Cu  Cu17  1  0.76539000  0.99239000  0.59964000  1.0 0.8884817009
Cu  Cu18  1  0.99239000  0.59964000  0.76539000  1.0 0.8884817009
Cu  Cu19  1  0.26259000  0.31550000  0.79119000  1.0 0.933255518
Cu  Cu20  1  0.31550000  0.79119000  0.26259000  1.0 0.933255518
Cu  Cu21  1  0.79119000  0.26259000  0.31550000  1.0 0.933255518
Cu  Cu22  1  0.27902000  0.11881000  0.85325000  1.0 0.9512404745
Cu  Cu23  1  0.11881000  0.85325000  0.27902000  1.0 0.9512404745
Cu  Cu24  1  0.85325000  0.27902000  0.11881000  1.0 0.9512404745
Cu  Cu25  1  0.11033000  0.21341000  0.89257000  1.0 0.9421596423
Cu  Cu26  1  0.21341000  0.89257000  0.11033000  1.0 0.9421596423
Cu  Cu27  1  0.89257000  0.11033000  0.21341000  1.0 0.9421596423
Cu  Cu28  1  0.38046000  0.43153000  0.94570000  1.0 0.9421596423
Cu  Cu29  1  0.43153000  0.94570000  0.38046000  1.0 0.9421596423
Cu  Cu30  1  0.94570000  0.38046000  0.43153000  1.0 0.9421596423
Cu  Cu31  1  0.22826000  0.32957000  0.04512000  1.0 0.8967491036
Cu  Cu32  1  0.32957000  0.04512000  0.22826000  1.0 0.8967491036
Cu  Cu33  1  0.04512000  0.22826000  0.32957000  1.0 0.8967491036
Cu  Cu34  1  0.40036000  0.23461000  0.00761000  1.0 0.8884817009
Cu  Cu35  1  0.23461000  0.00761000  0.40036000  1.0 0.8884817009
Cu  Cu36  1  0.00761000  0.40036000  0.23461000  1.0 0.8884817009
H  H1  1  0.82900000  0.73950000  0.32670000  1.0 0.30108195
H  H2  1  0.73950000  0.32670000  0.82900000  1.0 0.30108195
H  H3  1  0.32670000  0.82900000  0.73950000  1.0 0.30108195
H  H4  1  0.82350000  0.67290000  0.29080000  1.0 0.2803737268
H  H5  1  0.67290000  0.29080000  0.82350000  1.0 0.2803737268
H  H6  1  0.29080000  0.82350000  0.67290000  1.0 0.2803737268
H  H7  1  0.78150000  0.96810000  0.26440000  1.0 0.2882623941
H  H8  1  0.96810000  0.26440000  0.78150000  1.0 0.2882623941
H  H9  1  0.26440000  0.78150000  0.96810000  1.0 0.2882623941
H  H10  1  0.70880000  0.94640000  0.24090000  1.0 0.2592412808
H  H11  1  0.94640000  0.24090000  0.70880000  1.0 0.2592412808
H  H12  1  0.24090000  0.70880000  0.94640000  1.0 0.2592412808
H  H13  1  0.00080000  0.88640000  0.18170000  1.0 0.2803737268
H  H14  1  0.88640000  0.18170000  0.00080000  1.0 0.2803737268
H  H15  1  0.18170000  0.00080000  0.88640000  1.0 0.2803737268
H  H16  1  0.97030000  0.89040000  0.11910000  1.0 0.2592412808
H  H17  1  0.89040000  0.11910000  0.97030000  1.0 0.2592412808
H  H18  1  0.11910000  0.97030000  0.89040000  1.0 0.2592412808
H  H19  1  0.60110000  0.45270000  0.00230000  1.0 0.2592412808
H  H20  1  0.45270000  0.00230000  0.60110000  1.0 0.2592412808
H  H21  1  0.00230000  0.60110000  0.45270000  1.0 0.2592412808
H  H22  1  0.54190000  0.45500000  0.95960000  1.0 0.2803737268
H  H23  1  0.45500000  0.95960000  0.54190000  1.0 0.2803737268
H  H24  1  0.95960000  0.54190000  0.45500000  1.0 0.2803737268
H  H25  1  0.76430000  0.66750000  0.85110000  1.0 0.2882623941
H  H26  1  0.66750000  0.85110000  0.76430000  1.0 0.2882623941
H  H27  1  0.85110000  0.76430000  0.66750000  1.0 0.2882623941
H  H28  1  0.70900000  0.60390000  0.83500000  1.0 0.3062875813
H  H29  1  0.60390000  0.83500000  0.70900000  1.0 0.3062875813
H  H30  1  0.83500000  0.70900000  0.60390000  1.0 0.3062875813
H  H31  1  0.47590000  0.71820000  0.95530000  1.0 0.2803737268
H  H32  1  0.71820000  0.95530000  0.47590000  1.0 0.2803737268
H  H33  1  0.95530000  0.47590000  0.71820000  1.0 0.2803737268
H  H34  1  0.48410000  0.70260000  0.89370000  1.0 0.30108195
H  H35  1  0.70260000  0.89370000  0.48410000  1.0 0.30108195
H  H36  1  0.89370000  0.48410000  0.70260000  1.0 0.30108195
H  H37  1  0.90610000  0.71430000  0.27360000  1.0 0.1228085304
H  H38  1  0.71430000  0.27360000  0.90610000  1.0 0.1228085304
H  H39  1  0.27360000  0.90610000  0.71430000  1.0 0.1228085304
H  H40  1  0.91720000  0.78630000  0.31950000  1.0 0.1481608135
H  H41  1  0.78630000  0.31950000  0.91720000  1.0 0.1481608135
H  H42  1  0.31950000  0.91720000  0.78630000  1.0 0.1481608135
H  H43  1  0.69750000  0.88010000  0.28100000  1.0 0.129195344
H  H44  1  0.88010000  0.28100000  0.69750000  1.0 0.129195344
H  H45  1  0.28100000  0.69750000  0.88010000  1.0 0.129195344
H  H46  1  0.77730000  0.91280000  0.31670000  1.0 0.1384192924
H  H47  1  0.91280000  0.31670000  0.77730000  1.0 0.1384192924
H  H48  1  0.31670000  0.77730000  0.91280000  1.0 0.1384192924
H  H49  1  0.95300000  0.96210000  0.17390000  1.0 0.1228085304
H  H50  1  0.96210000  0.17390000  0.95300000  1.0 0.1228085304
H  H51  1  0.17390000  0.95300000  0.96210000  1.0 0.1228085304
H  H52  1  0.96390000  0.93910000  0.23040000  1.0 0.1384192924
H  H53  1  0.93910000  0.23040000  0.96390000  1.0 0.1384192924
H  H54  1  0.23040000  0.96390000  0.93910000  1.0 0.1384192924
H  H55  1  0.57900000  0.46730000  0.89370000  1.0 0.1384192924
H  H56  1  0.46730000  0.89370000  0.57900000  1.0 0.1384192924
H  H57  1  0.89370000  0.57900000  0.46730000  1.0 0.1384192924
H  H58  1  0.63610000  0.45230000  0.93230000  1.0 0.129195344
H  H59  1  0.45230000  0.93230000  0.63610000  1.0 0.129195344
H  H60  1  0.93230000  0.63610000  0.45230000  1.0 0.129195344
H  H61  1  0.69860000  0.71890000  0.84140000  1.0 0.129195344
H  H62  1  0.71890000  0.84140000  0.69860000  1.0 0.129195344
H  H63  1  0.84140000  0.69860000  0.71890000  1.0 0.129195344
H  H64  1  0.63700000  0.64600000  0.80820000  1.0 0.129195344
H  H65  1  0.64600000  0.80820000  0.63700000  1.0 0.129195344
H  H66  1  0.80820000  0.63700000  0.64600000  1.0 0.129195344
H  H67  1  0.47820000  0.60660000  0.88040000  1.0 0.1481608135
H  H68  1  0.60660000  0.88040000  0.47820000  1.0 0.1481608135
H  H69  1  0.88040000  0.47820000  0.60660000  1.0 0.1481608135
H  H70  1  0.44420000  0.61340000  0.92830000  1.0 0.129195344
H  H71  1  0.61340000  0.92830000  0.44420000  1.0 0.129195344
H  H72  1  0.92830000  0.44420000  0.61340000  1.0 0.129195344
H  H73  1  0.63750000  0.62660000  0.29180000  1.0 0.0722799743
H  H74  1  0.62660000  0.29180000  0.63750000  1.0 0.0722799743
H  H75  1  0.29180000  0.63750000  0.62660000  1.0 0.0722799743
H  H76  1  0.56730000  0.89590000  0.95680000  1.0 0.1228085304
H  H77  1  0.89590000  0.95680000  0.56730000  1.0 0.1228085304
H  H78  1  0.95680000  0.56730000  0.89590000  1.0 0.1228085304
H  H79  1  0.88260000  0.59570000  0.93330000  1.0 0.0985646504
H  H80  1  0.59570000  0.93330000  0.88260000  1.0 0.0985646504
H  H81  1  0.93330000  0.88260000  0.59570000  1.0 0.0985646504
H  H82  1  0.17100000  0.26050000  0.67330000  1.0 0.30108195
H  H83  1  0.26050000  0.67330000  0.17100000  1.0 0.30108195
H  H84  1  0.67330000  0.17100000  0.26050000  1.0 0.30108195
H  H85  1  0.17650000  0.32710000  0.70920000  1.0 0.2803737268
H  H86  1  0.32710000  0.70920000  0.17650000  1.0 0.2803737268
H  H87  1  0.70920000  0.17650000  0.32710000  1.0 0.2803737268
H  H88  1  0.21850000  0.03190000  0.73560000  1.0 0.2882623941
H  H89  1  0.03190000  0.73560000  0.21850000  1.0 0.2882623941
H  H90  1  0.73560000  0.21850000  0.03190000  1.0 0.2882623941
H  H91  1  0.29120000  0.05360000  0.75910000  1.0 0.2592412808
H  H92  1  0.05360000  0.75910000  0.29120000  1.0 0.2592412808
H  H93  1  0.75910000  0.29120000  0.05360000  1.0 0.2592412808
H  H94  1  0.99920000  0.11360000  0.81830000  1.0 0.2803737268
H  H95  1  0.11360000  0.81830000  0.99920000  1.0 0.2803737268
H  H96  1  0.81830000  0.99920000  0.11360000  1.0 0.2803737268
H  H97  1  0.02970000  0.10960000  0.88090000  1.0 0.2592412808
H  H98  1  0.10960000  0.88090000  0.02970000  1.0 0.2592412808
H  H99  1  0.88090000  0.02970000  0.10960000  1.0 0.2592412808
H  H100  1  0.39890000  0.54730000  0.99770000  1.0 0.2592412808
H  H101  1  0.54730000  0.99770000  0.39890000  1.0 0.2592412808
H  H102  1  0.99770000  0.39890000  0.54730000  1.0 0.2592412808
H  H103  1  0.45810000  0.54500000  0.04040000  1.0 0.2803737268
H  H104  1  0.54500000  0.04040000  0.45810000  1.0 0.2803737268
H  H105  1  0.04040000  0.45810000  0.54500000  1.0 0.2803737268
H  H106  1  0.23570000  0.33250000  0.14890000  1.0 0.2882623941
H  H107  1  0.33250000  0.14890000  0.23570000  1.0 0.2882623941
H  H108  1  0.14890000  0.23570000  0.33250000  1.0 0.2882623941
H  H109  1  0.29100000  0.39610000  0.16500000  1.0 0.3062875813
H  H110  1  0.39610000  0.16500000  0.29100000  1.0 0.3062875813
H  H111  1  0.16500000  0.29100000  0.39610000  1.0 0.3062875813
H  H112  1  0.52410000  0.28180000  0.04470000  1.0 0.2803737268
H  H113  1  0.28180000  0.04470000  0.52410000  1.0 0.2803737268
H  H114  1  0.04470000  0.52410000  0.28180000  1.0 0.2803737268
H  H115  1  0.51590000  0.29740000  0.10630000  1.0 0.30108195
H  H116  1  0.29740000  0.10630000  0.51590000  1.0 0.30108195
H  H117  1  0.10630000  0.51590000  0.29740000  1.0 0.30108195
H  H118  1  0.09390000  0.28570000  0.72640000  1.0 0.1228085304
H  H119  1  0.28570000  0.72640000  0.09390000  1.0 0.1228085304
H  H120  1  0.72640000  0.09390000  0.28570000  1.0 0.1228085304
H  H121  1  0.08280000  0.21370000  0.68050000  1.0 0.1481608135
H  H122  1  0.21370000  0.68050000  0.08280000  1.0 0.1481608135
H  H123  1  0.68050000  0.08280000  0.21370000  1.0 0.1481608135
H  H124  1  0.30250000  0.11990000  0.71900000  1.0 0.129195344
H  H125  1  0.11990000  0.71900000  0.30250000  1.0 0.129195344
H  H126  1  0.71900000  0.30250000  0.11990000  1.0 0.129195344
H  H127  1  0.22270000  0.08720000  0.68330000  1.0 0.1384192924
H  H128  1  0.08720000  0.68330000  0.22270000  1.0 0.1384192924
H  H129  1  0.68330000  0.22270000  0.08720000  1.0 0.1384192924
H  H130  1  0.04700000  0.03790000  0.82610000  1.0 0.1228085304
H  H131  1  0.03790000  0.82610000  0.04700000  1.0 0.1228085304
H  H132  1  0.82610000  0.04700000  0.03790000  1.0 0.1228085304
H  H133  1  0.03610000  0.06090000  0.76960000  1.0 0.1384192924
H  H134  1  0.06090000  0.76960000  0.03610000  1.0 0.1384192924
H  H135  1  0.76960000  0.03610000  0.06090000  1.0 0.1384192924
H  H136  1  0.42100000  0.53270000  0.10630000  1.0 0.1384192924
H  H137  1  0.53270000  0.10630000  0.42100000  1.0 0.1384192924
H  H138  1  0.10630000  0.42100000  0.53270000  1.0 0.1384192924
H  H139  1  0.36390000  0.54770000  0.06770000  1.0 0.129195344
H  H140  1  0.54770000  0.06770000  0.36390000  1.0 0.129195344
H  H141  1  0.06770000  0.36390000  0.54770000  1.0 0.129195344
H  H142  1  0.30140000  0.28110000  0.15860000  1.0 0.129195344
H  H143  1  0.28110000  0.15860000  0.30140000  1.0 0.129195344
H  H144  1  0.15860000  0.30140000  0.28110000  1.0 0.129195344
H  H145  1  0.36300000  0.35400000  0.19180000  1.0 0.129195344
H  H146  1  0.35400000  0.19180000  0.36300000  1.0 0.129195344
H  H147  1  0.19180000  0.36300000  0.35400000  1.0 0.129195344
H  H148  1  0.52180000  0.39340000  0.11960000  1.0 0.1481608135
H  H149  1  0.39340000  0.11960000  0.52180000  1.0 0.1481608135
H  H150  1  0.11960000  0.52180000  0.39340000  1.0 0.1481608135
H  H151  1  0.55580000  0.38660000  0.07170000  1.0 0.129195344
H  H152  1  0.38660000  0.07170000  0.55580000  1.0 0.129195344
H  H153  1  0.07170000  0.55580000  0.38660000  1.0 0.129195344
H  H154  1  0.36250000  0.37340000  0.70820000  1.0 0.0722799743
H  H155  1  0.37340000  0.70820000  0.36250000  1.0 0.0722799743
H  H156  1  0.70820000  0.36250000  0.37340000  1.0 0.0722799743
H  H157  1  0.43270000  0.10410000  0.04320000  1.0 0.1228085304
H  H158  1  0.10410000  0.04320000  0.43270000  1.0 0.1228085304
H  H159  1  0.04320000  0.43270000  0.10410000  1.0 0.1228085304
H  H160  1  0.11740000  0.40430000  0.06670000  1.0 0.0985646504
H  H161  1  0.40430000  0.06670000  0.11740000  1.0 0.0985646504
H  H162  1  0.06670000  0.11740000  0.40430000  1.0 0.0985646504
C  C1  1  0.88450000  0.74330000  0.27850000  1.0 -0.1771318608
C  C2  1  0.74330000  0.27850000  0.88450000  1.0 -0.1771318608
C  C3  1  0.27850000  0.88450000  0.74330000  1.0 -0.1771318608
C  C4  1  0.86750000  0.75680000  0.21720000  1.0 0.6039035365
C  C5  1  0.75680000  0.21720000  0.86750000  1.0 0.6039035365
C  C6  1  0.21720000  0.86750000  0.75680000  1.0 0.6039035365
C  C7  1  0.73660000  0.88840000  0.27260000  1.0 -0.2192867775
C  C8  1  0.88840000  0.27260000  0.73660000  1.0 -0.2192867775
C  C9  1  0.27260000  0.73660000  0.88840000  1.0 -0.2192867775
C  C10  1  0.73140000  0.82270000  0.23370000  1.0 0.6227640455
C  C11  1  0.82270000  0.23370000  0.73140000  1.0 0.6227640455
C  C12  1  0.23370000  0.73140000  0.82270000  1.0 0.6227640455
C  C13  1  0.93970000  0.92270000  0.18160000  1.0 -0.1588525628
C  C14  1  0.92270000  0.18160000  0.93970000  1.0 -0.1588525628
C  C15  1  0.18160000  0.93970000  0.92270000  1.0 -0.1588525628
C  C16  1  0.86180000  0.89140000  0.15850000  1.0 0.5916019922
C  C17  1  0.89140000  0.15850000  0.86180000  1.0 0.5916019922
C  C18  1  0.15850000  0.86180000  0.89140000  1.0 0.5916019922
C  C19  1  0.61570000  0.48250000  0.93810000  1.0 -0.2091675058
C  C20  1  0.48250000  0.93810000  0.61570000  1.0 -0.2091675058
C  C21  1  0.93810000  0.61570000  0.48250000  1.0 -0.2091675058
C  C22  1  0.66770000  0.55250000  0.96280000  1.0 0.6227640455
C  C23  1  0.55250000  0.96280000  0.66770000  1.0 0.6227640455
C  C24  1  0.96280000  0.66770000  0.55250000  1.0 0.6227640455
C  C25  1  0.67960000  0.68040000  0.84910000  1.0 -0.2192867775
C  C26  1  0.68040000  0.84910000  0.67960000  1.0 -0.2192867775
C  C27  1  0.84910000  0.67960000  0.68040000  1.0 -0.2192867775
C  C28  1  0.66540000  0.70360000  0.90820000  1.0 0.6275828724
C  C29  1  0.70360000  0.90820000  0.66540000  1.0 0.6275828724
C  C30  1  0.90820000  0.66540000  0.70360000  1.0 0.6275828724
C  C31  1  0.48570000  0.63430000  0.92560000  1.0 -0.1771318608
C  C32  1  0.63430000  0.92560000  0.48570000  1.0 -0.1771318608
C  C33  1  0.92560000  0.48570000  0.63430000  1.0 -0.1771318608
C  C34  1  0.54370000  0.63420000  0.97840000  1.0 0.6054281836
C  C35  1  0.63420000  0.97840000  0.54370000  1.0 0.6054281836
C  C36  1  0.97840000  0.54370000  0.63420000  1.0 0.6054281836
C  C37  1  0.67470000  0.65110000  0.28770000  1.0 0.4846714383
C  C38  1  0.65110000  0.28770000  0.67470000  1.0 0.4846714383
C  C39  1  0.28770000  0.67470000  0.65110000  1.0 0.4853383546
C  C40  1  0.56560000  0.85350000  0.94780000  1.0 0.4055328215
C  C41  1  0.85350000  0.94780000  0.56560000  1.0 0.4055328215
C  C42  1  0.94780000  0.56560000  0.85350000  1.0 0.4055328215
C  C43  1  0.84560000  0.60420000  0.92040000  1.0 0.4441265707
C  C44  1  0.60420000  0.92040000  0.84560000  1.0 0.4441265707
C  C45  1  0.92040000  0.84560000  0.60420000  1.0 0.4441265707
C  C46  1  0.11550000  0.25670000  0.72150000  1.0 -0.1771318608
C  C47  1  0.25670000  0.72150000  0.11550000  1.0 -0.1771318608
C  C48  1  0.72150000  0.11550000  0.25670000  1.0 -0.1771318608
C  C49  1  0.13250000  0.24320000  0.78280000  1.0 0.6039035365
C  C50  1  0.24320000  0.78280000  0.13250000  1.0 0.6039035365
C  C51  1  0.78280000  0.13250000  0.24320000  1.0 0.6039035365
C  C52  1  0.26340000  0.11160000  0.72740000  1.0 -0.2192867775
C  C53  1  0.11160000  0.72740000  0.26340000  1.0 -0.2192867775
C  C54  1  0.72740000  0.26340000  0.11160000  1.0 -0.2192867775
C  C55  1  0.26860000  0.17730000  0.76630000  1.0 0.6227640455
C  C56  1  0.17730000  0.76630000  0.26860000  1.0 0.6227640455
C  C57  1  0.76630000  0.26860000  0.17730000  1.0 0.6227640455
C  C58  1  0.06030000  0.07730000  0.81840000  1.0 -0.1588525628
C  C59  1  0.07730000  0.81840000  0.06030000  1.0 -0.1588525628
C  C60  1  0.81840000  0.06030000  0.07730000  1.0 -0.1588525628
C  C61  1  0.13820000  0.10860000  0.84150000  1.0 0.5916019922
C  C62  1  0.10860000  0.84150000  0.13820000  1.0 0.5916019922
C  C63  1  0.84150000  0.13820000  0.10860000  1.0 0.5916019922
C  C64  1  0.38430000  0.51750000  0.06190000  1.0 -0.2091675058
C  C65  1  0.51750000  0.06190000  0.38430000  1.0 -0.2091675058
C  C66  1  0.06190000  0.38430000  0.51750000  1.0 -0.2091675058
C  C67  1  0.33230000  0.44750000  0.03720000  1.0 0.6227640455
C  C68  1  0.44750000  0.03720000  0.33230000  1.0 0.6227640455
C  C69  1  0.03720000  0.33230000  0.44750000  1.0 0.6227640455
C  C70  1  0.32040000  0.31960000  0.15090000  1.0 -0.2192867775
C  C71  1  0.31960000  0.15090000  0.32040000  1.0 -0.2192867775
C  C72  1  0.15090000  0.32040000  0.31960000  1.0 -0.2192867775
C  C73  1  0.33460000  0.29640000  0.09180000  1.0 0.6275828724
C  C74  1  0.29640000  0.09180000  0.33460000  1.0 0.6275828724
C  C75  1  0.09180000  0.33460000  0.29640000  1.0 0.6275828724
C  C76  1  0.51430000  0.36570000  0.07440000  1.0 -0.1771318608
C  C77  1  0.36570000  0.07440000  0.51430000  1.0 -0.1771318608
C  C78  1  0.07440000  0.51430000  0.36570000  1.0 -0.1771318608
C  C79  1  0.45630000  0.36580000  0.02160000  1.0 0.6054281836
C  C80  1  0.36580000  0.02160000  0.45630000  1.0 0.6054281836
C  C81  1  0.02160000  0.45630000  0.36580000  1.0 0.6054281836
C  C82  1  0.32530000  0.34890000  0.71230000  1.0 0.4846714383
C  C83  1  0.34890000  0.71230000  0.32530000  1.0 0.4853383546
C  C84  1  0.71230000  0.32530000  0.34890000  1.0 0.4846714383
C  C85  1  0.43440000  0.14650000  0.05220000  1.0 0.4038106546
C  C86  1  0.14650000  0.05220000  0.43440000  1.0 0.4038106546
C  C87  1  0.05220000  0.43440000  0.14650000  1.0 0.4038106546
C  C88  1  0.15440000  0.39580000  0.07960000  1.0 0.4441265707
C  C89  1  0.39580000  0.07960000  0.15440000  1.0 0.4441265707
C  C90  1  0.07960000  0.15440000  0.39580000  1.0 0.4441265707
N  N1  1  0.82480000  0.71050000  0.28760000  1.0 -0.4495286781
N  N2  1  0.71050000  0.28760000  0.82480000  1.0 -0.4495286781
N  N3  1  0.28760000  0.82480000  0.71050000  1.0 -0.4495286781
N  N4  1  0.73960000  0.93140000  0.24070000  1.0 -0.4389214545
N  N5  1  0.93140000  0.24070000  0.73960000  1.0 -0.4389214545
N  N6  1  0.24070000  0.73960000  0.93140000  1.0 -0.4389214545
N  N7  1  0.96200000  0.88070000  0.15060000  1.0 -0.4201261257
N  N8  1  0.88070000  0.15060000  0.96200000  1.0 -0.4201261257
N  N9  1  0.15060000  0.96200000  0.88070000  1.0 -0.4201261257
N  N10  1  0.58780000  0.47700000  0.98320000  1.0 -0.4495286781
N  N11  1  0.47700000  0.98320000  0.58780000  1.0 -0.4495286781
N  N12  1  0.98320000  0.58780000  0.47700000  1.0 -0.4495286781
N  N13  1  0.73160000  0.64940000  0.86170000  1.0 -0.4495286781
N  N14  1  0.64940000  0.86170000  0.73160000  1.0 -0.4495286781
N  N15  1  0.86170000  0.73160000  0.64940000  1.0 -0.4495286781
N  N16  1  0.49860000  0.70330000  0.93460000  1.0 -0.4616920357
N  N17  1  0.70330000  0.93460000  0.49860000  1.0 -0.4616920357
N  N18  1  0.93460000  0.49860000  0.70330000  1.0 -0.4616920357
N  N19  1  0.17520000  0.28950000  0.71240000  1.0 -0.4495286781
N  N20  1  0.28950000  0.71240000  0.17520000  1.0 -0.4495286781
N  N21  1  0.71240000  0.17520000  0.28950000  1.0 -0.4495286781
N  N22  1  0.26040000  0.06860000  0.75930000  1.0 -0.4389214545
N  N23  1  0.06860000  0.75930000  0.26040000  1.0 -0.4389214545
N  N24  1  0.75930000  0.26040000  0.06860000  1.0 -0.4389214545
N  N25  1  0.03800000  0.11930000  0.84940000  1.0 -0.4201261257
N  N26  1  0.11930000  0.84940000  0.03800000  1.0 -0.4201261257
N  N27  1  0.84940000  0.03800000  0.11930000  1.0 -0.4201261257
N  N28  1  0.41220000  0.52300000  0.01680000  1.0 -0.4495286781
N  N29  1  0.52300000  0.01680000  0.41220000  1.0 -0.4495286781
N  N30  1  0.01680000  0.41220000  0.52300000  1.0 -0.4495286781
N  N31  1  0.26840000  0.35060000  0.13830000  1.0 -0.4495286781
N  N32  1  0.35060000  0.13830000  0.26840000  1.0 -0.4495286781
N  N33  1  0.13830000  0.26840000  0.35060000  1.0 -0.4495286781
N  N34  1  0.50140000  0.29670000  0.06540000  1.0 -0.4616920357
N  N35  1  0.29670000  0.06540000  0.50140000  1.0 -0.4616920357
N  N36  1  0.06540000  0.50140000  0.29670000  1.0 -0.4616920357
O  O1  1  0.80040000  0.72770000  0.17720000  1.0 -0.6327274596
O  O2  1  0.72770000  0.17720000  0.80040000  1.0 -0.6327274596
O  O3  1  0.17720000  0.80040000  0.72770000  1.0 -0.6327274596
O  O4  1  0.91290000  0.78520000  0.21030000  1.0 -0.4804888323
O  O5  1  0.78520000  0.21030000  0.91290000  1.0 -0.4804888323
O  O6  1  0.21030000  0.91290000  0.78520000  1.0 -0.4804888323
O  O7  1  0.72710000  0.81120000  0.17540000  1.0 -0.6196117555
O  O8  1  0.81120000  0.17540000  0.72710000  1.0 -0.6196117555
O  O9  1  0.17540000  0.72710000  0.81120000  1.0 -0.6196117555
O  O10  1  0.73610000  0.78630000  0.26090000  1.0 -0.4804888323
O  O11  1  0.78630000  0.26090000  0.73610000  1.0 -0.4804888323
O  O12  1  0.26090000  0.73610000  0.78630000  1.0 -0.4804888323
O  O13  1  0.83020000  0.82590000  0.12030000  1.0 -0.6117025482
O  O14  1  0.82590000  0.12030000  0.83020000  1.0 -0.6117025482
O  O15  1  0.12030000  0.83020000  0.82590000  1.0 -0.6117025482
O  O16  1  0.83380000  0.92600000  0.17260000  1.0 -0.4900408193
O  O17  1  0.92600000  0.17260000  0.83380000  1.0 -0.4900408193
O  O18  1  0.17260000  0.83380000  0.92600000  1.0 -0.4900408193
O  O19  1  0.67210000  0.60060000  0.01140000  1.0 -0.6117025482
O  O20  1  0.60060000  0.01140000  0.67210000  1.0 -0.6117025482
O  O21  1  0.01140000  0.67210000  0.60060000  1.0 -0.6117025482
O  O22  1  0.70040000  0.56180000  0.92980000  1.0 -0.5112448091
O  O23  1  0.56180000  0.92980000  0.70040000  1.0 -0.5112448091
O  O24  1  0.92980000  0.70040000  0.56180000  1.0 -0.5112448091
O  O25  1  0.70330000  0.70290000  0.96220000  1.0 -0.6196117555
O  O26  1  0.70290000  0.96220000  0.70330000  1.0 -0.6196117555
O  O27  1  0.96220000  0.70330000  0.70290000  1.0 -0.6196117555
O  O28  1  0.62220000  0.72230000  0.90390000  1.0 -0.4900408193
O  O29  1  0.72230000  0.90390000  0.62220000  1.0 -0.4900408193
O  O30  1  0.90390000  0.62220000  0.72230000  1.0 -0.4900408193
O  O31  1  0.60067000  0.68900000  0.01303000  1.0 -0.5939816986
O  O32  1  0.68900000  0.01303000  0.60067000  1.0 -0.5939816986
O  O33  1  0.01303000  0.60067000  0.68900000  1.0 -0.5939816986
O  O34  1  0.53320000  0.58250000  0.98360000  1.0 -0.4715476736
O  O35  1  0.58250000  0.98360000  0.53320000  1.0 -0.4715476736
O  O36  1  0.98360000  0.53320000  0.58250000  1.0 -0.4715476736
O  O37  1  0.72870000  0.70140000  0.34300000  1.0 -0.6196117555
O  O38  1  0.70140000  0.34300000  0.72870000  1.0 -0.6196117555
O  O39  1  0.34300000  0.72870000  0.70140000  1.0 -0.6196117555
O  O40  1  0.66940000  0.63350000  0.22810000  1.0 -0.4715476736
O  O41  1  0.63350000  0.22810000  0.66940000  1.0 -0.4715476736
O  O42  1  0.22810000  0.66940000  0.63350000  1.0 -0.4715476736
O  O43  1  0.52700000  0.80740000  0.88820000  1.0 -0.5564281299
O  O44  1  0.80740000  0.88820000  0.52700000  1.0 -0.5564281299
O  O45  1  0.88820000  0.52700000  0.80740000  1.0 -0.5564281299
O  O46  1  0.60100000  0.85040000  0.99500000  1.0 -0.4042458787
O  O47  1  0.85040000  0.99500000  0.60100000  1.0 -0.4042458787
O  O48  1  0.99500000  0.60100000  0.85040000  1.0 -0.4042458787
O  O49  1  0.79690000  0.56240000  0.85940000  1.0 -0.5741239741
O  O50  1  0.56240000  0.85940000  0.79690000  1.0 -0.5741239741
O  O51  1  0.85940000  0.79690000  0.56240000  1.0 -0.5741239741
O  O52  1  0.84990000  0.65310000  0.96320000  1.0 -0.4201261257
O  O53  1  0.65310000  0.96320000  0.84990000  1.0 -0.4201261257
O  O54  1  0.96320000  0.84990000  0.65310000  1.0 -0.4201261257
O  O55  1  0.66512000  0.66432000  0.12236000  1.0 -0.8951304311
O  O56  1  0.66432000  0.12236000  0.66512000  1.0 -0.8951304311
O  O57  1  0.12236000  0.66512000  0.66432000  1.0 -0.8945249672
O  O58  1  0.69664000  0.81440000  0.05596000  1.0 -0.8675791477
O  O59  1  0.81440000  0.05596000  0.69664000  1.0 -0.8675791477
O  O60  1  0.05596000  0.69664000  0.81440000  1.0 -0.8675791477
O  O61  1  0.80510000  0.70010000  0.05340000  1.0 -0.8791382168
O  O62  1  0.70010000  0.05340000  0.80510000  1.0 -0.8791382168
O  O63  1  0.05340000  0.80510000  0.70010000  1.0 -0.8791382168
O  O64  1  0.70950000  0.94810000  0.11490000  1.0 -0.4288774882
O  O65  1  0.94810000  0.11490000  0.70950000  1.0 -0.4288774882
O  O66  1  0.11490000  0.70950000  0.94810000  1.0 -0.4288774882
O  O67  1  0.94250000  0.73910000  0.08880000  1.0 -0.4201261257
O  O68  1  0.73910000  0.08880000  0.94250000  1.0 -0.4201261257
O  O69  1  0.08880000  0.94250000  0.73910000  1.0 -0.4288774882
O  O70  1  0.56820000  0.54100000  0.10050000  1.0 -0.4389214545
O  O71  1  0.54100000  0.10050000  0.56820000  1.0 -0.4389214545
O  O72  1  0.10050000  0.56820000  0.54100000  1.0 -0.4389214545
O  O73  1  0.73060000  0.78490000  0.54650000  1.0 -0.1771318608
O  O74  1  0.78490000  0.54650000  0.73060000  1.0 -0.1771318608
O  O75  1  0.54650000  0.73060000  0.78490000  1.0 -0.1771318608
O  O76  1  0.75580000  0.83160000  0.38880000  1.0 -0.172079179
O  O77  1  0.83160000  0.38880000  0.75580000  1.0 -0.172079179
O  O78  1  0.38880000  0.75580000  0.83160000  1.0 -0.172079179
O  O79  1  0.87680000  0.82690000  0.45010000  1.0 -0.6428359304
O  O80  1  0.82690000  0.45010000  0.87680000  1.0 -0.6428359304
O  O81  1  0.45010000  0.87680000  0.82690000  1.0 -0.6428359304
O  O82  1  0.82650000  0.69480000  0.44500000  1.0 -0.2443969056
O  O83  1  0.69480000  0.44500000  0.82650000  1.0 -0.246591638
O  O84  1  0.44500000  0.82650000  0.69480000  1.0 -0.246591638
O  O85  1  0.70440000  0.66090000  0.44800000  1.0 -0.6041783447
O  O86  1  0.66090000  0.44800000  0.70440000  1.0 -0.6041783447
O  O87  1  0.44800000  0.70440000  0.66090000  1.0 -0.6117025482
O  O88  1  0.65720000  0.75580000  0.41320000  1.0 -0.6534068818
O  O89  1  0.75580000  0.41320000  0.65720000  1.0 -0.6534068818
O  O90  1  0.41320000  0.65720000  0.75580000  1.0 -0.6534068818
O  O91  1  0.19960000  0.27230000  0.82280000  1.0 -0.6327274596
O  O92  1  0.27230000  0.82280000  0.19960000  1.0 -0.6327274596
O  O93  1  0.82280000  0.19960000  0.27230000  1.0 -0.6327274596
O  O94  1  0.08710000  0.21480000  0.78970000  1.0 -0.4804888323
O  O95  1  0.21480000  0.78970000  0.08710000  1.0 -0.4804888323
O  O96  1  0.78970000  0.08710000  0.21480000  1.0 -0.4804888323
O  O97  1  0.27290000  0.18880000  0.82460000  1.0 -0.6196117555
O  O98  1  0.18880000  0.82460000  0.27290000  1.0 -0.6196117555
O  O99  1  0.82460000  0.27290000  0.18880000  1.0 -0.6196117555
O  O100  1  0.26390000  0.21370000  0.73910000  1.0 -0.4804888323
O  O101  1  0.21370000  0.73910000  0.26390000  1.0 -0.4804888323
O  O102  1  0.73910000  0.26390000  0.21370000  1.0 -0.4804888323
O  O103  1  0.16980000  0.17410000  0.87970000  1.0 -0.6117025482
O  O104  1  0.17410000  0.87970000  0.16980000  1.0 -0.6117025482
O  O105  1  0.87970000  0.16980000  0.17410000  1.0 -0.6117025482
O  O106  1  0.16620000  0.07400000  0.82740000  1.0 -0.4900408193
O  O107  1  0.07400000  0.82740000  0.16620000  1.0 -0.4900408193
O  O108  1  0.82740000  0.16620000  0.07400000  1.0 -0.4900408193
O  O109  1  0.32790000  0.39940000  0.98860000  1.0 -0.6117025482
O  O110  1  0.39940000  0.98860000  0.32790000  1.0 -0.6117025482
O  O111  1  0.98860000  0.32790000  0.39940000  1.0 -0.6117025482
O  O112  1  0.29960000  0.43820000  0.07020000  1.0 -0.5112448091
O  O113  1  0.43820000  0.07020000  0.29960000  1.0 -0.5112448091
O  O114  1  0.07020000  0.29960000  0.43820000  1.0 -0.5112448091
O  O115  1  0.29670000  0.29710000  0.03780000  1.0 -0.6196117555
O  O116  1  0.29710000  0.03780000  0.29670000  1.0 -0.6196117555
O  O117  1  0.03780000  0.29670000  0.29710000  1.0 -0.6196117555
O  O118  1  0.37780000  0.27770000  0.09610000  1.0 -0.4900408193
O  O119  1  0.27770000  0.09610000  0.37780000  1.0 -0.4900408193
O  O120  1  0.09610000  0.37780000  0.27770000  1.0 -0.4900408193
O  O121  1  0.39933000  0.31100000  0.98697000  1.0 -0.5939816986
O  O122  1  0.31100000  0.98697000  0.39933000  1.0 -0.5939816986
O  O123  1  0.98697000  0.39933000  0.31100000  1.0 -0.5939816986
O  O124  1  0.46680000  0.41750000  0.01640000  1.0 -0.4715476736
O  O125  1  0.41750000  0.01640000  0.46680000  1.0 -0.4715476736
O  O126  1  0.01640000  0.46680000  0.41750000  1.0 -0.4715476736
O  O127  1  0.27130000  0.29860000  0.65700000  1.0 -0.6196117555
O  O128  1  0.29860000  0.65700000  0.27130000  1.0 -0.6196117555
O  O129  1  0.65700000  0.27130000  0.29860000  1.0 -0.6196117555
O  O130  1  0.33060000  0.36650000  0.77190000  1.0 -0.4715476736
O  O131  1  0.36650000  0.77190000  0.33060000  1.0 -0.4715476736
O  O132  1  0.77190000  0.33060000  0.36650000  1.0 -0.4715476736
O  O133  1  0.47300000  0.19260000  0.11180000  1.0 -0.5564281299
O  O134  1  0.19260000  0.11180000  0.47300000  1.0 -0.5564281299
O  O135  1  0.11180000  0.47300000  0.19260000  1.0 -0.5564281299
O  O136  1  0.39900000  0.14960000  0.00500000  1.0 -0.4042458787
O  O137  1  0.14960000  0.00500000  0.39900000  1.0 -0.4042458787
O  O138  1  0.00500000  0.39900000  0.14960000  1.0 -0.4042458787
O  O139  1  0.20310000  0.43760000  0.14060000  1.0 -0.5741239741
O  O140  1  0.43760000  0.14060000  0.20310000  1.0 -0.5741239741
O  O141  1  0.14060000  0.20310000  0.43760000  1.0 -0.5741239741
O  O142  1  0.15010000  0.34690000  0.03680000  1.0 -0.4201261257
O  O143  1  0.34690000  0.03680000  0.15010000  1.0 -0.4201261257
O  O144  1  0.03680000  0.15010000  0.34690000  1.0 -0.4201261257
O  O145  1  0.33488000  0.33568000  0.87764000  1.0 -0.8951304311
O  O146  1  0.33568000  0.87764000  0.33488000  1.0 -0.8945249672
O  O147  1  0.87764000  0.33488000  0.33568000  1.0 -0.8951304311
O  O148  1  0.30336000  0.18560000  0.94404000  1.0 -0.8675791477
O  O149  1  0.18560000  0.94404000  0.30336000  1.0 -0.8675791477
O  O150  1  0.94404000  0.30336000  0.18560000  1.0 -0.8675791477
O  O151  1  0.19490000  0.29990000  0.94660000  1.0 -0.8791382168
O  O152  1  0.29990000  0.94660000  0.19490000  1.0 -0.8791382168
O  O153  1  0.94660000  0.19490000  0.29990000  1.0 -0.8791382168
O  O154  1  0.29050000  0.05190000  0.88510000  1.0 -0.4288774882
O  O155  1  0.05190000  0.88510000  0.29050000  1.0 -0.4288774882
O  O156  1  0.88510000  0.29050000  0.05190000  1.0 -0.4288774882
O  O157  1  0.05750000  0.26090000  0.91120000  1.0 -0.4288774882
O  O158  1  0.26090000  0.91120000  0.05750000  1.0 -0.4288774882
O  O159  1  0.91120000  0.05750000  0.26090000  1.0 -0.4201261257
O  O160  1  0.43180000  0.45900000  0.89950000  1.0 -0.4389214545
O  O161  1  0.45900000  0.89950000  0.43180000  1.0 -0.4389214545
O  O162  1  0.89950000  0.43180000  0.45900000  1.0 -0.4389214545
O  O163  1  0.26940000  0.21510000  0.45350000  1.0 -0.1771318608
O  O164  1  0.21510000  0.45350000  0.26940000  1.0 -0.1771318608
O  O165  1  0.45350000  0.26940000  0.21510000  1.0 -0.172079179
O  O166  1  0.24420000  0.16840000  0.61120000  1.0 -0.172079179
O  O167  1  0.16840000  0.61120000  0.24420000  1.0 -0.172079179
O  O168  1  0.61120000  0.24420000  0.16840000  1.0 -0.172079179
O  O169  1  0.12320000  0.17310000  0.54990000  1.0 -0.6428359304
O  O170  1  0.17310000  0.54990000  0.12320000  1.0 -0.6428359304
O  O171  1  0.54990000  0.12320000  0.17310000  1.0 -0.6428359304
O  O172  1  0.17350000  0.30520000  0.55500000  1.0 -0.246591638
O  O173  1  0.30520000  0.55500000  0.17350000  1.0 -0.2443969056
O  O174  1  0.55500000  0.17350000  0.30520000  1.0 -0.2443969056
O  O175  1  0.29560000  0.33910000  0.55200000  1.0 -0.6117025482
O  O176  1  0.33910000  0.55200000  0.29560000  1.0 -0.6117025482
O  O177  1  0.55200000  0.29560000  0.33910000  1.0 -0.6117025482
O  O178  1  0.34280000  0.24420000  0.58680000  1.0 -0.6534068818
O  O179  1  0.24420000  0.58680000  0.34280000  1.0 -0.6552742476
O  O180  1  0.58680000  0.34280000  0.24420000  1.0 -0.6534068818
