# DDEC6 charges by PACMAN v1.1 (https://github.com/mtap-research/PACMAN-charge/)
data_KINROQ_FSR_pacman
_symmetry_space_group_name_H-M   'P 1'
_cell_length_a   23.39340000
_cell_length_b   23.39340000
_cell_length_c   23.39340000
_cell_angle_alpha   108.63000000
_cell_angle_beta   108.63000000
_cell_angle_gamma   108.63000000
_symmetry_Int_Tables_number   1
_chemical_formula_structural   Tb2Cu6H27C15(NO5)6
_chemical_formula_sum   'Tb12 Cu36 H162 C90 N36 O180'
_cell_volume   10150.37070561
_cell_formula_units_Z   6
loop_
 _symmetry_equiv_pos_site_id
 _symmetry_equiv_pos_as_xyz
  1  'x, y, z'
loop_
 _atom_site_type_symbol
 _atom_site_label
 _atom_site_symmetry_multiplicity
 _atom_site_fract_x
 _atom_site_fract_y
 _atom_site_fract_z
 _atom_site_occupancy
 _atom_site_charge
Tb  Tb1  1  0.77835000  0.77404000  0.42310000  1.0 2.1126427928
Tb  Tb2  1  0.77404000  0.42310000  0.77835000  1.0 2.1126427928
Tb  Tb3  1  0.42310000  0.77835000  0.77404000  1.0 2.1126427928
Tb  Tb4  1  0.72846000  0.72948000  0.04110000  1.0 2.021820573
Tb  Tb5  1  0.72948000  0.04110000  0.72846000  1.0 2.021820573
Tb  Tb6  1  0.04110000  0.72846000  0.72948000  1.0 2.021820573
Tb  Tb7  1  0.22165000  0.22596000  0.57690000  1.0 2.1126427928
Tb  Tb8  1  0.22596000  0.57690000  0.22165000  1.0 2.1126427928
Tb  Tb9  1  0.57690000  0.22165000  0.22596000  1.0 2.1126427928
Tb  Tb10  1  0.27154000  0.27052000  0.95890000  1.0 2.021820573
Tb  Tb11  1  0.27052000  0.95890000  0.27154000  1.0 2.021820573
Tb  Tb12  1  0.95890000  0.27154000  0.27052000  1.0 2.021820573
Cu  Cu1  1  0.76321000  0.81583000  0.29079000  1.0 0.9176828345
Cu  Cu2  1  0.81583000  0.29079000  0.76321000  1.0 0.9176828345
Cu  Cu3  1  0.29079000  0.76321000  0.81583000  1.0 0.9176828345
Cu  Cu4  1  0.77973000  0.61874000  0.35325000  1.0 0.9559211016
Cu  Cu5  1  0.61874000  0.35325000  0.77973000  1.0 0.9559211016
Cu  Cu6  1  0.35325000  0.77973000  0.61874000  1.0 0.9559211016
Cu  Cu7  1  0.61053000  0.71377000  0.39232000  1.0 0.9412063638
Cu  Cu8  1  0.71377000  0.39232000  0.61053000  1.0 0.9412063638
Cu  Cu9  1  0.39232000  0.61053000  0.71377000  1.0 0.9412063638
Cu  Cu10  1  0.88062000  0.93166000  0.44524000  1.0 0.9412063638
Cu  Cu11  1  0.93166000  0.44524000  0.88062000  1.0 0.9412063638
Cu  Cu12  1  0.44524000  0.88062000  0.93166000  1.0 0.9412063638
Cu  Cu13  1  0.90102000  0.73431000  0.50795000  1.0 0.8974226395
Cu  Cu14  1  0.73431000  0.50795000  0.90102000  1.0 0.8974226395
Cu  Cu15  1  0.50795000  0.90102000  0.73431000  1.0 0.8974226395
Cu  Cu16  1  0.72802000  0.82909000  0.54492000  1.0 0.8974226395
Cu  Cu17  1  0.82909000  0.54492000  0.72802000  1.0 0.8974226395
Cu  Cu18  1  0.54492000  0.72802000  0.82909000  1.0 0.8974226395
Cu  Cu19  1  0.23679000  0.18417000  0.70921000  1.0 0.9176828345
Cu  Cu20  1  0.18417000  0.70921000  0.23679000  1.0 0.9176828345
Cu  Cu21  1  0.70921000  0.23679000  0.18417000  1.0 0.9176828345
Cu  Cu22  1  0.22027000  0.38126000  0.64675000  1.0 0.9559211016
Cu  Cu23  1  0.38126000  0.64675000  0.22027000  1.0 0.9559211016
Cu  Cu24  1  0.64675000  0.22027000  0.38126000  1.0 0.9559211016
Cu  Cu25  1  0.38947000  0.28623000  0.60768000  1.0 0.9412063638
Cu  Cu26  1  0.28623000  0.60768000  0.38947000  1.0 0.9412063638
Cu  Cu27  1  0.60768000  0.38947000  0.28623000  1.0 0.9412063638
Cu  Cu28  1  0.11938000  0.06834000  0.55476000  1.0 0.9412063638
Cu  Cu29  1  0.06834000  0.55476000  0.11938000  1.0 0.9412063638
Cu  Cu30  1  0.55476000  0.11938000  0.06834000  1.0 0.9412063638
Cu  Cu31  1  0.09898000  0.26569000  0.49205000  1.0 0.8974226395
Cu  Cu32  1  0.26569000  0.49205000  0.09898000  1.0 0.8974226395
Cu  Cu33  1  0.49205000  0.09898000  0.26569000  1.0 0.8974226395
Cu  Cu34  1  0.27198000  0.17091000  0.45508000  1.0 0.8974226395
Cu  Cu35  1  0.17091000  0.45508000  0.27198000  1.0 0.8974226395
Cu  Cu36  1  0.45508000  0.27198000  0.17091000  1.0 0.8974226395
H  H1  1  0.67900000  0.82940000  0.21140000  1.0 0.2795381911
H  H2  1  0.82940000  0.21140000  0.67900000  1.0 0.2795381911
H  H3  1  0.21140000  0.67900000  0.82940000  1.0 0.2795381911
H  H4  1  0.67540000  0.76430000  0.17390000  1.0 0.2983688245
H  H5  1  0.76430000  0.17390000  0.67540000  1.0 0.2983688245
H  H6  1  0.17390000  0.67540000  0.76430000  1.0 0.2983688245
H  H7  1  0.79150000  0.55140000  0.25870000  1.0 0.259750437
H  H8  1  0.55140000  0.25870000  0.79150000  1.0 0.259750437
H  H9  1  0.25870000  0.79150000  0.55140000  1.0 0.259750437
H  H10  1  0.71880000  0.52980000  0.23540000  1.0 0.2900414645
H  H11  1  0.52980000  0.23540000  0.71880000  1.0 0.2900414645
H  H12  1  0.23540000  0.71880000  0.52980000  1.0 0.2900414645
H  H13  1  0.52830000  0.60860000  0.37770000  1.0 0.259750437
H  H14  1  0.60860000  0.37770000  0.52830000  1.0 0.259750437
H  H15  1  0.37770000  0.52830000  0.60860000  1.0 0.259750437
H  H16  1  0.49930000  0.61420000  0.31560000  1.0 0.2795381911
H  H17  1  0.61420000  0.31560000  0.49930000  1.0 0.2795381911
H  H18  1  0.31560000  0.49930000  0.61420000  1.0 0.2795381911
H  H19  1  0.95900000  0.04520000  0.54030000  1.0 0.2795381911
H  H20  1  0.04520000  0.54030000  0.95900000  1.0 0.2795381911
H  H21  1  0.54030000  0.95900000  0.04520000  1.0 0.2795381911
H  H22  1  0.89940000  0.04800000  0.49870000  1.0 0.259750437
H  H23  1  0.04800000  0.49870000  0.89940000  1.0 0.259750437
H  H24  1  0.49870000  0.89940000  0.04800000  1.0 0.259750437
H  H25  1  0.01130000  0.79880000  0.60750000  1.0 0.2900414645
H  H26  1  0.79880000  0.60750000  0.01130000  1.0 0.2900414645
H  H27  1  0.60750000  0.01130000  0.79880000  1.0 0.2900414645
H  H28  1  0.02210000  0.77940000  0.54770000  1.0 0.2706313809
H  H29  1  0.77940000  0.54770000  0.02210000  1.0 0.2706313809
H  H30  1  0.54770000  0.02210000  0.77940000  1.0 0.2706313809
H  H31  1  0.79330000  0.89300000  0.66770000  1.0 0.2983688245
H  H32  1  0.89300000  0.66770000  0.79330000  1.0 0.2983688245
H  H33  1  0.66770000  0.79330000  0.89300000  1.0 0.2983688245
H  H34  1  0.73880000  0.82860000  0.65070000  1.0 0.2795381911
H  H35  1  0.82860000  0.65070000  0.73880000  1.0 0.2795381911
H  H36  1  0.65070000  0.73880000  0.82860000  1.0 0.2795381911
H  H37  1  0.72350000  0.58580000  0.18220000  1.0 0.1364158347
H  H38  1  0.58580000  0.18220000  0.72350000  1.0 0.1364158347
H  H39  1  0.18220000  0.72350000  0.58580000  1.0 0.1364158347
H  H40  1  0.80330000  0.61960000  0.21920000  1.0 0.1271663029
H  H41  1  0.61960000  0.21920000  0.80330000  1.0 0.1271663029
H  H42  1  0.21920000  0.80330000  0.61960000  1.0 0.1271663029
H  H43  1  0.86700000  0.04890000  0.57010000  1.0 0.1271663029
H  H44  1  0.04890000  0.57010000  0.86700000  1.0 0.1271663029
H  H45  1  0.57010000  0.86700000  0.04890000  1.0 0.1271663029
H  H46  1  0.92350000  0.03230000  0.60670000  1.0 0.1364158347
H  H47  1  0.03230000  0.60670000  0.92350000  1.0 0.1364158347
H  H48  1  0.60670000  0.92350000  0.03230000  1.0 0.1364158347
H  H49  1  0.05400000  0.87820000  0.56400000  1.0 0.1271663029
H  H50  1  0.87820000  0.56400000  0.05400000  1.0 0.1271663029
H  H51  1  0.56400000  0.05400000  0.87820000  1.0 0.1271663029
H  H52  1  0.02710000  0.89360000  0.61750000  1.0 0.1486071577
H  H53  1  0.89360000  0.61750000  0.02710000  1.0 0.1486071577
H  H54  1  0.61750000  0.02710000  0.89360000  1.0 0.1486071577
H  H55  1  0.80080000  0.78190000  0.65940000  1.0 0.1271663029
H  H56  1  0.78190000  0.65940000  0.80080000  1.0 0.1271663029
H  H57  1  0.65940000  0.80080000  0.78190000  1.0 0.1271663029
H  H58  1  0.86170000  0.85500000  0.69160000  1.0 0.1271663029
H  H59  1  0.85500000  0.69160000  0.86170000  1.0 0.1271663029
H  H60  1  0.69160000  0.86170000  0.85500000  1.0 0.1271663029
H  H61  1  0.86280000  0.87050000  0.20520000  1.0 0.0878609871
H  H62  1  0.87050000  0.20520000  0.86280000  1.0 0.0878609871
H  H63  1  0.20520000  0.86280000  0.87050000  1.0 0.0878609871
H  H64  1  0.93640000  0.60560000  0.54620000  1.0 0.1144406378
H  H65  1  0.60560000  0.54620000  0.93640000  1.0 0.1144406378
H  H66  1  0.54620000  0.93640000  0.60560000  1.0 0.1144406378
H  H67  1  0.61780000  0.90720000  0.56830000  1.0 0.0878609871
H  H68  1  0.90720000  0.56830000  0.61780000  1.0 0.0878609871
H  H69  1  0.56830000  0.61780000  0.90720000  1.0 0.0878609871
H  H70  1  0.53980000  0.56160000  0.26590000  1.0 0.1486071577
H  H71  1  0.56160000  0.26590000  0.53980000  1.0 0.1486071577
H  H72  1  0.26590000  0.53980000  0.56160000  1.0 0.1486071577
H  H73  1  0.54660000  0.53500000  0.31990000  1.0 0.1271663029
H  H74  1  0.53500000  0.31990000  0.54660000  1.0 0.1271663029
H  H75  1  0.31990000  0.54660000  0.53500000  1.0 0.1271663029
H  H76  1  0.58880000  0.71120000  0.17950000  1.0 0.1486071577
H  H77  1  0.71120000  0.17950000  0.58880000  1.0 0.1486071577
H  H78  1  0.17950000  0.58880000  0.71120000  1.0 0.1486071577
H  H79  1  0.59290000  0.78140000  0.22010000  1.0 0.1271663029
H  H80  1  0.78140000  0.22010000  0.59290000  1.0 0.1271663029
H  H81  1  0.22010000  0.59290000  0.78140000  1.0 0.1271663029
H  H82  1  0.32100000  0.17060000  0.78860000  1.0 0.2795381911
H  H83  1  0.17060000  0.78860000  0.32100000  1.0 0.2795381911
H  H84  1  0.78860000  0.32100000  0.17060000  1.0 0.2795381911
H  H85  1  0.32460000  0.23570000  0.82610000  1.0 0.2983688245
H  H86  1  0.23570000  0.82610000  0.32460000  1.0 0.2983688245
H  H87  1  0.82610000  0.32460000  0.23570000  1.0 0.2983688245
H  H88  1  0.20850000  0.44860000  0.74130000  1.0 0.259750437
H  H89  1  0.44860000  0.74130000  0.20850000  1.0 0.259750437
H  H90  1  0.74130000  0.20850000  0.44860000  1.0 0.259750437
H  H91  1  0.28120000  0.47020000  0.76460000  1.0 0.2900414645
H  H92  1  0.47020000  0.76460000  0.28120000  1.0 0.2900414645
H  H93  1  0.76460000  0.28120000  0.47020000  1.0 0.2900414645
H  H94  1  0.47170000  0.39140000  0.62230000  1.0 0.259750437
H  H95  1  0.39140000  0.62230000  0.47170000  1.0 0.259750437
H  H96  1  0.62230000  0.47170000  0.39140000  1.0 0.259750437
H  H97  1  0.50070000  0.38580000  0.68440000  1.0 0.2795381911
H  H98  1  0.38580000  0.68440000  0.50070000  1.0 0.2795381911
H  H99  1  0.68440000  0.50070000  0.38580000  1.0 0.2795381911
H  H100  1  0.04100000  0.95480000  0.45970000  1.0 0.2795381911
H  H101  1  0.95480000  0.45970000  0.04100000  1.0 0.2795381911
H  H102  1  0.45970000  0.04100000  0.95480000  1.0 0.2795381911
H  H103  1  0.10060000  0.95200000  0.50130000  1.0 0.259750437
H  H104  1  0.95200000  0.50130000  0.10060000  1.0 0.259750437
H  H105  1  0.50130000  0.10060000  0.95200000  1.0 0.259750437
H  H106  1  0.98870000  0.20120000  0.39250000  1.0 0.2900414645
H  H107  1  0.20120000  0.39250000  0.98870000  1.0 0.2900414645
H  H108  1  0.39250000  0.98870000  0.20120000  1.0 0.2900414645
H  H109  1  0.97790000  0.22060000  0.45230000  1.0 0.2706313809
H  H110  1  0.22060000  0.45230000  0.97790000  1.0 0.2706313809
H  H111  1  0.45230000  0.97790000  0.22060000  1.0 0.2706313809
H  H112  1  0.20670000  0.10700000  0.33230000  1.0 0.2983688245
H  H113  1  0.10700000  0.33230000  0.20670000  1.0 0.2983688245
H  H114  1  0.33230000  0.20670000  0.10700000  1.0 0.2983688245
H  H115  1  0.26120000  0.17140000  0.34930000  1.0 0.2795381911
H  H116  1  0.17140000  0.34930000  0.26120000  1.0 0.2795381911
H  H117  1  0.34930000  0.26120000  0.17140000  1.0 0.2795381911
H  H118  1  0.27650000  0.41420000  0.81780000  1.0 0.1364158347
H  H119  1  0.41420000  0.81780000  0.27650000  1.0 0.1364158347
H  H120  1  0.81780000  0.27650000  0.41420000  1.0 0.1364158347
H  H121  1  0.19670000  0.38040000  0.78080000  1.0 0.1271663029
H  H122  1  0.38040000  0.78080000  0.19670000  1.0 0.1271663029
H  H123  1  0.78080000  0.19670000  0.38040000  1.0 0.1271663029
H  H124  1  0.13300000  0.95110000  0.42990000  1.0 0.1271663029
H  H125  1  0.95110000  0.42990000  0.13300000  1.0 0.1271663029
H  H126  1  0.42990000  0.13300000  0.95110000  1.0 0.1271663029
H  H127  1  0.07650000  0.96770000  0.39330000  1.0 0.1364158347
H  H128  1  0.96770000  0.39330000  0.07650000  1.0 0.1364158347
H  H129  1  0.39330000  0.07650000  0.96770000  1.0 0.1364158347
H  H130  1  0.94600000  0.12180000  0.43600000  1.0 0.1271663029
H  H131  1  0.12180000  0.43600000  0.94600000  1.0 0.1271663029
H  H132  1  0.43600000  0.94600000  0.12180000  1.0 0.1271663029
H  H133  1  0.97290000  0.10640000  0.38250000  1.0 0.1486071577
H  H134  1  0.10640000  0.38250000  0.97290000  1.0 0.1486071577
H  H135  1  0.38250000  0.97290000  0.10640000  1.0 0.1486071577
H  H136  1  0.19920000  0.21810000  0.34060000  1.0 0.1271663029
H  H137  1  0.21810000  0.34060000  0.19920000  1.0 0.1271663029
H  H138  1  0.34060000  0.19920000  0.21810000  1.0 0.1271663029
H  H139  1  0.13830000  0.14500000  0.30840000  1.0 0.1271663029
H  H140  1  0.14500000  0.30840000  0.13830000  1.0 0.1271663029
H  H141  1  0.30840000  0.13830000  0.14500000  1.0 0.1271663029
H  H142  1  0.13720000  0.12950000  0.79480000  1.0 0.0878609871
H  H143  1  0.12950000  0.79480000  0.13720000  1.0 0.0878609871
H  H144  1  0.79480000  0.13720000  0.12950000  1.0 0.0878609871
H  H145  1  0.06360000  0.39440000  0.45380000  1.0 0.1144406378
H  H146  1  0.39440000  0.45380000  0.06360000  1.0 0.1144406378
H  H147  1  0.45380000  0.06360000  0.39440000  1.0 0.1144406378
H  H148  1  0.38220000  0.09280000  0.43170000  1.0 0.0878609871
H  H149  1  0.09280000  0.43170000  0.38220000  1.0 0.0878609871
H  H150  1  0.43170000  0.38220000  0.09280000  1.0 0.0878609871
H  H151  1  0.46020000  0.43840000  0.73410000  1.0 0.1486071577
H  H152  1  0.43840000  0.73410000  0.46020000  1.0 0.1486071577
H  H153  1  0.73410000  0.46020000  0.43840000  1.0 0.1486071577
H  H154  1  0.45340000  0.46500000  0.68010000  1.0 0.1271663029
H  H155  1  0.46500000  0.68010000  0.45340000  1.0 0.1271663029
H  H156  1  0.68010000  0.45340000  0.46500000  1.0 0.1271663029
H  H157  1  0.41120000  0.28880000  0.82050000  1.0 0.1486071577
H  H158  1  0.28880000  0.82050000  0.41120000  1.0 0.1486071577
H  H159  1  0.82050000  0.41120000  0.28880000  1.0 0.1486071577
H  H160  1  0.40710000  0.21860000  0.77990000  1.0 0.1271663029
H  H161  1  0.21860000  0.77990000  0.40710000  1.0 0.1271663029
H  H162  1  0.77990000  0.40710000  0.21860000  1.0 0.1271663029
C  C1  1  0.63700000  0.74750000  0.28130000  1.0 0.6199377581
C  C2  1  0.74750000  0.28130000  0.63700000  1.0 0.6199377581
C  C3  1  0.28130000  0.63700000  0.74750000  1.0 0.6199377581
C  C4  1  0.76360000  0.61020000  0.22660000  1.0 -0.216418914
C  C5  1  0.61020000  0.22660000  0.76360000  1.0 -0.216418914
C  C6  1  0.22660000  0.76360000  0.61020000  1.0 -0.216418914
C  C7  1  0.76720000  0.67520000  0.26600000  1.0 0.6199377581
C  C8  1  0.67520000  0.26600000  0.76720000  1.0 0.6199377581
C  C9  1  0.26600000  0.76720000  0.67520000  1.0 0.6199377581
C  C10  1  0.64050000  0.60990000  0.34310000  1.0 0.6038324813
C  C11  1  0.60990000  0.34310000  0.64050000  1.0 0.6038324813
C  C12  1  0.34310000  0.64050000  0.60990000  1.0 0.6038324813
C  C13  1  0.88630000  0.01790000  0.56290000  1.0 -0.1876324998
C  C14  1  0.01790000  0.56290000  0.88630000  1.0 -0.1876324998
C  C15  1  0.56290000  0.88630000  0.01790000  1.0 -0.1876324998
C  C16  1  0.83240000  0.94720000  0.53870000  1.0 0.6199377581
C  C17  1  0.94720000  0.53870000  0.83240000  1.0 0.6199377581
C  C18  1  0.53870000  0.83240000  0.94720000  1.0 0.6199377581
C  C19  1  0.01450000  0.86240000  0.57130000  1.0 -0.1876324998
C  C20  1  0.86240000  0.57130000  0.01450000  1.0 -0.1876324998
C  C21  1  0.57130000  0.01450000  0.86240000  1.0 -0.1876324998
C  C22  1  0.95750000  0.86550000  0.52200000  1.0 0.6129177093
C  C23  1  0.86550000  0.52200000  0.95750000  1.0 0.6129177093
C  C24  1  0.52200000  0.95750000  0.86550000  1.0 0.6129177093
C  C25  1  0.81900000  0.82010000  0.65100000  1.0 -0.1876324998
C  C26  1  0.82010000  0.65100000  0.81900000  1.0 -0.1876324998
C  C27  1  0.65100000  0.81900000  0.82010000  1.0 -0.1876324998
C  C28  1  0.83360000  0.79610000  0.59110000  1.0 0.6199377581
C  C29  1  0.79610000  0.59110000  0.83360000  1.0 0.6199377581
C  C30  1  0.59110000  0.83360000  0.79610000  1.0 0.6199377581
C  C31  1  0.82530000  0.84780000  0.20990000  1.0 0.47770723
C  C32  1  0.84780000  0.20990000  0.82530000  1.0 0.47770723
C  C33  1  0.20990000  0.82530000  0.84780000  1.0 0.47770723
C  C34  1  0.93670000  0.64720000  0.55410000  1.0 0.4227420718
C  C35  1  0.64720000  0.55410000  0.93670000  1.0 0.4227420718
C  C36  1  0.55410000  0.93670000  0.64720000  1.0 0.4227420718
C  C37  1  0.65460000  0.89820000  0.58100000  1.0 0.449968336
C  C38  1  0.89820000  0.58100000  0.65460000  1.0 0.449968336
C  C39  1  0.58100000  0.65460000  0.89820000  1.0 0.449968336
C  C40  1  0.56120000  0.57570000  0.31440000  1.0 -0.1760187119
C  C41  1  0.57570000  0.31440000  0.56120000  1.0 -0.1760187119
C  C42  1  0.31440000  0.56120000  0.57570000  1.0 -0.1760187119
C  C43  1  0.61830000  0.75590000  0.21930000  1.0 -0.210974822
C  C44  1  0.75590000  0.21930000  0.61830000  1.0 -0.210974822
C  C45  1  0.21930000  0.61830000  0.75590000  1.0 -0.210974822
C  C46  1  0.36300000  0.25250000  0.71870000  1.0 0.6199377581
C  C47  1  0.25250000  0.71870000  0.36300000  1.0 0.6199377581
C  C48  1  0.71870000  0.36300000  0.25250000  1.0 0.6199377581
C  C49  1  0.23640000  0.38980000  0.77340000  1.0 -0.216418914
C  C50  1  0.38980000  0.77340000  0.23640000  1.0 -0.216418914
C  C51  1  0.77340000  0.23640000  0.38980000  1.0 -0.216418914
C  C52  1  0.23280000  0.32480000  0.73400000  1.0 0.6199377581
C  C53  1  0.32480000  0.73400000  0.23280000  1.0 0.6199377581
C  C54  1  0.73400000  0.23280000  0.32480000  1.0 0.6199377581
C  C55  1  0.35950000  0.39010000  0.65690000  1.0 0.6038324813
C  C56  1  0.39010000  0.65690000  0.35950000  1.0 0.6038324813
C  C57  1  0.65690000  0.35950000  0.39010000  1.0 0.6038324813
C  C58  1  0.11370000  0.98210000  0.43710000  1.0 -0.1876324998
C  C59  1  0.98210000  0.43710000  0.11370000  1.0 -0.1876324998
C  C60  1  0.43710000  0.11370000  0.98210000  1.0 -0.1876324998
C  C61  1  0.16760000  0.05280000  0.46130000  1.0 0.6199377581
C  C62  1  0.05280000  0.46130000  0.16760000  1.0 0.6199377581
C  C63  1  0.46130000  0.16760000  0.05280000  1.0 0.6199377581
C  C64  1  0.98550000  0.13760000  0.42870000  1.0 -0.1876324998
C  C65  1  0.13760000  0.42870000  0.98550000  1.0 -0.1876324998
C  C66  1  0.42870000  0.98550000  0.13760000  1.0 -0.1876324998
C  C67  1  0.04250000  0.13450000  0.47800000  1.0 0.6129177093
C  C68  1  0.13450000  0.47800000  0.04250000  1.0 0.6129177093
C  C69  1  0.47800000  0.04250000  0.13450000  1.0 0.6129177093
C  C70  1  0.18100000  0.17990000  0.34900000  1.0 -0.1876324998
C  C71  1  0.17990000  0.34900000  0.18100000  1.0 -0.1876324998
C  C72  1  0.34900000  0.18100000  0.17990000  1.0 -0.1876324998
C  C73  1  0.16640000  0.20390000  0.40890000  1.0 0.6199377581
C  C74  1  0.20390000  0.40890000  0.16640000  1.0 0.6199377581
C  C75  1  0.40890000  0.16640000  0.20390000  1.0 0.6199377581
C  C76  1  0.17470000  0.15220000  0.79010000  1.0 0.47770723
C  C77  1  0.15220000  0.79010000  0.17470000  1.0 0.47770723
C  C78  1  0.79010000  0.17470000  0.15220000  1.0 0.47770723
C  C79  1  0.06330000  0.35280000  0.44590000  1.0 0.4227420718
C  C80  1  0.35280000  0.44590000  0.06330000  1.0 0.4227420718
C  C81  1  0.44590000  0.06330000  0.35280000  1.0 0.4227420718
C  C82  1  0.34540000  0.10180000  0.41900000  1.0 0.449968336
C  C83  1  0.10180000  0.41900000  0.34540000  1.0 0.449968336
C  C84  1  0.41900000  0.34540000  0.10180000  1.0 0.449968336
C  C85  1  0.43880000  0.42430000  0.68560000  1.0 -0.1760187119
C  C86  1  0.42430000  0.68560000  0.43880000  1.0 -0.1760187119
C  C87  1  0.68560000  0.43880000  0.42430000  1.0 -0.1760187119
C  C88  1  0.38170000  0.24410000  0.78070000  1.0 -0.210974822
C  C89  1  0.24410000  0.78070000  0.38170000  1.0 -0.210974822
C  C90  1  0.78070000  0.38170000  0.24410000  1.0 -0.210974822
N  N1  1  0.67820000  0.79130000  0.21310000  1.0 -0.4406598074
N  N2  1  0.79130000  0.21310000  0.67820000  1.0 -0.4406598074
N  N3  1  0.21310000  0.67820000  0.79130000  1.0 -0.4406598074
N  N4  1  0.76050000  0.56640000  0.25880000  1.0 -0.4498375821
N  N5  1  0.56640000  0.25880000  0.76050000  1.0 -0.4498375821
N  N6  1  0.25880000  0.76050000  0.56640000  1.0 -0.4498375821
N  N7  1  0.53760000  0.61930000  0.34690000  1.0 -0.4498375821
N  N8  1  0.61930000  0.34690000  0.53760000  1.0 -0.4498375821
N  N9  1  0.34690000  0.53760000  0.61930000  1.0 -0.4498375821
N  N10  1  0.91304000  0.02350000  0.51736000  1.0 -0.4498375821
N  N11  1  0.02350000  0.51736000  0.91304000  1.0 -0.4498375821
N  N12  1  0.51736000  0.91304000  0.02350000  1.0 -0.4498375821
N  N13  1  0.99860000  0.79600000  0.56570000  1.0 -0.4406598074
N  N14  1  0.79600000  0.56570000  0.99860000  1.0 -0.4406598074
N  N15  1  0.56570000  0.99860000  0.79600000  1.0 -0.4406598074
N  N16  1  0.77122000  0.84760000  0.64008000  1.0 -0.4498375821
N  N17  1  0.84760000  0.64008000  0.77122000  1.0 -0.4498375821
N  N18  1  0.64008000  0.77122000  0.84760000  1.0 -0.4498375821
N  N19  1  0.32180000  0.20870000  0.78690000  1.0 -0.4406598074
N  N20  1  0.20870000  0.78690000  0.32180000  1.0 -0.4406598074
N  N21  1  0.78690000  0.32180000  0.20870000  1.0 -0.4406598074
N  N22  1  0.23950000  0.43360000  0.74120000  1.0 -0.4498375821
N  N23  1  0.43360000  0.74120000  0.23950000  1.0 -0.4498375821
N  N24  1  0.74120000  0.23950000  0.43360000  1.0 -0.4498375821
N  N25  1  0.46240000  0.38070000  0.65310000  1.0 -0.4498375821
N  N26  1  0.38070000  0.65310000  0.46240000  1.0 -0.4498375821
N  N27  1  0.65310000  0.46240000  0.38070000  1.0 -0.4498375821
N  N28  1  0.08696000  0.97650000  0.48264000  1.0 -0.4498375821
N  N29  1  0.97650000  0.48264000  0.08696000  1.0 -0.4498375821
N  N30  1  0.48264000  0.08696000  0.97650000  1.0 -0.4498375821
N  N31  1  0.00140000  0.20400000  0.43430000  1.0 -0.4406598074
N  N32  1  0.20400000  0.43430000  0.00140000  1.0 -0.4406598074
N  N33  1  0.43430000  0.00140000  0.20400000  1.0 -0.4406598074
N  N34  1  0.22878000  0.15240000  0.35992000  1.0 -0.4498375821
N  N35  1  0.15240000  0.35992000  0.22878000  1.0 -0.4498375821
N  N36  1  0.35992000  0.22878000  0.15240000  1.0 -0.4498375821
O  O1  1  0.69959000  0.77245000  0.32168000  1.0 -0.5983981858
O  O2  1  0.77245000  0.32168000  0.69959000  1.0 -0.5983981858
O  O3  1  0.32168000  0.69959000  0.77245000  1.0 -0.5983981858
O  O4  1  0.58930000  0.71696000  0.28964000  1.0 -0.4968044877
O  O5  1  0.71696000  0.28964000  0.58930000  1.0 -0.4968044877
O  O6  1  0.28964000  0.58930000  0.71696000  1.0 -0.4968044877
O  O7  1  0.77267000  0.68868000  0.32493000  1.0 -0.620544674
O  O8  1  0.68868000  0.32493000  0.77267000  1.0 -0.620544674
O  O9  1  0.32493000  0.77267000  0.68868000  1.0 -0.620544674
O  O10  1  0.76541000  0.71351000  0.23968000  1.0 -0.4813697987
O  O11  1  0.71351000  0.23968000  0.76541000  1.0 -0.4813697987
O  O12  1  0.23968000  0.76541000  0.71351000  1.0 -0.4813697987
O  O13  1  0.67057000  0.67313000  0.38006000  1.0 -0.5874345422
O  O14  1  0.67313000  0.38006000  0.67057000  1.0 -0.5874345422
O  O15  1  0.38006000  0.67057000  0.67313000  1.0 -0.5874345422
O  O16  1  0.66732000  0.57393000  0.32855000  1.0 -0.4877049719
O  O17  1  0.57393000  0.32855000  0.66732000  1.0 -0.4877049719
O  O18  1  0.32855000  0.66732000  0.57393000  1.0 -0.4877049719
O  O19  1  0.82678000  0.89983000  0.48837000  1.0 -0.6106265356
O  O20  1  0.89983000  0.48837000  0.82678000  1.0 -0.6106265356
O  O21  1  0.48837000  0.82678000  0.89983000  1.0 -0.6106265356
O  O22  1  0.80002000  0.93851000  0.57017000  1.0 -0.4877049719
O  O23  1  0.93851000  0.57017000  0.80002000  1.0 -0.4877049719
O  O24  1  0.57017000  0.80002000  0.93851000  1.0 -0.4877049719
O  O25  1  0.89992000  0.81093000  0.48769000  1.0 -0.5983981858
O  O26  1  0.81093000  0.48769000  0.89992000  1.0 -0.5983981858
O  O27  1  0.48769000  0.89992000  0.81093000  1.0 -0.5983981858
O  O28  1  0.96688000  0.91750000  0.51624000  1.0 -0.4813697987
O  O29  1  0.91750000  0.51624000  0.96688000  1.0 -0.4813697987
O  O30  1  0.51624000  0.96688000  0.91750000  1.0 -0.4813697987
O  O31  1  0.79532000  0.79617000  0.53757000  1.0 -0.6106265356
O  O32  1  0.79617000  0.53757000  0.79532000  1.0 -0.6106265356
O  O33  1  0.53757000  0.79532000  0.79617000  1.0 -0.6106265356
O  O34  1  0.87670000  0.77714000  0.59546000  1.0 -0.4813697987
O  O35  1  0.77714000  0.59546000  0.87670000  1.0 -0.4813697987
O  O36  1  0.59546000  0.87670000  0.77714000  1.0 -0.4813697987
O  O37  1  0.83551000  0.83642000  0.37667000  1.0 -0.906564337
O  O38  1  0.83642000  0.37667000  0.83551000  1.0 -0.906564337
O  O39  1  0.37667000  0.83551000  0.83642000  1.0 -0.906564337
O  O40  1  0.80380000  0.68600000  0.44261000  1.0 -0.881414326
O  O41  1  0.68600000  0.44261000  0.80380000  1.0 -0.881414326
O  O42  1  0.44261000  0.80380000  0.68600000  1.0 -0.881414326
O  O43  1  0.69478000  0.79953000  0.44704000  1.0 -0.9015464703
O  O44  1  0.79953000  0.44704000  0.69478000  1.0 -0.9015464703
O  O45  1  0.44704000  0.69478000  0.79953000  1.0 -0.9015464703
O  O46  1  0.93102000  0.95831000  0.39807000  1.0 -0.4406598074
O  O47  1  0.95831000  0.39807000  0.93102000  1.0 -0.4406598074
O  O48  1  0.39807000  0.93102000  0.95831000  1.0 -0.4406598074
O  O49  1  0.79152000  0.55157000  0.38481000  1.0 -0.4406598074
O  O50  1  0.55157000  0.38481000  0.79152000  1.0 -0.4406598074
O  O51  1  0.38481000  0.79152000  0.55157000  1.0 -0.4406598074
O  O52  1  0.55739000  0.76101000  0.40980000  1.0 -0.4034619302
O  O53  1  0.76101000  0.40980000  0.55739000  1.0 -0.4034619302
O  O54  1  0.40980000  0.55739000  0.76101000  1.0 -0.4066086978
O  O55  1  0.83127000  0.86666000  0.27012000  1.0 -0.4620021999
O  O56  1  0.86666000  0.27012000  0.83127000  1.0 -0.4620021999
O  O57  1  0.27012000  0.83127000  0.86666000  1.0 -0.4620021999
O  O58  1  0.77200000  0.80083000  0.15717000  1.0 -0.5837331235
O  O59  1  0.80083000  0.15717000  0.77200000  1.0 -0.5837331235
O  O60  1  0.15717000  0.77200000  0.80083000  1.0 -0.5874345422
O  O61  1  0.90120000  0.65048000  0.50532000  1.0 -0.4159938812
O  O62  1  0.65048000  0.50532000  0.90120000  1.0 -0.4159938812
O  O63  1  0.50532000  0.90120000  0.65048000  1.0 -0.4159938812
O  O64  1  0.97293000  0.69442000  0.61285000  1.0 -0.5485733867
O  O65  1  0.69442000  0.61285000  0.97293000  1.0 -0.5485733867
O  O66  1  0.61285000  0.97293000  0.69442000  1.0 -0.5485733867
O  O67  1  0.65058000  0.84732000  0.53750000  1.0 -0.4406598074
O  O68  1  0.84732000  0.53750000  0.65058000  1.0 -0.4406598074
O  O69  1  0.53750000  0.65058000  0.84732000  1.0 -0.4406598074
O  O70  1  0.70305000  0.93810000  0.63965000  1.0 -0.5619001508
O  O71  1  0.93810000  0.63965000  0.70305000  1.0 -0.5619001508
O  O72  1  0.63965000  0.70305000  0.93810000  1.0 -0.5619001508
O  O73  1  0.76738000  0.71450000  0.95202000  1.0 -0.2000686472
O  O74  1  0.71450000  0.95202000  0.76738000  1.0 -0.2000686472
O  O75  1  0.95202000  0.76738000  0.71450000  1.0 -0.2000686472
O  O76  1  0.74517000  0.66816000  0.10967000  1.0 -0.2317392797
O  O77  1  0.66816000  0.10967000  0.74517000  1.0 -0.2317392797
O  O78  1  0.10967000  0.74517000  0.66816000  1.0 -0.2317392797
O  O79  1  0.62444000  0.67430000  0.05086000  1.0 -0.6473149975
O  O80  1  0.67430000  0.05086000  0.62444000  1.0 -0.6473149975
O  O81  1  0.05086000  0.62444000  0.67430000  1.0 -0.6473149975
O  O82  1  0.67178000  0.80422000  0.05390000  1.0 -0.2423082352
O  O83  1  0.80422000  0.05390000  0.67178000  1.0 -0.2423082352
O  O84  1  0.05390000  0.67178000  0.80422000  1.0 -0.2467887521
O  O85  1  0.79720000  0.83850000  0.05170000  1.0 -0.6387338087
O  O86  1  0.83850000  0.05170000  0.79720000  1.0 -0.6343298674
O  O87  1  0.05170000  0.79720000  0.83850000  1.0 -0.6387338087
O  O88  1  0.84340000  0.74240000  0.08480000  1.0 -0.6343298674
O  O89  1  0.74240000  0.08480000  0.84340000  1.0 -0.6343298674
O  O90  1  0.08480000  0.84340000  0.74240000  1.0 -0.6387338087
O  O91  1  0.30041000  0.22755000  0.67832000  1.0 -0.5983981858
O  O92  1  0.22755000  0.67832000  0.30041000  1.0 -0.5983981858
O  O93  1  0.67832000  0.30041000  0.22755000  1.0 -0.5983981858
O  O94  1  0.41070000  0.28304000  0.71036000  1.0 -0.4968044877
O  O95  1  0.28304000  0.71036000  0.41070000  1.0 -0.4968044877
O  O96  1  0.71036000  0.41070000  0.28304000  1.0 -0.4968044877
O  O97  1  0.22733000  0.31132000  0.67507000  1.0 -0.620544674
O  O98  1  0.31132000  0.67507000  0.22733000  1.0 -0.620544674
O  O99  1  0.67507000  0.22733000  0.31132000  1.0 -0.620544674
O  O100  1  0.23459000  0.28649000  0.76032000  1.0 -0.4813697987
O  O101  1  0.28649000  0.76032000  0.23459000  1.0 -0.4813697987
O  O102  1  0.76032000  0.23459000  0.28649000  1.0 -0.4813697987
O  O103  1  0.32943000  0.32687000  0.61994000  1.0 -0.5874345422
O  O104  1  0.32687000  0.61994000  0.32943000  1.0 -0.5874345422
O  O105  1  0.61994000  0.32943000  0.32687000  1.0 -0.5874345422
O  O106  1  0.33268000  0.42607000  0.67145000  1.0 -0.4877049719
O  O107  1  0.42607000  0.67145000  0.33268000  1.0 -0.4877049719
O  O108  1  0.67145000  0.33268000  0.42607000  1.0 -0.4877049719
O  O109  1  0.17322000  0.10017000  0.51163000  1.0 -0.6106265356
O  O110  1  0.10017000  0.51163000  0.17322000  1.0 -0.6106265356
O  O111  1  0.51163000  0.17322000  0.10017000  1.0 -0.6106265356
O  O112  1  0.19998000  0.06149000  0.42983000  1.0 -0.4877049719
O  O113  1  0.06149000  0.42983000  0.19998000  1.0 -0.4877049719
O  O114  1  0.42983000  0.19998000  0.06149000  1.0 -0.4877049719
O  O115  1  0.10008000  0.18907000  0.51231000  1.0 -0.5983981858
O  O116  1  0.18907000  0.51231000  0.10008000  1.0 -0.5983981858
O  O117  1  0.51231000  0.10008000  0.18907000  1.0 -0.5983981858
O  O118  1  0.03312000  0.08250000  0.48376000  1.0 -0.4813697987
O  O119  1  0.08250000  0.48376000  0.03312000  1.0 -0.4813697987
O  O120  1  0.48376000  0.03312000  0.08250000  1.0 -0.4813697987
O  O121  1  0.20468000  0.20383000  0.46243000  1.0 -0.6106265356
O  O122  1  0.20383000  0.46243000  0.20468000  1.0 -0.6106265356
O  O123  1  0.46243000  0.20468000  0.20383000  1.0 -0.6106265356
O  O124  1  0.12330000  0.22286000  0.40454000  1.0 -0.4813697987
O  O125  1  0.22286000  0.40454000  0.12330000  1.0 -0.4813697987
O  O126  1  0.40454000  0.12330000  0.22286000  1.0 -0.4813697987
O  O127  1  0.16449000  0.16358000  0.62333000  1.0 -0.906564337
O  O128  1  0.16358000  0.62333000  0.16449000  1.0 -0.906564337
O  O129  1  0.62333000  0.16449000  0.16358000  1.0 -0.906564337
O  O130  1  0.19620000  0.31400000  0.55739000  1.0 -0.881414326
O  O131  1  0.31400000  0.55739000  0.19620000  1.0 -0.881414326
O  O132  1  0.55739000  0.19620000  0.31400000  1.0 -0.881414326
O  O133  1  0.30522000  0.20047000  0.55296000  1.0 -0.9015464703
O  O134  1  0.20047000  0.55296000  0.30522000  1.0 -0.9015464703
O  O135  1  0.55296000  0.30522000  0.20047000  1.0 -0.9015464703
O  O136  1  0.06898000  0.04169000  0.60193000  1.0 -0.4406598074
O  O137  1  0.04169000  0.60193000  0.06898000  1.0 -0.4498375821
O  O138  1  0.60193000  0.06898000  0.04169000  1.0 -0.4406598074
O  O139  1  0.20848000  0.44843000  0.61519000  1.0 -0.4406598074
O  O140  1  0.44843000  0.61519000  0.20848000  1.0 -0.4406598074
O  O141  1  0.61519000  0.20848000  0.44843000  1.0 -0.4349990904
O  O142  1  0.44261000  0.23899000  0.59020000  1.0 -0.4034619302
O  O143  1  0.23899000  0.59020000  0.44261000  1.0 -0.4066086978
O  O144  1  0.59020000  0.44261000  0.23899000  1.0 -0.4034619302
O  O145  1  0.16873000  0.13334000  0.72988000  1.0 -0.4620021999
O  O146  1  0.13334000  0.72988000  0.16873000  1.0 -0.4620021999
O  O147  1  0.72988000  0.16873000  0.13334000  1.0 -0.4620021999
O  O148  1  0.22800000  0.19917000  0.84283000  1.0 -0.5837331235
O  O149  1  0.19917000  0.84283000  0.22800000  1.0 -0.5874345422
O  O150  1  0.84283000  0.22800000  0.19917000  1.0 -0.5837331235
O  O151  1  0.09880000  0.34952000  0.49468000  1.0 -0.4159938812
O  O152  1  0.34952000  0.49468000  0.09880000  1.0 -0.4159938812
O  O153  1  0.49468000  0.09880000  0.34952000  1.0 -0.4159938812
O  O154  1  0.02707000  0.30558000  0.38715000  1.0 -0.5485733867
O  O155  1  0.30558000  0.38715000  0.02707000  1.0 -0.5485733867
O  O156  1  0.38715000  0.02707000  0.30558000  1.0 -0.5485733867
O  O157  1  0.34942000  0.15268000  0.46250000  1.0 -0.4406598074
O  O158  1  0.15268000  0.46250000  0.34942000  1.0 -0.4406598074
O  O159  1  0.46250000  0.34942000  0.15268000  1.0 -0.4406598074
O  O160  1  0.29695000  0.06190000  0.36035000  1.0 -0.5619001508
O  O161  1  0.06190000  0.36035000  0.29695000  1.0 -0.5619001508
O  O162  1  0.36035000  0.29695000  0.06190000  1.0 -0.5619001508
O  O163  1  0.23262000  0.28550000  0.04798000  1.0 -0.2000686472
O  O164  1  0.28550000  0.04798000  0.23262000  1.0 -0.2000686472
O  O165  1  0.04798000  0.23262000  0.28550000  1.0 -0.2000686472
O  O166  1  0.25483000  0.33184000  0.89033000  1.0 -0.2317392797
O  O167  1  0.33184000  0.89033000  0.25483000  1.0 -0.2317392797
O  O168  1  0.89033000  0.25483000  0.33184000  1.0 -0.2317392797
O  O169  1  0.37556000  0.32570000  0.94914000  1.0 -0.6473149975
O  O170  1  0.32570000  0.94914000  0.37556000  1.0 -0.6473149975
O  O171  1  0.94914000  0.37556000  0.32570000  1.0 -0.6473149975
O  O172  1  0.32822000  0.19578000  0.94610000  1.0 -0.2423082352
O  O173  1  0.19578000  0.94610000  0.32822000  1.0 -0.2423082352
O  O174  1  0.94610000  0.32822000  0.19578000  1.0 -0.2423082352
O  O175  1  0.20280000  0.16150000  0.94830000  1.0 -0.6387338087
O  O176  1  0.16150000  0.94830000  0.20280000  1.0 -0.6387338087
O  O177  1  0.94830000  0.20280000  0.16150000  1.0 -0.6387338087
O  O178  1  0.15660000  0.25760000  0.91520000  1.0 -0.6387338087
O  O179  1  0.25760000  0.91520000  0.15660000  1.0 -0.6387338087
O  O180  1  0.91520000  0.15660000  0.25760000  1.0 -0.6343298674
