# DDEC6 charges by PACMAN v1.1 (https://github.com/mtap-research/PACMAN-charge/)
data_KIPJUS_ASR_pacman
_symmetry_space_group_name_H-M   'P 1'
_cell_length_a   7.37640000
_cell_length_b   15.47200000
_cell_length_c   18.93170000
_cell_angle_alpha   66.01600000
_cell_angle_beta   80.23500000
_cell_angle_gamma   82.57300000
_symmetry_Int_Tables_number   1
_chemical_formula_structural   BaH8C13NO4
_chemical_formula_sum   'Ba4 H32 C52 N4 O16'
_cell_volume   1941.10813235
_cell_formula_units_Z   4
loop_
 _symmetry_equiv_pos_site_id
 _symmetry_equiv_pos_as_xyz
  1  'x, y, z'
loop_
 _atom_site_type_symbol
 _atom_site_label
 _atom_site_symmetry_multiplicity
 _atom_site_fract_x
 _atom_site_fract_y
 _atom_site_fract_z
 _atom_site_occupancy
 _atom_site_charge
Ba  Ba1  1  0.28600000  0.05433000  0.07731000  1.0 1.4482679152
Ba  Ba2  1  0.71400000  0.94567000  0.92269000  1.0 1.4482679152
Ba  Ba3  1  0.77963000  0.19486000  0.98017000  1.0 1.4369281315
Ba  Ba4  1  0.22037000  0.80514000  0.01983000  1.0 1.4369281315
H  H1  1  0.53240000  0.38750000  0.87090000  1.0 0.1093428367
H  H2  1  0.46760000  0.61250000  0.12910000  1.0 0.1093428367
H  H3  1  0.08120000  0.33000000  0.80810000  1.0 0.1227649111
H  H4  1  0.91880000  0.67000000  0.19190000  1.0 0.1227649111
H  H5  1  0.56060000  0.52340000  0.75930000  1.0 0.1227649111
H  H6  1  0.43940000  0.47660000  0.24070000  1.0 0.1227649111
H  H7  1  0.25230000  0.61600000  0.31380000  1.0 0.1093428367
H  H8  1  0.74770000  0.38400000  0.68620000  1.0 0.1093428367
H  H9  1  0.37520000  0.84680000  0.39600000  1.0 0.1303616845
H  H10  1  0.62480000  0.15320000  0.60400000  1.0 0.1303616845
H  H11  1  0.28720000  0.57340000  0.44290000  1.0 0.1034554177
H  H12  1  0.71280000  0.42660000  0.55710000  1.0 0.1034554177
H  H13  1  0.32930000  0.88800000  0.26660000  1.0 0.1227649111
H  H14  1  0.67070000  0.11200000  0.73340000  1.0 0.1227649111
H  H15  1  0.56770000  0.84110000  0.58750000  1.0 0.1227649111
H  H16  1  0.43230000  0.15890000  0.41250000  1.0 0.1227649111
H  H17  1  0.29520000  0.64430000  0.77580000  1.0 0.1093428367
H  H18  1  0.70480000  0.35570000  0.22420000  1.0 0.1093428367
H  H19  1  0.87030000  0.86570000  0.18760000  1.0 0.1611635544
H  H20  1  0.12970000  0.13430000  0.81240000  1.0 0.1611635544
H  H21  1  0.67480000  0.85210000  0.16880000  1.0 0.1611635544
H  H22  1  0.32520000  0.14790000  0.83120000  1.0 0.1611635544
H  H23  1  0.68870000  0.92280000  0.21000000  1.0 0.1611635544
H  H24  1  0.31130000  0.07720000  0.79000000  1.0 0.1611635544
H  H25  1  0.10260000  0.46680000  0.69530000  1.0 0.1227649111
H  H26  1  0.89740000  0.53320000  0.30470000  1.0 0.1227649111
H  H27  1  0.61260000  0.92040000  0.66240000  1.0 0.1227649111
H  H28  1  0.38740000  0.07960000  0.33760000  1.0 0.1227649111
H  H29  1  0.35210000  0.72120000  0.85350000  1.0 0.1093428367
H  H30  1  0.64790000  0.27880000  0.14650000  1.0 0.1093428367
H  H31  1  0.29700000  0.54500000  0.56700000  1.0 0.2836195909
H  H32  1  0.70300000  0.45500000  0.43300000  1.0 0.2836195909
C  C1  1  0.24850000  0.78190000  0.19430000  1.0 0.5725299799
C  C2  1  0.75150000  0.21810000  0.80570000  1.0 0.5725299799
C  C3  1  0.33550000  0.50930000  0.71400000  1.0 0.0535107505
C  C4  1  0.66450000  0.49070000  0.28600000  1.0 0.0535107505
C  C5  1  0.78250000  0.97810000  0.09250000  1.0 0.7215855205
C  C6  1  0.21750000  0.02190000  0.90750000  1.0 0.7215855205
C  C7  1  0.28800000  0.25510000  0.92480000  1.0 0.6042056464
C  C8  1  0.71200000  0.74490000  0.07520000  1.0 0.6042056464
C  C9  1  0.44480000  0.40350000  0.83530000  1.0 -0.0819470688
C  C10  1  0.55520000  0.59650000  0.16470000  1.0 -0.0819470688
C  C11  1  0.17830000  0.36980000  0.79820000  1.0 -0.0819470688
C  C12  1  0.82170000  0.63020000  0.20180000  1.0 -0.0819470688
C  C13  1  0.51910000  0.87980000  0.81500000  1.0 0.5725299799
C  C14  1  0.48090000  0.12020000  0.18500000  1.0 0.5725299799
C  C15  1  0.42840000  0.73370000  0.67400000  1.0 0.0702663184
C  C16  1  0.57160000  0.26630000  0.32600000  1.0 0.0702663184
C  C17  1  0.33410000  0.70580000  0.43420000  1.0 0.0093738771
C  C18  1  0.66590000  0.29420000  0.56580000  1.0 0.0093738771
C  C19  1  0.28320000  0.75660000  0.27760000  1.0 -0.0198497075
C  C20  1  0.71680000  0.24340000  0.72240000  1.0 -0.0198497075
C  C21  1  0.46280000  0.48410000  0.76890000  1.0 -0.1542831502
C  C22  1  0.53720000  0.51590000  0.23110000  1.0 -0.1542831502
C  C23  1  0.27430000  0.66320000  0.33080000  1.0 -0.1005124144
C  C24  1  0.72570000  0.33680000  0.66920000  1.0 -0.1005124144
C  C25  1  0.35490000  0.59570000  0.64150000  1.0 0.0535107505
C  C26  1  0.64510000  0.40430000  0.35850000  1.0 0.0535107505
C  C27  1  0.34780000  0.79960000  0.38010000  1.0 -0.1138555176
C  C28  1  0.65220000  0.20040000  0.61990000  1.0 -0.1138555176
C  C29  1  0.39420000  0.68730000  0.62380000  1.0 0.0702663184
C  C30  1  0.60580000  0.31270000  0.37620000  1.0 0.0702663184
C  C31  1  0.29680000  0.63760000  0.40750000  1.0 -0.1758277483
C  C32  1  0.70320000  0.36240000  0.59250000  1.0 -0.1758277483
C  C33  1  0.35260000  0.68140000  0.51550000  1.0 0.289696195
C  C34  1  0.64740000  0.31860000  0.48450000  1.0 0.289696195
C  C35  1  0.32120000  0.82400000  0.30260000  1.0 -0.0899905331
C  C36  1  0.67880000  0.17600000  0.69740000  1.0 -0.0899905331
C  C37  1  0.49060000  0.82880000  0.76660000  1.0 -0.0373967505
C  C38  1  0.50940000  0.17120000  0.23340000  1.0 -0.0373967505
C  C39  1  0.52250000  0.81660000  0.64150000  1.0 -0.128033898
C  C40  1  0.47750000  0.18340000  0.35850000  1.0 -0.128033898
C  C41  1  0.36270000  0.69950000  0.75290000  1.0 -0.1601564355
C  C42  1  0.63730000  0.30050000  0.24710000  1.0 -0.1601564355
C  C43  1  0.75130000  0.89760000  0.17170000  1.0 -0.6276964462
C  C44  1  0.24870000  0.10240000  0.82830000  1.0 -0.6276964462
C  C45  1  0.19120000  0.45080000  0.73050000  1.0 -0.166208475
C  C46  1  0.80880000  0.54920000  0.26950000  1.0 -0.166208475
C  C47  1  0.55080000  0.86330000  0.68630000  1.0 -0.1005124144
C  C48  1  0.44920000  0.13670000  0.31370000  1.0 -0.1005124144
C  C49  1  0.39540000  0.74620000  0.79930000  1.0 -0.1005124144
C  C50  1  0.60460000  0.25380000  0.20070000  1.0 -0.1005124144
C  C51  1  0.30310000  0.34400000  0.85290000  1.0 -0.0474289573
C  C52  1  0.69690000  0.65600000  0.14710000  1.0 -0.0474289573
N  N1  1  0.32810000  0.59340000  0.57240000  1.0 -0.2998503066
N  N2  1  0.67190000  0.40660000  0.42760000  1.0 -0.2998503066
N  N3  1  0.39340000  0.74040000  0.54450000  1.0 -0.3845880843
N  N4  1  0.60660000  0.25960000  0.45550000  1.0 -0.3845880843
O  O1  1  0.42480000  0.22230000  0.96270000  1.0 -0.6522206581
O  O2  1  0.57520000  0.77770000  0.03730000  1.0 -0.6522206581
O  O3  1  0.92720000  0.02400000  0.07820000  1.0 -0.7142178035
O  O4  1  0.07280000  0.97600000  0.92180000  1.0 -0.7142178035
O  O5  1  0.66300000  0.00210000  0.04690000  1.0 -0.6960608579
O  O6  1  0.33700000  0.99790000  0.95310000  1.0 -0.6960608579
O  O7  1  0.20000000  0.71970000  0.17820000  1.0 -0.5874101735
O  O8  1  0.80000000  0.28030000  0.82180000  1.0 -0.5874101735
O  O9  1  0.14180000  0.21220000  0.94830000  1.0 -0.6587109185
O  O10  1  0.85820000  0.78780000  0.05170000  1.0 -0.6587109185
O  O11  1  0.27280000  0.86720000  0.14560000  1.0 -0.6587109185
O  O12  1  0.72720000  0.13280000  0.85440000  1.0 -0.6587109185
O  O13  1  0.61330000  0.95010000  0.78490000  1.0 -0.5874101735
O  O14  1  0.38670000  0.04990000  0.21510000  1.0 -0.5874101735
O  O15  1  0.45300000  0.84780000  0.88530000  1.0 -0.6522206581
O  O16  1  0.54700000  0.15220000  0.11470000  1.0 -0.6522206581
