# DDEC6 charges by PACMAN v1.1 (https://github.com/mtap-research/PACMAN-charge/)
data_KIRQUA_FSR_pacman
_chemical_formula_sum              "O48 F72 C204 H96 Zn6 Co4 Mn6 Ca6"
_cell_length_a       21.2824
_cell_length_b       21.2824
_cell_length_c       15.321
_cell_angle_alpha    90
_cell_angle_beta     90
_cell_angle_gamma    120

_symmetry_space_group_name_H-M    "P 1"
_symmetry_Int_Tables_number       1

loop_
  _symmetry_equiv_pos_as_xyz
  'x, y, z'

loop_
  _atom_site_type_symbol
  _atom_site_label
  _atom_site_symmetry_multiplicity
  _atom_site_fract_x
  _atom_site_fract_y
  _atom_site_fract_z
  _atom_site_occupancy
 _atom_site_charge
O   O1        1.0  0.25550  0.62600  0.02200  1.0000 -0.694601372
O   O2        1.0  0.26470  0.57530  0.14370  1.0000 -0.6466564537
O   O3        1.0  0.77040  0.34200  0.77130  1.0000 -0.6466564537
F   F1        1.0  0.09590  0.29650  0.82210  1.0000 -0.1942684651
C   C1        1.0  0.80460  0.31820  0.73520  1.0000 0.5468416213
F   F2        1.0  0.01610  0.18760  0.85960  1.0000 -0.2082764222
O   O4        1.0  0.79830  0.29800  0.65870  1.0000 -0.4858368562
C   C2        1.0  0.10400  0.42210  0.92380  1.0000 -0.151253789
H   H1        1.0  0.08550  0.41700  0.86760  1.0000 0.1132625571
F   F3        1.0  0.95130  0.26280  0.06960  1.0000 -0.2082764222
C   C3        1.0  0.23970  0.57040  0.07080  1.0000 0.5276087969
F   F4        1.0  0.11060  0.25240  0.93860  1.0000 -0.2016596333
C   C4        1.0  0.16250  0.43500  0.08720  1.0000 -0.1012999156
H   H2        1.0  0.18340  0.43940  0.14190  1.0000 0.1195940888
F   F5        1.0  0.00970  0.20610  0.05660  1.0000 -0.2016596333
C   C5        1.0  0.01980  0.28630  0.93900  1.0000 -0.29130359
C   C6        1.0  0.86390  0.31440  0.78550  1.0000 -0.0101760388
C   C7        1.0  0.18540  0.49700  0.03490  1.0000 -0.0255067256
F   F6        1.0  0.91530  0.17520  0.97630  1.0000 -0.2016596333
C   C8        1.0  0.93300  0.33230  0.91630  1.0000 -0.1566051804
H   H3        1.0  0.94440  0.35000  0.97310  1.0000 0.1132625571
C   C9        1.0  0.11150  0.36990  0.05960  1.0000 -0.1325629662
H   H4        1.0  0.09740  0.32960  0.09510  1.0000 0.1195940888
C   C10       1.0  0.06120  0.25500  0.88710  1.0000 0.6514523774
C   C11       1.0  0.90120  0.28210  0.74760  1.0000 -0.1012999156
H   H5        1.0  0.89240  0.26720  0.68960  1.0000 0.1268584221
C   C12       1.0  0.15570  0.48880  0.95290  1.0000 -0.1385485769
H   H6        1.0  0.17090  0.52920  0.91710  1.0000 0.1022237725
C   C13       1.0  0.97450  0.23240  0.00960  1.0000 0.6514523774
C   C14       1.0  0.88180  0.34050  0.86820  1.0000 -0.1181123034
H   H7        1.0  0.85950  0.36420  0.89320  1.0000 0.1195940888
C   C15       1.0  0.07880  0.36120  0.97830  1.0000 0.0783530802
C   C16       1.0  0.95010  0.27240  0.79520  1.0000 -0.151253789
H   H8        1.0  0.97210  0.24850  0.77040  1.0000 0.1132625571
C   C17       1.0  0.96680  0.29770  0.87860  1.0000 0.0783530802
O   O5        1.0  0.37400  0.62950  0.68867  1.0000 -0.7296296508
O   O6        1.0  0.42470  0.68940  0.81037  1.0000 -0.655527115
O   O7        1.0  0.65800  0.42840  0.43797  1.0000 -0.655527115
F   F7        1.0  0.70350  0.79940  0.48877  1.0000 -0.1942684651
C   C18       1.0  0.68180  0.48640  0.40187  1.0000 0.4496002569
F   F8        1.0  0.81240  0.82850  0.52627  1.0000 -0.2082764222
O   O8        1.0  0.70200  0.50030  0.32537  1.0000 -0.5468065591
C   C19       1.0  0.57790  0.68190  0.59047  1.0000 -0.151253789
H   H9        1.0  0.58300  0.66850  0.53427  1.0000 0.1195940888
F   F9        1.0  0.73720  0.68850  0.73627  1.0000 -0.2082764222
C   C20       1.0  0.42960  0.66930  0.73747  1.0000 0.4116356461
F   F10       1.0  0.74760  0.85820  0.60527  1.0000 -0.2016596333
C   C21       1.0  0.56500  0.72750  0.75387  1.0000 -0.1012999156
H   H10       1.0  0.56060  0.74400  0.80857  1.0000 0.1268584221
F   F11       1.0  0.79390  0.80360  0.72327  1.0000 -0.2016596333
C   C22       1.0  0.71370  0.73350  0.60567  1.0000 -0.29130359
C   C23       1.0  0.68560  0.54950  0.45217  1.0000 -0.0101760388
C   C24       1.0  0.50300  0.68840  0.70157  1.0000 -0.0101760388
F   F12       1.0  0.82480  0.74010  0.64297  1.0000 -0.2016596333
C   C25       1.0  0.66770  0.60070  0.58297  1.0000 -0.1566051804
H   H11       1.0  0.65000  0.59440  0.63977  1.0000 0.1132625571
C   C26       1.0  0.63010  0.74160  0.72627  1.0000 -0.1385485769
H   H12       1.0  0.67040  0.76780  0.76177  1.0000 0.1195940888
C   C27       1.0  0.74500  0.80620  0.55377  1.0000 0.6514523774
C   C28       1.0  0.71790  0.61910  0.41427  1.0000 -0.1012999156
H   H13       1.0  0.73280  0.62520  0.35627  1.0000 0.1268584221
C   C29       1.0  0.51120  0.66690  0.61957  1.0000 -0.1385485769
H   H14       1.0  0.47080  0.64170  0.58377  1.0000 0.1022237725
C   C30       1.0  0.76760  0.74210  0.67627  1.0000 0.6514523774
C   C31       1.0  0.65950  0.54130  0.53487  1.0000 -0.1120396369
H   H15       1.0  0.63580  0.49530  0.55987  1.0000 0.1195940888
C   C32       1.0  0.63880  0.71760  0.64497  1.0000 0.0783530802
C   C33       1.0  0.72760  0.67770  0.46187  1.0000 -0.151253789
H   H16       1.0  0.75150  0.72360  0.43707  1.0000 0.1132625571
C   C34       1.0  0.70230  0.66910  0.54527  1.0000 0.0783530802
O   O9        1.0  0.37050  0.74450  0.35533  1.0000 -0.7363864333
O   O10       1.0  0.31060  0.73530  0.47703  1.0000 -0.638773814
O   O11       1.0  0.57160  0.22960  0.10463  1.0000 -0.638773814
F   F13       1.0  0.20060  0.90410  0.15543  1.0000 -0.2016596333
C   C35       1.0  0.51360  0.19540  0.06853  1.0000 0.4496002569
F   F14       1.0  0.17150  0.98390  0.19293  1.0000 -0.2082764222
O   O12       1.0  0.49970  0.20170  0.99203  1.0000 -0.5468065591
C   C36       1.0  0.31810  0.89600  0.25713  1.0000 -0.1385485769
H   H17       1.0  0.33150  0.91450  0.20093  1.0000 0.1195940888
F   F15       1.0  0.31150  0.04870  0.40293  1.0000 -0.2082764222
C   C37       1.0  0.33070  0.76030  0.40413  1.0000 0.4042619913
F   F16       1.0  0.14180  0.88940  0.27193  1.0000 -0.2016596333
C   C38       1.0  0.27250  0.83750  0.42053  1.0000 -0.1012999156
H   H18       1.0  0.25600  0.81660  0.47523  1.0000 0.1268584221
F   F17       1.0  0.19640  0.99030  0.38993  1.0000 -0.2016596333
C   C39       1.0  0.26650  0.98020  0.27233  1.0000 -0.29130359
C   C40       1.0  0.45050  0.13610  0.11883  1.0000 -0.0101760388
C   C41       1.0  0.31160  0.81460  0.36823  1.0000 -0.0101760388
F   F18       1.0  0.25990  0.08470  0.30963  1.0000 -0.2016596333
C   C42       1.0  0.39930  0.06700  0.24963  1.0000 -0.1566051804
H   H19       1.0  0.40560  0.05560  0.30643  1.0000 0.1132625571
C   C43       1.0  0.25840  0.88850  0.39293  1.0000 -0.1385485769
H   H20       1.0  0.23220  0.90260  0.42843  1.0000 0.1195940888
C   C44       1.0  0.19380  0.93880  0.22043  1.0000 0.6514523774
C   C45       1.0  0.38090  0.09880  0.08093  1.0000 -0.1012999156
H   H21       1.0  0.37480  0.10760  0.02293  1.0000 0.1268584221
C   C46       1.0  0.33310  0.84430  0.28623  1.0000 -0.1325629662
H   H22       1.0  0.35830  0.82910  0.25043  1.0000 0.1132625571
C   C47       1.0  0.25790  0.02550  0.34293  1.0000 0.6514523774
C   C48       1.0  0.45870  0.11820  0.20153  1.0000 -0.1120396369
H   H23       1.0  0.50470  0.14050  0.22653  1.0000 0.1195940888
C   C49       1.0  0.28240  0.92120  0.31163  1.0000 0.0783530802
C   C50       1.0  0.32230  0.04990  0.12853  1.0000 -0.151253789
H   H24       1.0  0.27640  0.02790  0.10373  1.0000 0.1132625571
C   C51       1.0  0.33090  0.03320  0.21193  1.0000 0.0783530802
O   O13       1.0  0.74450  0.37400  0.52200  1.0000 -0.694601372
O   O14       1.0  0.73530  0.42470  0.64370  1.0000 -0.6466564537
O   O15       1.0  0.22960  0.65800  0.27130  1.0000 -0.6466564537
F   F19       1.0  0.90410  0.70350  0.32210  1.0000 -0.1942684651
C   C52       1.0  0.19540  0.68180  0.23520  1.0000 0.5468416213
F   F20       1.0  0.98390  0.81240  0.35960  1.0000 -0.2082764222
O   O16       1.0  0.20170  0.70200  0.15870  1.0000 -0.4858368562
C   C53       1.0  0.89600  0.57790  0.42380  1.0000 -0.151253789
H   H25       1.0  0.91450  0.58300  0.36760  1.0000 0.1132625571
F   F21       1.0  0.04870  0.73720  0.56960  1.0000 -0.2082764222
C   C54       1.0  0.76030  0.42960  0.57080  1.0000 0.5276087969
F   F22       1.0  0.88940  0.74760  0.43860  1.0000 -0.2016596333
C   C55       1.0  0.83750  0.56500  0.58720  1.0000 -0.1012999156
H   H26       1.0  0.81660  0.56060  0.64190  1.0000 0.1195940888
F   F23       1.0  0.99030  0.79390  0.55660  1.0000 -0.2016596333
C   C56       1.0  0.98020  0.71370  0.43900  1.0000 -0.29130359
C   C57       1.0  0.13610  0.68560  0.28550  1.0000 -0.0101760388
C   C58       1.0  0.81460  0.50300  0.53490  1.0000 -0.0255067256
F   F24       1.0  0.08470  0.82480  0.47630  1.0000 -0.2016596333
C   C59       1.0  0.06700  0.66770  0.41630  1.0000 -0.1566051804
H   H27       1.0  0.05560  0.65000  0.47310  1.0000 0.1132625571
C   C60       1.0  0.88850  0.63010  0.55960  1.0000 -0.1325629662
H   H28       1.0  0.90260  0.67040  0.59510  1.0000 0.1195940888
C   C61       1.0  0.93880  0.74500  0.38710  1.0000 0.6514523774
C   C62       1.0  0.09880  0.71790  0.24760  1.0000 -0.1012999156
H   H29       1.0  0.10760  0.73280  0.18960  1.0000 0.1268584221
C   C63       1.0  0.84430  0.51120  0.45290  1.0000 -0.1385485769
H   H30       1.0  0.82910  0.47080  0.41710  1.0000 0.1022237725
C   C64       1.0  0.02550  0.76760  0.50960  1.0000 0.6514523774
C   C65       1.0  0.11820  0.65950  0.36820  1.0000 -0.1181123034
H   H31       1.0  0.14050  0.63580  0.39320  1.0000 0.1195940888
C   C66       1.0  0.92120  0.63880  0.47830  1.0000 0.0783530802
C   C67       1.0  0.04990  0.72760  0.29520  1.0000 -0.151253789
H   H32       1.0  0.02790  0.75150  0.27040  1.0000 0.1132625571
C   C68       1.0  0.03320  0.70230  0.37860  1.0000 0.0783530802
O   O17       1.0  0.62600  0.37050  0.18867  1.0000 -0.7296296508
O   O18       1.0  0.57530  0.31060  0.31037  1.0000 -0.655527115
O   O19       1.0  0.34200  0.57160  0.93797  1.0000 -0.655527115
F   F25       1.0  0.29650  0.20060  0.98877  1.0000 -0.1942684651
C   C69       1.0  0.31820  0.51360  0.90187  1.0000 0.4496002569
F   F26       1.0  0.18760  0.17150  0.02627  1.0000 -0.2082764222
O   O20       1.0  0.29800  0.49970  0.82537  1.0000 -0.5468065591
C   C70       1.0  0.42210  0.31810  0.09047  1.0000 -0.151253789
H   H33       1.0  0.41700  0.33150  0.03427  1.0000 0.1195940888
F   F27       1.0  0.26280  0.31150  0.23627  1.0000 -0.2082764222
C   C71       1.0  0.57040  0.33070  0.23747  1.0000 0.4116356461
F   F28       1.0  0.25240  0.14180  0.10527  1.0000 -0.2016596333
C   C72       1.0  0.43500  0.27250  0.25387  1.0000 -0.1012999156
H   H34       1.0  0.43940  0.25600  0.30857  1.0000 0.1268584221
F   F29       1.0  0.20610  0.19640  0.22327  1.0000 -0.2016596333
C   C73       1.0  0.28630  0.26650  0.10567  1.0000 -0.29130359
C   C74       1.0  0.31440  0.45050  0.95217  1.0000 -0.0101760388
C   C75       1.0  0.49700  0.31160  0.20157  1.0000 -0.0101760388
F   F30       1.0  0.17520  0.25990  0.14297  1.0000 -0.2016596333
C   C76       1.0  0.33230  0.39930  0.08297  1.0000 -0.1566051804
H   H35       1.0  0.35000  0.40560  0.13977  1.0000 0.1132625571
C   C77       1.0  0.36990  0.25840  0.22627  1.0000 -0.1385485769
H   H36       1.0  0.32960  0.23220  0.26177  1.0000 0.1195940888
C   C78       1.0  0.25500  0.19380  0.05377  1.0000 0.6514523774
C   C79       1.0  0.28210  0.38090  0.91427  1.0000 -0.1012999156
H   H37       1.0  0.26720  0.37480  0.85627  1.0000 0.1268584221
C   C80       1.0  0.48880  0.33310  0.11957  1.0000 -0.1385485769
H   H38       1.0  0.52920  0.35830  0.08377  1.0000 0.1022237725
C   C81       1.0  0.23240  0.25790  0.17627  1.0000 0.6514523774
C   C82       1.0  0.34050  0.45870  0.03487  1.0000 -0.1120396369
H   H39       1.0  0.36420  0.50470  0.05987  1.0000 0.1195940888
C   C83       1.0  0.36120  0.28240  0.14497  1.0000 0.0783530802
C   C84       1.0  0.27240  0.32230  0.96187  1.0000 -0.151253789
H   H40       1.0  0.24850  0.27640  0.93707  1.0000 0.1132625571
C   C85       1.0  0.29770  0.33090  0.04527  1.0000 0.0783530802
O   O21       1.0  0.62950  0.25550  0.85533  1.0000 -0.7363864333
O   O22       1.0  0.68940  0.26470  0.97703  1.0000 -0.638773814
O   O23       1.0  0.42840  0.77040  0.60463  1.0000 -0.638773814
F   F31       1.0  0.79940  0.09590  0.65543  1.0000 -0.2016596333
C   C86       1.0  0.48640  0.80460  0.56853  1.0000 0.4496002569
F   F32       1.0  0.82850  0.01610  0.69293  1.0000 -0.2082764222
O   O24       1.0  0.50030  0.79830  0.49203  1.0000 -0.5468065591
C   C87       1.0  0.68190  0.10400  0.75713  1.0000 -0.1385485769
H   H41       1.0  0.66850  0.08550  0.70093  1.0000 0.1195940888
F   F33       1.0  0.68850  0.95130  0.90293  1.0000 -0.2082764222
C   C88       1.0  0.66930  0.23970  0.90413  1.0000 0.4042619913
F   F34       1.0  0.85820  0.11060  0.77193  1.0000 -0.2016596333
C   C89       1.0  0.72750  0.16250  0.92053  1.0000 -0.1012999156
H   H42       1.0  0.74400  0.18340  0.97523  1.0000 0.1268584221
F   F35       1.0  0.80360  0.00970  0.88993  1.0000 -0.2016596333
C   C90       1.0  0.73350  0.01980  0.77233  1.0000 -0.29130359
C   C91       1.0  0.54950  0.86390  0.61883  1.0000 -0.0101760388
C   C92       1.0  0.68840  0.18540  0.86823  1.0000 -0.0101760388
F   F36       1.0  0.74010  0.91530  0.80963  1.0000 -0.2016596333
C   C93       1.0  0.60070  0.93300  0.74963  1.0000 -0.1566051804
H   H43       1.0  0.59440  0.94440  0.80643  1.0000 0.1132625571
C   C94       1.0  0.74160  0.11150  0.89293  1.0000 -0.1385485769
H   H44       1.0  0.76780  0.09740  0.92843  1.0000 0.1195940888
C   C95       1.0  0.80620  0.06120  0.72043  1.0000 0.6514523774
C   C96       1.0  0.61910  0.90120  0.58093  1.0000 -0.1012999156
H   H45       1.0  0.62520  0.89240  0.52293  1.0000 0.1268584221
C   C97       1.0  0.66690  0.15570  0.78623  1.0000 -0.1325629662
H   H46       1.0  0.64170  0.17090  0.75043  1.0000 0.1132625571
C   C98       1.0  0.74210  0.97450  0.84293  1.0000 0.6514523774
C   C99       1.0  0.54130  0.88180  0.70153  1.0000 -0.1120396369
H   H47       1.0  0.49530  0.85950  0.72653  1.0000 0.1195940888
C   C100      1.0  0.71760  0.07880  0.81163  1.0000 0.0783530802
C   C101      1.0  0.67770  0.95010  0.62853  1.0000 -0.151253789
H   H48       1.0  0.72360  0.97210  0.60373  1.0000 0.1132625571
C   C102      1.0  0.66910  0.96680  0.71193  1.0000 0.0783530802
O   O25       1.0  0.62600  0.25550  0.64467  1.0000 -0.694601372
O   O26       1.0  0.57530  0.26470  0.52297  1.0000 -0.6466564537
O   O27       1.0  0.34200  0.77040  0.89537  1.0000 -0.6466564537
F   F37       1.0  0.29650  0.09590  0.84457  1.0000 -0.1942684651
C   C103      1.0  0.31820  0.80460  0.93147  1.0000 0.5468416213
F   F38       1.0  0.18760  0.01610  0.80707  1.0000 -0.2082764222
O   O28       1.0  0.29800  0.79830  0.00797  1.0000 -0.4858368562
C   C104      1.0  0.42210  0.10400  0.74287  1.0000 -0.151253789
H   H49       1.0  0.41700  0.08550  0.79907  1.0000 0.1132625571
F   F39       1.0  0.26280  0.95130  0.59707  1.0000 -0.2082764222
C   C105      1.0  0.57040  0.23970  0.59587  1.0000 0.5276087969
F   F40       1.0  0.25240  0.11060  0.72807  1.0000 -0.2016596333
C   C106      1.0  0.43500  0.16250  0.57947  1.0000 -0.1012999156
H   H50       1.0  0.43940  0.18340  0.52477  1.0000 0.1195940888
F   F41       1.0  0.20610  0.00970  0.61007  1.0000 -0.2016596333
C   C107      1.0  0.28630  0.01980  0.72767  1.0000 -0.29130359
C   C108      1.0  0.31440  0.86390  0.88117  1.0000 -0.0101760388
C   C109      1.0  0.49700  0.18540  0.63177  1.0000 -0.0255067256
F   F42       1.0  0.17520  0.91530  0.69037  1.0000 -0.2016596333
C   C110      1.0  0.33230  0.93300  0.75037  1.0000 -0.1566051804
H   H51       1.0  0.35000  0.94440  0.69357  1.0000 0.1132625571
C   C111      1.0  0.36990  0.11150  0.60707  1.0000 -0.1325629662
H   H52       1.0  0.32960  0.09740  0.57157  1.0000 0.1195940888
C   C112      1.0  0.25500  0.06120  0.77957  1.0000 0.6514523774
C   C113      1.0  0.28210  0.90120  0.91907  1.0000 -0.1012999156
H   H53       1.0  0.26720  0.89240  0.97707  1.0000 0.1268584221
C   C114      1.0  0.48880  0.15570  0.71377  1.0000 -0.1385485769
H   H54       1.0  0.52920  0.17090  0.74957  1.0000 0.1022237725
C   C115      1.0  0.23240  0.97450  0.65707  1.0000 0.6514523774
C   C116      1.0  0.34050  0.88180  0.79847  1.0000 -0.1181123034
H   H55       1.0  0.36420  0.85950  0.77347  1.0000 0.1195940888
C   C117      1.0  0.36120  0.07880  0.68837  1.0000 0.0783530802
C   C118      1.0  0.27240  0.95010  0.87147  1.0000 -0.151253789
H   H56       1.0  0.24850  0.97210  0.89627  1.0000 0.1132625571
C   C119      1.0  0.29770  0.96680  0.78807  1.0000 0.0783530802
O   O29       1.0  0.62950  0.37400  0.97800  1.0000 -0.7296296508
O   O30       1.0  0.68940  0.42470  0.85630  1.0000 -0.655527115
O   O31       1.0  0.42840  0.65800  0.22870  1.0000 -0.655527115
F   F43       1.0  0.79940  0.70350  0.17790  1.0000 -0.1942684651
C   C120      1.0  0.48640  0.68180  0.26480  1.0000 0.4496002569
F   F44       1.0  0.82850  0.81240  0.14040  1.0000 -0.2082764222
O   O32       1.0  0.50030  0.70200  0.34130  1.0000 -0.5468065591
C   C121      1.0  0.68190  0.57790  0.07620  1.0000 -0.151253789
H   H57       1.0  0.66850  0.58300  0.13240  1.0000 0.1195940888
F   F45       1.0  0.68850  0.73720  0.93040  1.0000 -0.2082764222
C   C122      1.0  0.66930  0.42960  0.92920  1.0000 0.4116356461
F   F46       1.0  0.85820  0.74760  0.06140  1.0000 -0.2016596333
C   C123      1.0  0.72750  0.56500  0.91280  1.0000 -0.1012999156
H   H58       1.0  0.74400  0.56060  0.85810  1.0000 0.1268584221
F   F47       1.0  0.80360  0.79390  0.94340  1.0000 -0.2016596333
C   C124      1.0  0.73350  0.71370  0.06100  1.0000 -0.29130359
C   C125      1.0  0.54950  0.68560  0.21450  1.0000 -0.0101760388
C   C126      1.0  0.68840  0.50300  0.96510  1.0000 -0.0101760388
F   F48       1.0  0.74010  0.82480  0.02370  1.0000 -0.2016596333
C   C127      1.0  0.60070  0.66770  0.08370  1.0000 -0.1566051804
H   H59       1.0  0.59440  0.65000  0.02690  1.0000 0.1132625571
C   C128      1.0  0.74160  0.63010  0.94040  1.0000 -0.1385485769
H   H60       1.0  0.76780  0.67040  0.90490  1.0000 0.1195940888
C   C129      1.0  0.80620  0.74500  0.11290  1.0000 0.6514523774
C   C130      1.0  0.61910  0.71790  0.25240  1.0000 -0.1012999156
H   H61       1.0  0.62520  0.73280  0.31040  1.0000 0.1268584221
C   C131      1.0  0.66690  0.51120  0.04710  1.0000 -0.1385485769
H   H62       1.0  0.64170  0.47080  0.08290  1.0000 0.1022237725
C   C132      1.0  0.74210  0.76760  0.99040  1.0000 0.6514523774
C   C133      1.0  0.54130  0.65950  0.13180  1.0000 -0.1120396369
H   H63       1.0  0.49530  0.63580  0.10680  1.0000 0.1195940888
C   C134      1.0  0.71760  0.63880  0.02170  1.0000 0.0783530802
C   C135      1.0  0.67770  0.72760  0.20480  1.0000 -0.151253789
H   H64       1.0  0.72360  0.75150  0.22960  1.0000 0.1132625571
C   C136      1.0  0.66910  0.70230  0.12140  1.0000 0.0783530802
O   O33       1.0  0.74450  0.37050  0.31133  1.0000 -0.7363864333
O   O34       1.0  0.73530  0.31060  0.18963  1.0000 -0.638773814
O   O35       1.0  0.22960  0.57160  0.56203  1.0000 -0.638773814
F   F49       1.0  0.90410  0.20060  0.51123  1.0000 -0.2016596333
C   C137      1.0  0.19540  0.51360  0.59813  1.0000 0.4496002569
F   F50       1.0  0.98390  0.17150  0.47373  1.0000 -0.2082764222
O   O36       1.0  0.20170  0.49970  0.67463  1.0000 -0.5468065591
C   C138      1.0  0.89600  0.31810  0.40953  1.0000 -0.1385485769
H   H65       1.0  0.91450  0.33150  0.46573  1.0000 0.1195940888
F   F51       1.0  0.04870  0.31150  0.26373  1.0000 -0.2082764222
C   C139      1.0  0.76030  0.33070  0.26253  1.0000 0.4116356461
F   F52       1.0  0.88940  0.14180  0.39473  1.0000 -0.2016596333
C   C140      1.0  0.83750  0.27250  0.24613  1.0000 -0.1012999156
H   H66       1.0  0.81660  0.25600  0.19143  1.0000 0.1268584221
F   F53       1.0  0.99030  0.19640  0.27673  1.0000 -0.2016596333
C   C141      1.0  0.98020  0.26650  0.39433  1.0000 -0.29130359
C   C142      1.0  0.13610  0.45050  0.54783  1.0000 -0.0101760388
C   C143      1.0  0.81460  0.31160  0.29843  1.0000 -0.0101760388
F   F54       1.0  0.08470  0.25990  0.35703  1.0000 -0.2016596333
C   C144      1.0  0.06700  0.39930  0.41703  1.0000 -0.1566051804
H   H67       1.0  0.05560  0.40560  0.36023  1.0000 0.1132625571
C   C145      1.0  0.88850  0.25840  0.27373  1.0000 -0.1385485769
H   H68       1.0  0.90260  0.23220  0.23823  1.0000 0.1195940888
C   C146      1.0  0.93880  0.19380  0.44623  1.0000 0.6514523774
C   C147      1.0  0.09880  0.38090  0.58573  1.0000 -0.1012999156
H   H69       1.0  0.10760  0.37480  0.64373  1.0000 0.1268584221
C   C148      1.0  0.84430  0.33310  0.38043  1.0000 -0.1325629662
H   H70       1.0  0.82910  0.35830  0.41623  1.0000 0.1132625571
C   C149      1.0  0.02550  0.25790  0.32373  1.0000 0.6514523774
C   C150      1.0  0.11820  0.45870  0.46513  1.0000 -0.1120396369
H   H71       1.0  0.14050  0.50470  0.44013  1.0000 0.1195940888
C   C151      1.0  0.92120  0.28240  0.35503  1.0000 0.0783530802
C   C152      1.0  0.04990  0.32230  0.53813  1.0000 -0.151253789
H   H72       1.0  0.02790  0.27640  0.56293  1.0000 0.1132625571
C   C153      1.0  0.03320  0.33090  0.45473  1.0000 0.0783530802
O   O37       1.0  0.37400  0.74450  0.14467  1.0000 -0.694601372
O   O38       1.0  0.42470  0.73530  0.02297  1.0000 -0.6466564537
O   O39       1.0  0.65800  0.22960  0.39537  1.0000 -0.6466564537
F   F55       1.0  0.70350  0.90410  0.34457  1.0000 -0.1942684651
C   C154      1.0  0.68180  0.19540  0.43147  1.0000 0.5468416213
F   F56       1.0  0.81240  0.98390  0.30707  1.0000 -0.2082764222
O   O40       1.0  0.70200  0.20170  0.50797  1.0000 -0.4858368562
C   C155      1.0  0.57790  0.89600  0.24287  1.0000 -0.151253789
H   H73       1.0  0.58300  0.91450  0.29907  1.0000 0.1132625571
F   F57       1.0  0.73720  0.04870  0.09707  1.0000 -0.2082764222
C   C156      1.0  0.42960  0.76030  0.09587  1.0000 0.5276087969
F   F58       1.0  0.74760  0.88940  0.22807  1.0000 -0.2016596333
C   C157      1.0  0.56500  0.83750  0.07947  1.0000 -0.1012999156
H   H74       1.0  0.56060  0.81660  0.02477  1.0000 0.1195940888
F   F59       1.0  0.79390  0.99030  0.11007  1.0000 -0.2016596333
C   C158      1.0  0.71370  0.98020  0.22767  1.0000 -0.29130359
C   C159      1.0  0.68560  0.13610  0.38117  1.0000 -0.0101760388
C   C160      1.0  0.50300  0.81460  0.13177  1.0000 -0.0255067256
F   F60       1.0  0.82480  0.08470  0.19037  1.0000 -0.2016596333
C   C161      1.0  0.66770  0.06700  0.25037  1.0000 -0.1566051804
H   H75       1.0  0.65000  0.05560  0.19357  1.0000 0.1132625571
C   C162      1.0  0.63010  0.88850  0.10707  1.0000 -0.1325629662
H   H76       1.0  0.67040  0.90260  0.07157  1.0000 0.1195940888
C   C163      1.0  0.74500  0.93880  0.27957  1.0000 0.6514523774
C   C164      1.0  0.71790  0.09880  0.41907  1.0000 -0.1012999156
H   H77       1.0  0.73280  0.10760  0.47707  1.0000 0.1268584221
C   C165      1.0  0.51120  0.84430  0.21377  1.0000 -0.1385485769
H   H78       1.0  0.47080  0.82910  0.24957  1.0000 0.1022237725
C   C166      1.0  0.76760  0.02550  0.15707  1.0000 0.6514523774
C   C167      1.0  0.65950  0.11820  0.29847  1.0000 -0.1181123034
H   H79       1.0  0.63580  0.14050  0.27347  1.0000 0.1195940888
C   C168      1.0  0.63880  0.92120  0.18837  1.0000 0.0783530802
C   C169      1.0  0.72760  0.04990  0.37147  1.0000 -0.151253789
H   H80       1.0  0.75150  0.02790  0.39627  1.0000 0.1132625571
C   C170      1.0  0.70230  0.03320  0.28807  1.0000 0.0783530802
O   O41       1.0  0.37050  0.62600  0.47800  1.0000 -0.7296296508
O   O42       1.0  0.31060  0.57530  0.35630  1.0000 -0.655527115
O   O43       1.0  0.57160  0.34200  0.72870  1.0000 -0.655527115
F   F61       1.0  0.20060  0.29650  0.67790  1.0000 -0.1942684651
C   C171      1.0  0.51360  0.31820  0.76480  1.0000 0.4496002569
F   F62       1.0  0.17150  0.18760  0.64040  1.0000 -0.2082764222
O   O44       1.0  0.49970  0.29800  0.84130  1.0000 -0.5468065591
C   C172      1.0  0.31810  0.42210  0.57620  1.0000 -0.151253789
H   H81       1.0  0.33150  0.41700  0.63240  1.0000 0.1195940888
F   F63       1.0  0.31150  0.26280  0.43040  1.0000 -0.2082764222
C   C173      1.0  0.33070  0.57040  0.42920  1.0000 0.4116356461
F   F64       1.0  0.14180  0.25240  0.56140  1.0000 -0.2016596333
C   C174      1.0  0.27250  0.43500  0.41280  1.0000 -0.1012999156
H   H82       1.0  0.25600  0.43940  0.35810  1.0000 0.1268584221
F   F65       1.0  0.19640  0.20610  0.44340  1.0000 -0.2016596333
C   C175      1.0  0.26650  0.28630  0.56100  1.0000 -0.29130359
C   C176      1.0  0.45050  0.31440  0.71450  1.0000 -0.0101760388
C   C177      1.0  0.31160  0.49700  0.46510  1.0000 -0.0101760388
F   F66       1.0  0.25990  0.17520  0.52370  1.0000 -0.2016596333
C   C178      1.0  0.39930  0.33230  0.58370  1.0000 -0.1566051804
H   H83       1.0  0.40560  0.35000  0.52690  1.0000 0.1132625571
C   C179      1.0  0.25840  0.36990  0.44040  1.0000 -0.1385485769
H   H84       1.0  0.23220  0.32960  0.40490  1.0000 0.1195940888
C   C180      1.0  0.19380  0.25500  0.61290  1.0000 0.6514523774
C   C181      1.0  0.38090  0.28210  0.75240  1.0000 -0.1012999156
H   H85       1.0  0.37480  0.26720  0.81040  1.0000 0.1268584221
C   C182      1.0  0.33310  0.48880  0.54710  1.0000 -0.1385485769
H   H86       1.0  0.35830  0.52920  0.58290  1.0000 0.1022237725
C   C183      1.0  0.25790  0.23240  0.49040  1.0000 0.6514523774
C   C184      1.0  0.45870  0.34050  0.63180  1.0000 -0.1120396369
H   H87       1.0  0.50470  0.36420  0.60680  1.0000 0.1195940888
C   C185      1.0  0.28240  0.36120  0.52170  1.0000 0.0783530802
C   C186      1.0  0.32230  0.27240  0.70480  1.0000 -0.151253789
H   H88       1.0  0.27640  0.24850  0.72960  1.0000 0.1132625571
C   C187      1.0  0.33090  0.29770  0.62140  1.0000 0.0783530802
O   O45       1.0  0.25550  0.62950  0.81133  1.0000 -0.7363864333
O   O46       1.0  0.26470  0.68940  0.68963  1.0000 -0.638773814
O   O47       1.0  0.77040  0.42840  0.06203  1.0000 -0.638773814
F   F67       1.0  0.09590  0.79940  0.01123  1.0000 -0.2016596333
C   C188      1.0  0.80460  0.48640  0.09813  1.0000 0.4496002569
F   F68       1.0  0.01610  0.82850  0.97373  1.0000 -0.2082764222
O   O48       1.0  0.79830  0.50030  0.17463  1.0000 -0.5468065591
C   C189      1.0  0.10400  0.68190  0.90953  1.0000 -0.1385485769
H   H89       1.0  0.08550  0.66850  0.96573  1.0000 0.1195940888
F   F69       1.0  0.95130  0.68850  0.76373  1.0000 -0.2082764222
C   C190      1.0  0.23970  0.66930  0.76253  1.0000 0.4042619913
F   F70       1.0  0.11060  0.85820  0.89473  1.0000 -0.2016596333
C   C191      1.0  0.16250  0.72750  0.74613  1.0000 -0.1012999156
H   H90       1.0  0.18340  0.74400  0.69143  1.0000 0.1268584221
F   F71       1.0  0.00970  0.80360  0.77673  1.0000 -0.2016596333
C   C192      1.0  0.01980  0.73350  0.89433  1.0000 -0.29130359
C   C193      1.0  0.86390  0.54950  0.04783  1.0000 -0.0101760388
C   C194      1.0  0.18540  0.68840  0.79843  1.0000 -0.0101760388
F   F72       1.0  0.91530  0.74010  0.85703  1.0000 -0.2016596333
C   C195      1.0  0.93300  0.60070  0.91703  1.0000 -0.1566051804
H   H91       1.0  0.94440  0.59440  0.86023  1.0000 0.1132625571
C   C196      1.0  0.11150  0.74160  0.77373  1.0000 -0.1385485769
H   H92       1.0  0.09740  0.76780  0.73823  1.0000 0.1195940888
C   C197      1.0  0.06120  0.80620  0.94623  1.0000 0.6514523774
C   C198      1.0  0.90120  0.61910  0.08573  1.0000 -0.1012999156
H   H93       1.0  0.89240  0.62520  0.14373  1.0000 0.1268584221
C   C199      1.0  0.15570  0.66690  0.88043  1.0000 -0.1325629662
H   H94       1.0  0.17090  0.64170  0.91623  1.0000 0.1132625571
C   C200      1.0  0.97450  0.74210  0.82373  1.0000 0.6514523774
C   C201      1.0  0.88180  0.54130  0.96513  1.0000 -0.1120396369
H   H95       1.0  0.85950  0.49530  0.94013  1.0000 0.1195940888
C   C202      1.0  0.07880  0.71760  0.85503  1.0000 0.0783530802
C   C203      1.0  0.95010  0.67770  0.03813  1.0000 -0.151253789
H   H96       1.0  0.97210  0.72360  0.06293  1.0000 0.1132625571
C   C204      1.0  0.96680  0.66910  0.95473  1.0000 0.0783530802
Zn  Zn1       1.0  0.28190  0.71810  0.08333  1.0000 0.6638603061
Zn  Zn2       1.0  0.28190  0.56380  0.75000  1.0000 0.7979591339
Co  Co1       1.0  0.28130  0.56260  0.75000  1.0000 0.7255266159
Zn  Zn3       1.0  0.43620  0.71810  0.41667  1.0000 0.7979591339
Co  Co2       1.0  0.43740  0.71870  0.41667  1.0000 0.7255266159
Zn  Zn4       1.0  0.71810  0.28190  0.58333  1.0000 0.6638603061
Zn  Zn5       1.0  0.71810  0.43620  0.25000  1.0000 0.7979591339
Co  Co3       1.0  0.71870  0.43740  0.25000  1.0000 0.7255266159
Zn  Zn6       1.0  0.56380  0.28190  0.91667  1.0000 0.7979591339
Co  Co4       1.0  0.56260  0.28130  0.91667  1.0000 0.7255266159
Mn  Mn1       1.0  0.35150  0.67575  0.91667  1.0000 1.064891681
Ca  Ca1       1.0  0.34800  0.67400  0.91667  1.0000 1.3119156509
Mn  Mn2       1.0  0.32425  0.67575  0.58333  1.0000 1.0120369046
Ca  Ca2       1.0  0.32600  0.67400  0.58333  1.0000 1.2627254575
Mn  Mn3       1.0  0.32425  0.64850  0.25000  1.0000 1.064891681
Ca  Ca3       1.0  0.32600  0.65200  0.25000  1.0000 1.3119156509
Mn  Mn4       1.0  0.64850  0.32425  0.41667  1.0000 1.064891681
Ca  Ca4       1.0  0.65200  0.32600  0.41667  1.0000 1.3119156509
Mn  Mn5       1.0  0.67575  0.32425  0.08333  1.0000 1.0120369046
Ca  Ca5       1.0  0.67400  0.32600  0.08333  1.0000 1.2627254575
Mn  Mn6       1.0  0.67575  0.35150  0.75000  1.0000 1.064891681
Ca  Ca6       1.0  0.67400  0.34800  0.75000  1.0000 1.3119156509
  Co  Co5       1.0  0.28190  0.71810  0.08333  1.0000
  Co  Co6       1.0  0.71810  0.28190  0.58333  1.0000
