# DDEC6 charges by PACMAN v1.1 (https://github.com/mtap-research/PACMAN-charge/)
data_KIRROV_ASR_pacman
_chemical_formula_sum              "O48 F72 C204 H96 Co6 Zn4 Mn6 Ca6"
_cell_length_a       21.2398
_cell_length_b       21.2398
_cell_length_c       15.1793
_cell_angle_alpha    90
_cell_angle_beta     90
_cell_angle_gamma    120

_symmetry_space_group_name_H-M    "P 1"
_symmetry_Int_Tables_number       1

loop_
  _symmetry_equiv_pos_as_xyz
  'x, y, z'

loop_
  _atom_site_type_symbol
  _atom_site_label
  _atom_site_symmetry_multiplicity
  _atom_site_fract_x
  _atom_site_fract_y
  _atom_site_fract_z
  _atom_site_occupancy
 _atom_site_charge
O   O1        1.0  0.74460  0.37410  0.52050  1.0000 -0.6826270414
F   F1        1.0  0.90560  0.70430  0.31680  1.0000 -0.1996204492
O   O2        1.0  0.73340  0.42440  0.64510  1.0000 -0.6932206118
O   O3        1.0  0.23040  0.65640  0.27490  1.0000 -0.6982795722
F   F2        1.0  0.04790  0.73830  0.57240  1.0000 -0.1996204492
F   F3        1.0  0.98830  0.79450  0.55590  1.0000 -0.1996204492
F   F4        1.0  0.98420  0.81300  0.35650  1.0000 -0.1996204492
O   O4        1.0  0.20340  0.70140  0.15810  1.0000 -0.5151291284
F   F5        1.0  0.08330  0.82590  0.47930  1.0000 -0.1996204492
F   F6        1.0  0.88920  0.74820  0.43540  1.0000 -0.1996204492
C   C1        1.0  0.83520  0.56430  0.58750  1.0000 -0.1080149866
H   H1        1.0  0.81390  0.55960  0.64320  1.0000 0.1288302337
C   C2        1.0  0.75990  0.42970  0.57120  1.0000 0.5147695151
C   C3        1.0  0.81350  0.50320  0.53610  1.0000 -0.0189835877
C   C4        1.0  0.91990  0.63940  0.47620  1.0000 0.0818429982
C   C5        1.0  0.19470  0.68090  0.23790  1.0000 0.5625242499
C   C6        1.0  0.10270  0.72020  0.24920  1.0000 -0.0943835321
H   H2        1.0  0.11510  0.73910  0.19180  1.0000 0.1288302337
C   C7        1.0  0.05090  0.72740  0.29650  1.0000 -0.1558767567
H   H3        1.0  0.02650  0.74880  0.26940  1.0000 0.1125061289
C   C8        1.0  0.88790  0.63260  0.55860  1.0000 -0.1488517596
H   H4        1.0  0.90190  0.67380  0.59410  1.0000 0.1178524911
C   C9        1.0  0.06780  0.66800  0.41850  1.0000 -0.1488517596
H   H5        1.0  0.05480  0.64880  0.47570  1.0000 0.1125061289
C   C10       1.0  0.84290  0.51060  0.45280  1.0000 -0.1411622352
H   H6        1.0  0.82640  0.46980  0.41590  1.0000 0.1046305951
C   C11       1.0  0.89660  0.57830  0.42370  1.0000 -0.1411622352
H   H7        1.0  0.91740  0.58270  0.36780  1.0000 0.1178524911
C   C12       1.0  0.13610  0.68480  0.28670  1.0000 -0.0355434571
C   C13       1.0  0.11930  0.65970  0.37370  1.0000 -0.1152371484
H   H8        1.0  0.14290  0.63740  0.40090  1.0000 0.1178524911
C   C14       1.0  0.03440  0.70380  0.38230  1.0000 0.0712167367
C   C15       1.0  0.02510  0.76780  0.51340  1.0000 0.6532733099
C   C16       1.0  0.97990  0.71380  0.43860  1.0000 -0.2906811926
C   C17       1.0  0.94020  0.74470  0.38750  1.0000 0.6532733099
O   O5        1.0  0.62590  0.37050  0.18717  1.0000 -0.7195723149
F   F7        1.0  0.29570  0.20130  0.98347  1.0000 -0.1996204492
O   O6        1.0  0.57560  0.30900  0.31177  1.0000 -0.6932206118
O   O7        1.0  0.34360  0.57400  0.94157  1.0000 -0.6982795722
F   F8        1.0  0.26170  0.30960  0.23907  1.0000 -0.1996204492
F   F9        1.0  0.20550  0.19380  0.22257  1.0000 -0.1996204492
F   F10       1.0  0.18700  0.17120  0.02317  1.0000 -0.1996204492
O   O8        1.0  0.29860  0.50200  0.82477  1.0000 -0.5801266673
F   F11       1.0  0.17410  0.25740  0.14597  1.0000 -0.1996204492
F   F12       1.0  0.25180  0.14100  0.10207  1.0000 -0.1996204492
C   C18       1.0  0.43570  0.27090  0.25417  1.0000 -0.1080149866
H   H9        1.0  0.44040  0.25430  0.30987  1.0000 0.1288302337
C   C19       1.0  0.57030  0.33020  0.23787  1.0000 0.3883336392
C   C20       1.0  0.49680  0.31030  0.20277  1.0000 -0.0011224201
C   C21       1.0  0.36060  0.28050  0.14287  1.0000 0.0818429982
C   C22       1.0  0.31910  0.51380  0.90457  1.0000 0.4590577242
C   C23       1.0  0.27980  0.38250  0.91587  1.0000 -0.1005193068
H   H10       1.0  0.26090  0.37600  0.85847  1.0000 0.1288302337
C   C24       1.0  0.27260  0.32350  0.96317  1.0000 -0.1558767567
H   H11       1.0  0.25120  0.27770  0.93607  1.0000 0.1125061289
C   C25       1.0  0.36740  0.25530  0.22527  1.0000 -0.1488517596
H   H12       1.0  0.32620  0.22810  0.26077  1.0000 0.1178524911
C   C26       1.0  0.33200  0.39980  0.08517  1.0000 -0.1488517596
H   H13       1.0  0.35120  0.40600  0.14237  1.0000 0.1178524911
C   C27       1.0  0.48940  0.33230  0.11947  1.0000 -0.1488517596
H   H14       1.0  0.53020  0.35660  0.08257  1.0000 0.1125061289
C   C28       1.0  0.42170  0.31830  0.09037  1.0000 -0.1411622352
H   H15       1.0  0.41730  0.33470  0.03447  1.0000 0.1178524911
C   C29       1.0  0.31520  0.45130  0.95337  1.0000 -0.0189835877
C   C30       1.0  0.34030  0.45960  0.04037  1.0000 -0.1152371484
H   H16       1.0  0.36260  0.50550  0.06757  1.0000 0.1178524911
C   C31       1.0  0.29620  0.33060  0.04897  1.0000 0.0712167367
C   C32       1.0  0.23220  0.25730  0.18007  1.0000 0.6532733099
C   C33       1.0  0.28620  0.26610  0.10527  1.0000 -0.2906811926
C   C34       1.0  0.25530  0.19550  0.05417  1.0000 0.6532733099
O   O9        1.0  0.62950  0.25540  0.85383  1.0000 -0.7271784636
F   F13       1.0  0.79870  0.09440  0.65013  1.0000 -0.1996204492
O   O10       1.0  0.69100  0.26660  0.97843  1.0000 -0.6826270414
O   O11       1.0  0.42600  0.76960  0.60823  1.0000 -0.6826270414
F   F14       1.0  0.69040  0.95210  0.90573  1.0000 -0.1996204492
F   F15       1.0  0.80620  0.01170  0.88923  1.0000 -0.1996204492
F   F16       1.0  0.82880  0.01580  0.68983  1.0000 -0.1996204492
O   O12       1.0  0.49800  0.79660  0.49143  1.0000 -0.5801266673
F   F17       1.0  0.74260  0.91670  0.81263  1.0000 -0.1996204492
F   F18       1.0  0.85900  0.11080  0.76873  1.0000 -0.1996204492
C   C35       1.0  0.72910  0.16480  0.92083  1.0000 -0.1005193068
H   H17       1.0  0.74570  0.18610  0.97653  1.0000 0.1288302337
C   C36       1.0  0.66980  0.24010  0.90453  1.0000 0.3801785168
C   C37       1.0  0.68970  0.18650  0.86943  1.0000 -0.0011224201
C   C38       1.0  0.71950  0.08010  0.80953  1.0000 0.0818429982
C   C39       1.0  0.48620  0.80530  0.57123  1.0000 0.4661933613
C   C40       1.0  0.61750  0.89730  0.58253  1.0000 -0.1005193068
H   H18       1.0  0.62400  0.88490  0.52513  1.0000 0.1288302337
C   C41       1.0  0.67650  0.94910  0.62983  1.0000 -0.1488517596
H   H19       1.0  0.72230  0.97350  0.60273  1.0000 0.1178524911
C   C42       1.0  0.74470  0.11210  0.89193  1.0000 -0.1488517596
H   H20       1.0  0.77190  0.09810  0.92743  1.0000 0.1178524911
C   C43       1.0  0.60020  0.93220  0.75183  1.0000 -0.1488517596
H   H21       1.0  0.59400  0.94520  0.80903  1.0000 0.1178524911
C   C44       1.0  0.66770  0.15710  0.78613  1.0000 -0.1327140983
H   H22       1.0  0.64340  0.17360  0.74923  1.0000 0.1178524911
C   C45       1.0  0.68170  0.10340  0.75703  1.0000 -0.1411622352
H   H23       1.0  0.66530  0.08260  0.70113  1.0000 0.1178524911
C   C46       1.0  0.54870  0.86390  0.62003  1.0000 -0.0189835877
C   C47       1.0  0.54040  0.88070  0.70703  1.0000 -0.1080149866
H   H24       1.0  0.49450  0.85710  0.73423  1.0000 0.1288302337
C   C48       1.0  0.66940  0.96560  0.71563  1.0000 0.0712167367
C   C49       1.0  0.74270  0.97490  0.84673  1.0000 0.6532733099
C   C50       1.0  0.73390  0.02010  0.77193  1.0000 -0.2906811926
C   C51       1.0  0.80450  0.05980  0.72083  1.0000 0.6532733099
O   O13       1.0  0.25540  0.62590  0.02050  1.0000 -0.6826270414
F   F19       1.0  0.09440  0.29570  0.81680  1.0000 -0.1996204492
O   O14       1.0  0.26660  0.57560  0.14510  1.0000 -0.6932206118
O   O15       1.0  0.76960  0.34360  0.77490  1.0000 -0.6982795722
F   F20       1.0  0.95210  0.26170  0.07240  1.0000 -0.1996204492
F   F21       1.0  0.01170  0.20550  0.05590  1.0000 -0.1996204492
F   F22       1.0  0.01580  0.18700  0.85650  1.0000 -0.1996204492
O   O16       1.0  0.79660  0.29860  0.65810  1.0000 -0.5134559664
F   F23       1.0  0.91670  0.17410  0.97930  1.0000 -0.1996204492
F   F24       1.0  0.11080  0.25180  0.93540  1.0000 -0.1996204492
C   C52       1.0  0.16480  0.43570  0.08750  1.0000 -0.1080149866
H   H25       1.0  0.18610  0.44040  0.14320  1.0000 0.1288302337
C   C53       1.0  0.24010  0.57030  0.07120  1.0000 0.5147695151
C   C54       1.0  0.18650  0.49680  0.03610  1.0000 -0.0189835877
C   C55       1.0  0.08010  0.36060  0.97620  1.0000 0.0818429982
C   C56       1.0  0.80530  0.31910  0.73790  1.0000 0.5625242499
C   C57       1.0  0.89730  0.27980  0.74920  1.0000 -0.0943835321
H   H26       1.0  0.88490  0.26090  0.69180  1.0000 0.1288302337
C   C58       1.0  0.94910  0.27260  0.79650  1.0000 -0.1558767567
H   H27       1.0  0.97350  0.25120  0.76940  1.0000 0.1125061289
C   C59       1.0  0.11210  0.36740  0.05860  1.0000 -0.1488517596
H   H28       1.0  0.09810  0.32620  0.09410  1.0000 0.1178524911
C   C60       1.0  0.93220  0.33200  0.91850  1.0000 -0.1488517596
H   H29       1.0  0.94520  0.35120  0.97570  1.0000 0.1125061289
C   C61       1.0  0.15710  0.48940  0.95280  1.0000 -0.1411622352
H   H30       1.0  0.17360  0.53020  0.91590  1.0000 0.1046305951
C   C62       1.0  0.10340  0.42170  0.92370  1.0000 -0.1411622352
H   H31       1.0  0.08260  0.41730  0.86780  1.0000 0.1178524911
C   C63       1.0  0.86390  0.31520  0.78670  1.0000 -0.0355434571
C   C64       1.0  0.88070  0.34030  0.87370  1.0000 -0.1152371484
H   H32       1.0  0.85710  0.36260  0.90090  1.0000 0.1178524911
C   C65       1.0  0.96560  0.29620  0.88230  1.0000 0.0712167367
C   C66       1.0  0.97490  0.23220  0.01340  1.0000 0.6532733099
C   C67       1.0  0.02010  0.28620  0.93860  1.0000 -0.2906811926
C   C68       1.0  0.05980  0.25530  0.88750  1.0000 0.6532733099
O   O17       1.0  0.37410  0.62950  0.68717  1.0000 -0.7195723149
F   F25       1.0  0.70430  0.79870  0.48347  1.0000 -0.1996204492
O   O18       1.0  0.42440  0.69100  0.81177  1.0000 -0.6982795722
O   O19       1.0  0.65640  0.42600  0.44157  1.0000 -0.6982795722
F   F26       1.0  0.73830  0.69040  0.73907  1.0000 -0.1996204492
F   F27       1.0  0.79450  0.80620  0.72257  1.0000 -0.1996204492
F   F28       1.0  0.81300  0.82880  0.52317  1.0000 -0.1996204492
O   O20       1.0  0.70140  0.49800  0.32477  1.0000 -0.5801266673
F   F29       1.0  0.82590  0.74260  0.64597  1.0000 -0.1996204492
F   F30       1.0  0.74820  0.85900  0.60207  1.0000 -0.1996204492
C   C69       1.0  0.56430  0.72910  0.75417  1.0000 -0.1005193068
H   H33       1.0  0.55960  0.74570  0.80987  1.0000 0.1288302337
C   C70       1.0  0.42970  0.66980  0.73787  1.0000 0.3883336392
C   C71       1.0  0.50320  0.68970  0.70277  1.0000 -0.0011224201
C   C72       1.0  0.63940  0.71950  0.64287  1.0000 0.0818429982
C   C73       1.0  0.68090  0.48620  0.40457  1.0000 0.4590577242
C   C74       1.0  0.72020  0.61750  0.41587  1.0000 -0.1005193068
H   H34       1.0  0.73910  0.62400  0.35847  1.0000 0.1288302337
C   C75       1.0  0.72740  0.67650  0.46317  1.0000 -0.1558767567
H   H35       1.0  0.74880  0.72230  0.43607  1.0000 0.1125061289
C   C76       1.0  0.63260  0.74470  0.72527  1.0000 -0.1488517596
H   H36       1.0  0.67380  0.77190  0.76077  1.0000 0.1178524911
C   C77       1.0  0.66800  0.60020  0.58517  1.0000 -0.1488517596
H   H37       1.0  0.64880  0.59400  0.64237  1.0000 0.1178524911
C   C78       1.0  0.51060  0.66770  0.61947  1.0000 -0.1488517596
H   H38       1.0  0.46980  0.64340  0.58257  1.0000 0.1125061289
C   C79       1.0  0.57830  0.68170  0.59037  1.0000 -0.1411622352
H   H39       1.0  0.58270  0.66530  0.53447  1.0000 0.1178524911
C   C80       1.0  0.68480  0.54870  0.45337  1.0000 -0.0189835877
C   C81       1.0  0.65970  0.54040  0.54037  1.0000 -0.1152371484
H   H40       1.0  0.63740  0.49450  0.56757  1.0000 0.1178524911
C   C82       1.0  0.70380  0.66940  0.54897  1.0000 0.0712167367
C   C83       1.0  0.76780  0.74270  0.68007  1.0000 0.6532733099
C   C84       1.0  0.71380  0.73390  0.60527  1.0000 -0.2906811926
C   C85       1.0  0.74470  0.80450  0.55417  1.0000 0.6532733099
O   O21       1.0  0.37050  0.74460  0.35383  1.0000 -0.7271784636
F   F31       1.0  0.20130  0.90560  0.15013  1.0000 -0.1996204492
O   O22       1.0  0.30900  0.73340  0.47843  1.0000 -0.6826270414
O   O23       1.0  0.57400  0.23040  0.10823  1.0000 -0.6826270414
F   F32       1.0  0.30960  0.04790  0.40573  1.0000 -0.1996204492
F   F33       1.0  0.19380  0.98830  0.38923  1.0000 -0.1996204492
F   F34       1.0  0.17120  0.98420  0.18983  1.0000 -0.1996204492
O   O24       1.0  0.50200  0.20340  0.99143  1.0000 -0.5801266673
F   F35       1.0  0.25740  0.08330  0.31263  1.0000 -0.1996204492
F   F36       1.0  0.14100  0.88920  0.26873  1.0000 -0.1996204492
C   C86       1.0  0.27090  0.83520  0.42083  1.0000 -0.1005193068
H   H41       1.0  0.25430  0.81390  0.47653  1.0000 0.1288302337
C   C87       1.0  0.33020  0.75990  0.40453  1.0000 0.3801785168
C   C88       1.0  0.31030  0.81350  0.36943  1.0000 -0.0011224201
C   C89       1.0  0.28050  0.91990  0.30953  1.0000 0.0818429982
C   C90       1.0  0.51380  0.19470  0.07123  1.0000 0.4661933613
C   C91       1.0  0.38250  0.10270  0.08253  1.0000 -0.1005193068
H   H42       1.0  0.37600  0.11510  0.02513  1.0000 0.1288302337
C   C92       1.0  0.32350  0.05090  0.12983  1.0000 -0.1488517596
H   H43       1.0  0.27770  0.02650  0.10273  1.0000 0.1178524911
C   C93       1.0  0.25530  0.88790  0.39193  1.0000 -0.1488517596
H   H44       1.0  0.22810  0.90190  0.42743  1.0000 0.1178524911
C   C94       1.0  0.39980  0.06780  0.25183  1.0000 -0.1488517596
H   H45       1.0  0.40600  0.05480  0.30903  1.0000 0.1178524911
C   C95       1.0  0.33230  0.84290  0.28613  1.0000 -0.1327140983
H   H46       1.0  0.35660  0.82640  0.24923  1.0000 0.1178524911
C   C96       1.0  0.31830  0.89660  0.25703  1.0000 -0.1411622352
H   H47       1.0  0.33470  0.91740  0.20113  1.0000 0.1178524911
C   C97       1.0  0.45130  0.13610  0.12003  1.0000 -0.0189835877
C   C98       1.0  0.45960  0.11930  0.20703  1.0000 -0.1152371484
H   H48       1.0  0.50550  0.14290  0.23423  1.0000 0.1288302337
C   C99       1.0  0.33060  0.03440  0.21563  1.0000 0.0712167367
C   C100      1.0  0.25730  0.02510  0.34673  1.0000 0.6532733099
C   C101      1.0  0.26610  0.97990  0.27193  1.0000 -0.2906811926
C   C102      1.0  0.19550  0.94020  0.22083  1.0000 0.6532733099
O   O25       1.0  0.37410  0.74460  0.14617  1.0000 -0.6826270414
F   F37       1.0  0.70430  0.90560  0.34987  1.0000 -0.1996204492
O   O26       1.0  0.42440  0.73340  0.02157  1.0000 -0.6932206118
O   O27       1.0  0.65640  0.23040  0.39177  1.0000 -0.6982795722
F   F38       1.0  0.73830  0.04790  0.09427  1.0000 -0.1996204492
F   F39       1.0  0.79450  0.98830  0.11077  1.0000 -0.1996204492
F   F40       1.0  0.81300  0.98420  0.31017  1.0000 -0.1996204492
O   O28       1.0  0.70140  0.20340  0.50857  1.0000 -0.5134559664
F   F41       1.0  0.82590  0.08330  0.18737  1.0000 -0.1996204492
F   F42       1.0  0.74820  0.88920  0.23127  1.0000 -0.1996204492
C   C103      1.0  0.56430  0.83520  0.07917  1.0000 -0.1080149866
H   H49       1.0  0.55960  0.81390  0.02347  1.0000 0.1288302337
C   C104      1.0  0.42970  0.75990  0.09547  1.0000 0.5147695151
C   C105      1.0  0.50320  0.81350  0.13057  1.0000 -0.0189835877
C   C106      1.0  0.63940  0.91990  0.19047  1.0000 0.0818429982
C   C107      1.0  0.68090  0.19470  0.42877  1.0000 0.5625242499
C   C108      1.0  0.72020  0.10270  0.41747  1.0000 -0.0943835321
H   H50       1.0  0.73910  0.11510  0.47487  1.0000 0.1288302337
C   C109      1.0  0.72740  0.05090  0.37017  1.0000 -0.1558767567
H   H51       1.0  0.74880  0.02650  0.39727  1.0000 0.1125061289
C   C110      1.0  0.63260  0.88790  0.10807  1.0000 -0.1488517596
H   H52       1.0  0.67380  0.90190  0.07257  1.0000 0.1178524911
C   C111      1.0  0.66800  0.06780  0.24817  1.0000 -0.1488517596
H   H53       1.0  0.64880  0.05480  0.19097  1.0000 0.1125061289
C   C112      1.0  0.51060  0.84290  0.21387  1.0000 -0.1411622352
H   H54       1.0  0.46980  0.82640  0.25077  1.0000 0.1046305951
C   C113      1.0  0.57830  0.89660  0.24297  1.0000 -0.1411622352
H   H55       1.0  0.58270  0.91740  0.29887  1.0000 0.1178524911
C   C114      1.0  0.68480  0.13610  0.37997  1.0000 -0.0355434571
C   C115      1.0  0.65970  0.11930  0.29297  1.0000 -0.1152371484
H   H56       1.0  0.63740  0.14290  0.26577  1.0000 0.1178524911
C   C116      1.0  0.70380  0.03440  0.28437  1.0000 0.0712167367
C   C117      1.0  0.76780  0.02510  0.15327  1.0000 0.6532733099
C   C118      1.0  0.71380  0.97990  0.22807  1.0000 -0.2906811926
C   C119      1.0  0.74470  0.94020  0.27917  1.0000 0.6532733099
O   O29       1.0  0.37050  0.62590  0.47950  1.0000 -0.7195723149
F   F43       1.0  0.20130  0.29570  0.68320  1.0000 -0.1996204492
O   O30       1.0  0.30900  0.57560  0.35490  1.0000 -0.6932206118
O   O31       1.0  0.57400  0.34360  0.72510  1.0000 -0.6982795722
F   F44       1.0  0.30960  0.26170  0.42760  1.0000 -0.1996204492
F   F45       1.0  0.19380  0.20550  0.44410  1.0000 -0.1996204492
F   F46       1.0  0.17120  0.18700  0.64350  1.0000 -0.1996204492
O   O32       1.0  0.50200  0.29860  0.84190  1.0000 -0.5801266673
F   F47       1.0  0.25740  0.17410  0.52070  1.0000 -0.1996204492
F   F48       1.0  0.14100  0.25180  0.56460  1.0000 -0.1996204492
C   C120      1.0  0.27090  0.43570  0.41250  1.0000 -0.1005193068
H   H57       1.0  0.25430  0.44040  0.35680  1.0000 0.1288302337
C   C121      1.0  0.33020  0.57030  0.42880  1.0000 0.3883336392
C   C122      1.0  0.31030  0.49680  0.46390  1.0000 -0.0011224201
C   C123      1.0  0.28050  0.36060  0.52380  1.0000 0.0818429982
C   C124      1.0  0.51380  0.31910  0.76210  1.0000 0.4590577242
C   C125      1.0  0.38250  0.27980  0.75080  1.0000 -0.1005193068
H   H58       1.0  0.37600  0.26090  0.80820  1.0000 0.1288302337
C   C126      1.0  0.32350  0.27260  0.70350  1.0000 -0.1558767567
H   H59       1.0  0.27770  0.25120  0.73060  1.0000 0.1125061289
C   C127      1.0  0.25530  0.36740  0.44140  1.0000 -0.1488517596
H   H60       1.0  0.22810  0.32620  0.40590  1.0000 0.1178524911
C   C128      1.0  0.39980  0.33200  0.58150  1.0000 -0.1488517596
H   H61       1.0  0.40600  0.35120  0.52430  1.0000 0.1178524911
C   C129      1.0  0.33230  0.48940  0.54720  1.0000 -0.1488517596
H   H62       1.0  0.35660  0.53020  0.58410  1.0000 0.1125061289
C   C130      1.0  0.31830  0.42170  0.57630  1.0000 -0.1411622352
H   H63       1.0  0.33470  0.41730  0.63220  1.0000 0.1178524911
C   C131      1.0  0.45130  0.31520  0.71330  1.0000 -0.0189835877
C   C132      1.0  0.45960  0.34030  0.62630  1.0000 -0.1152371484
H   H64       1.0  0.50550  0.36260  0.59910  1.0000 0.1178524911
C   C133      1.0  0.33060  0.29620  0.61770  1.0000 0.0712167367
C   C134      1.0  0.25730  0.23220  0.48660  1.0000 0.6532733099
C   C135      1.0  0.26610  0.28620  0.56140  1.0000 -0.2906811926
C   C136      1.0  0.19550  0.25530  0.61250  1.0000 0.6532733099
O   O33       1.0  0.25540  0.62950  0.81283  1.0000 -0.7271784636
F   F49       1.0  0.09440  0.79870  0.01653  1.0000 -0.1996204492
O   O34       1.0  0.26660  0.69100  0.68823  1.0000 -0.6826270414
O   O35       1.0  0.76960  0.42600  0.05843  1.0000 -0.6826270414
F   F50       1.0  0.95210  0.69040  0.76093  1.0000 -0.1996204492
F   F51       1.0  0.01170  0.80620  0.77743  1.0000 -0.1996204492
F   F52       1.0  0.01580  0.82880  0.97683  1.0000 -0.1996204492
O   O36       1.0  0.79660  0.49800  0.17523  1.0000 -0.5801266673
F   F53       1.0  0.91670  0.74260  0.85403  1.0000 -0.1996204492
F   F54       1.0  0.11080  0.85900  0.89793  1.0000 -0.1996204492
C   C137      1.0  0.16480  0.72910  0.74583  1.0000 -0.1005193068
H   H65       1.0  0.18610  0.74570  0.69013  1.0000 0.1288302337
C   C138      1.0  0.24010  0.66980  0.76213  1.0000 0.3801785168
C   C139      1.0  0.18650  0.68970  0.79723  1.0000 -0.0011224201
C   C140      1.0  0.08010  0.71950  0.85713  1.0000 0.0818429982
C   C141      1.0  0.80530  0.48620  0.09543  1.0000 0.4661933613
C   C142      1.0  0.89730  0.61750  0.08413  1.0000 -0.1005193068
H   H66       1.0  0.88490  0.62400  0.14153  1.0000 0.1288302337
C   C143      1.0  0.94910  0.67650  0.03683  1.0000 -0.1488517596
H   H67       1.0  0.97350  0.72230  0.06393  1.0000 0.1178524911
C   C144      1.0  0.11210  0.74470  0.77473  1.0000 -0.1488517596
H   H68       1.0  0.09810  0.77190  0.73923  1.0000 0.1178524911
C   C145      1.0  0.93220  0.60020  0.91483  1.0000 -0.1488517596
H   H69       1.0  0.94520  0.59400  0.85763  1.0000 0.1178524911
C   C146      1.0  0.15710  0.66770  0.88053  1.0000 -0.1327140983
H   H70       1.0  0.17360  0.64340  0.91743  1.0000 0.1178524911
C   C147      1.0  0.10340  0.68170  0.90963  1.0000 -0.1411622352
H   H71       1.0  0.08260  0.66530  0.96553  1.0000 0.1178524911
C   C148      1.0  0.86390  0.54870  0.04663  1.0000 -0.0189835877
C   C149      1.0  0.88070  0.54040  0.95963  1.0000 -0.1152371484
H   H72       1.0  0.85710  0.49450  0.93243  1.0000 0.1288302337
C   C150      1.0  0.96560  0.66940  0.95103  1.0000 0.0712167367
C   C151      1.0  0.97490  0.74270  0.81993  1.0000 0.6532733099
C   C152      1.0  0.02010  0.73390  0.89473  1.0000 -0.2906811926
C   C153      1.0  0.05980  0.80450  0.94583  1.0000 0.6532733099
O   O37       1.0  0.62590  0.25540  0.64617  1.0000 -0.6826270414
F   F55       1.0  0.29570  0.09440  0.84987  1.0000 -0.1996204492
O   O38       1.0  0.57560  0.26660  0.52157  1.0000 -0.6932206118
O   O39       1.0  0.34360  0.76960  0.89177  1.0000 -0.6982795722
F   F56       1.0  0.26170  0.95210  0.59427  1.0000 -0.1996204492
F   F57       1.0  0.20550  0.01170  0.61077  1.0000 -0.1996204492
F   F58       1.0  0.18700  0.01580  0.81017  1.0000 -0.1996204492
O   O40       1.0  0.29860  0.79660  0.00857  1.0000 -0.5151291284
F   F59       1.0  0.17410  0.91670  0.68737  1.0000 -0.1996204492
F   F60       1.0  0.25180  0.11080  0.73127  1.0000 -0.1996204492
C   C154      1.0  0.43570  0.16480  0.57917  1.0000 -0.1080149866
H   H73       1.0  0.44040  0.18610  0.52347  1.0000 0.1288302337
C   C155      1.0  0.57030  0.24010  0.59547  1.0000 0.5147695151
C   C156      1.0  0.49680  0.18650  0.63057  1.0000 -0.0189835877
C   C157      1.0  0.36060  0.08010  0.69047  1.0000 0.0818429982
C   C158      1.0  0.31910  0.80530  0.92877  1.0000 0.5625242499
C   C159      1.0  0.27980  0.89730  0.91747  1.0000 -0.0943835321
H   H74       1.0  0.26090  0.88490  0.97487  1.0000 0.1288302337
C   C160      1.0  0.27260  0.94910  0.87017  1.0000 -0.1558767567
H   H75       1.0  0.25120  0.97350  0.89727  1.0000 0.1125061289
C   C161      1.0  0.36740  0.11210  0.60807  1.0000 -0.1488517596
H   H76       1.0  0.32620  0.09810  0.57257  1.0000 0.1178524911
C   C162      1.0  0.33200  0.93220  0.74817  1.0000 -0.1488517596
H   H77       1.0  0.35120  0.94520  0.69097  1.0000 0.1125061289
C   C163      1.0  0.48940  0.15710  0.71387  1.0000 -0.1411622352
H   H78       1.0  0.53020  0.17360  0.75077  1.0000 0.1046305951
C   C164      1.0  0.42170  0.10340  0.74297  1.0000 -0.1411622352
H   H79       1.0  0.41730  0.08260  0.79887  1.0000 0.1178524911
C   C165      1.0  0.31520  0.86390  0.87997  1.0000 -0.0355434571
C   C166      1.0  0.34030  0.88070  0.79297  1.0000 -0.1152371484
H   H80       1.0  0.36260  0.85710  0.76577  1.0000 0.1178524911
C   C167      1.0  0.29620  0.96560  0.78437  1.0000 0.0712167367
C   C168      1.0  0.23220  0.97490  0.65327  1.0000 0.6532733099
C   C169      1.0  0.28620  0.02010  0.72807  1.0000 -0.2906811926
C   C170      1.0  0.25530  0.05980  0.77917  1.0000 0.6532733099
O   O41       1.0  0.62950  0.37410  0.97950  1.0000 -0.7195723149
F   F61       1.0  0.79870  0.70430  0.18320  1.0000 -0.1996204492
O   O42       1.0  0.69100  0.42440  0.85490  1.0000 -0.6932206118
O   O43       1.0  0.42600  0.65640  0.22510  1.0000 -0.6982795722
F   F62       1.0  0.69040  0.73830  0.92760  1.0000 -0.1996204492
F   F63       1.0  0.80620  0.79450  0.94410  1.0000 -0.1996204492
F   F64       1.0  0.82880  0.81300  0.14350  1.0000 -0.1996204492
O   O44       1.0  0.49800  0.70140  0.34190  1.0000 -0.5801266673
F   F65       1.0  0.74260  0.82590  0.02070  1.0000 -0.1996204492
F   F66       1.0  0.85900  0.74820  0.06460  1.0000 -0.1996204492
C   C171      1.0  0.72910  0.56430  0.91250  1.0000 -0.1005193068
H   H81       1.0  0.74570  0.55960  0.85680  1.0000 0.1288302337
C   C172      1.0  0.66980  0.42970  0.92880  1.0000 0.3883336392
C   C173      1.0  0.68970  0.50320  0.96390  1.0000 -0.0011224201
C   C174      1.0  0.71950  0.63940  0.02380  1.0000 0.0818429982
C   C175      1.0  0.48620  0.68090  0.26210  1.0000 0.4590577242
C   C176      1.0  0.61750  0.72020  0.25080  1.0000 -0.1005193068
H   H82       1.0  0.62400  0.73910  0.30820  1.0000 0.1288302337
C   C177      1.0  0.67650  0.72740  0.20350  1.0000 -0.1558767567
H   H83       1.0  0.72230  0.74880  0.23060  1.0000 0.1178524911
C   C178      1.0  0.74470  0.63260  0.94140  1.0000 -0.1488517596
H   H84       1.0  0.77190  0.67380  0.90590  1.0000 0.1178524911
C   C179      1.0  0.60020  0.66800  0.08150  1.0000 -0.1488517596
H   H85       1.0  0.59400  0.64880  0.02430  1.0000 0.1178524911
C   C180      1.0  0.66770  0.51060  0.04720  1.0000 -0.1488517596
H   H86       1.0  0.64340  0.46980  0.08410  1.0000 0.1125061289
C   C181      1.0  0.68170  0.57830  0.07630  1.0000 -0.1411622352
H   H87       1.0  0.66530  0.58270  0.13220  1.0000 0.1178524911
C   C182      1.0  0.54870  0.68480  0.21330  1.0000 -0.0189835877
C   C183      1.0  0.54040  0.65970  0.12630  1.0000 -0.1152371484
H   H88       1.0  0.49450  0.63740  0.09910  1.0000 0.1178524911
C   C184      1.0  0.66940  0.70380  0.11770  1.0000 0.0712167367
C   C185      1.0  0.74270  0.76780  0.98660  1.0000 0.6532733099
C   C186      1.0  0.73390  0.71380  0.06140  1.0000 -0.2906811926
C   C187      1.0  0.80450  0.74470  0.11250  1.0000 0.6532733099
O   O45       1.0  0.74460  0.37050  0.31283  1.0000 -0.7271784636
F   F67       1.0  0.90560  0.20130  0.51653  1.0000 -0.1996204492
O   O46       1.0  0.73340  0.30900  0.18823  1.0000 -0.6826270414
O   O47       1.0  0.23040  0.57400  0.55843  1.0000 -0.6826270414
F   F68       1.0  0.04790  0.30960  0.26093  1.0000 -0.1996204492
F   F69       1.0  0.98830  0.19380  0.27743  1.0000 -0.1996204492
F   F70       1.0  0.98420  0.17120  0.47683  1.0000 -0.1996204492
O   O48       1.0  0.20340  0.50200  0.67523  1.0000 -0.5801266673
F   F71       1.0  0.08330  0.25740  0.35403  1.0000 -0.1996204492
F   F72       1.0  0.88920  0.14100  0.39793  1.0000 -0.1996204492
C   C188      1.0  0.83520  0.27090  0.24583  1.0000 -0.1005193068
H   H89       1.0  0.81390  0.25430  0.19013  1.0000 0.1288302337
C   C189      1.0  0.75990  0.33020  0.26213  1.0000 0.3801785168
C   C190      1.0  0.81350  0.31030  0.29723  1.0000 -0.0011224201
C   C191      1.0  0.91990  0.28050  0.35713  1.0000 0.0818429982
C   C192      1.0  0.19470  0.51380  0.59543  1.0000 0.4661933613
C   C193      1.0  0.10270  0.38250  0.58413  1.0000 -0.1005193068
H   H90       1.0  0.11510  0.37600  0.64153  1.0000 0.1288302337
C   C194      1.0  0.05090  0.32350  0.53683  1.0000 -0.1558767567
H   H91       1.0  0.02650  0.27770  0.56393  1.0000 0.1125061289
C   C195      1.0  0.88790  0.25530  0.27473  1.0000 -0.1488517596
H   H92       1.0  0.90190  0.22810  0.23923  1.0000 0.1178524911
C   C196      1.0  0.06780  0.39980  0.41483  1.0000 -0.1488517596
H   H93       1.0  0.05480  0.40600  0.35763  1.0000 0.1178524911
C   C197      1.0  0.84290  0.33230  0.38053  1.0000 -0.1327140983
H   H94       1.0  0.82640  0.35660  0.41743  1.0000 0.1178524911
C   C198      1.0  0.89660  0.31830  0.40963  1.0000 -0.1411622352
H   H95       1.0  0.91740  0.33470  0.46553  1.0000 0.1178524911
C   C199      1.0  0.13610  0.45130  0.54663  1.0000 -0.0189835877
C   C200      1.0  0.11930  0.45960  0.45963  1.0000 -0.1080149866
H   H96       1.0  0.14290  0.50550  0.43243  1.0000 0.1288302337
C   C201      1.0  0.03440  0.33060  0.45103  1.0000 0.0712167367
C   C202      1.0  0.02510  0.25730  0.31993  1.0000 0.6532733099
C   C203      1.0  0.97990  0.26610  0.39473  1.0000 -0.2906811926
C   C204      1.0  0.94020  0.19550  0.44583  1.0000 0.6532733099
Co  Co1       1.0  0.28240  0.71760  0.08333  1.0000 0.7691702453
Zn  Zn1       1.0  0.28240  0.56480  0.75000  1.0000 0.8319900838
Co  Co2       1.0  0.28290  0.56580  0.75000  1.0000 0.7584135291
Zn  Zn2       1.0  0.43520  0.71760  0.41667  1.0000 0.8319900838
Co  Co3       1.0  0.43420  0.71710  0.41667  1.0000 0.7584135291
Co  Co4       1.0  0.71760  0.28240  0.58333  1.0000 0.7691702453
Zn  Zn3       1.0  0.71760  0.43520  0.25000  1.0000 0.8319900838
Co  Co5       1.0  0.71710  0.43420  0.25000  1.0000 0.7584135291
Zn  Zn4       1.0  0.56480  0.28240  0.91667  1.0000 0.8319900838
Co  Co6       1.0  0.56580  0.28290  0.91667  1.0000 0.7584135291
Mn  Mn1       1.0  0.32580  0.65160  0.25000  1.0000 1.0891494957
Ca  Ca1       1.0  0.31950  0.63900  0.25000  1.0000 1.385594031
Mn  Mn2       1.0  0.34840  0.67420  0.91667  1.0000 1.0891494957
Ca  Ca2       1.0  0.36100  0.68050  0.91667  1.0000 1.385594031
Mn  Mn3       1.0  0.32580  0.67420  0.58333  1.0000 1.0338754264
Ca  Ca3       1.0  0.31950  0.68050  0.58333  1.0000 1.3525756803
Mn  Mn4       1.0  0.67420  0.34840  0.75000  1.0000 1.0891494957
Ca  Ca4       1.0  0.68050  0.36100  0.75000  1.0000 1.385594031
Mn  Mn5       1.0  0.65160  0.32580  0.41667  1.0000 1.0891494957
Ca  Ca5       1.0  0.63900  0.31950  0.41667  1.0000 1.385594031
Mn  Mn6       1.0  0.67420  0.32580  0.08333  1.0000 1.0338754264
Ca  Ca6       1.0  0.68050  0.31950  0.08333  1.0000 1.3525756803
  Zn  Zn5       1.0  0.28240  0.71760  0.08333  1.0000
  Zn  Zn6       1.0  0.71760  0.28240  0.58333  1.0000
