# DDEC6 charges by PACMAN v1.1 (https://github.com/mtap-research/PACMAN-charge/)
data_KIRREL_FSR_pacman
_symmetry_space_group_name_H-M   'P 1'
_cell_length_a   21.25000000
_cell_length_b   21.25000000
_cell_length_c   15.33790000
_cell_angle_alpha   90.00000000
_cell_angle_beta   90.00000000
_cell_angle_gamma   120.00000000
_symmetry_Int_Tables_number   1
_chemical_formula_structural   CaMnZnCoH16C34(O2F3)4
_chemical_formula_sum   'Ca6 Mn6 Zn6 Co6 H96 C204 O48 F72'
_cell_volume   5998.10967307
_cell_formula_units_Z   6
loop_
 _symmetry_equiv_pos_site_id
 _symmetry_equiv_pos_as_xyz
  1  'x, y, z'
loop_
 _atom_site_type_symbol
 _atom_site_label
 _atom_site_symmetry_multiplicity
 _atom_site_fract_x
 _atom_site_fract_y
 _atom_site_fract_z
 _atom_site_occupancy
 _atom_site_charge
Ca  Ca1  1  0.35800000  0.67900000  0.41667000  1.0 1.3270913887
Ca  Ca2  1  0.32100000  0.64200000  0.75000000  1.0 1.3270913887
Ca  Ca3  1  0.32100000  0.67900000  0.08333000  1.0 1.3270913887
Ca  Ca4  1  0.64200000  0.32100000  0.91667000  1.0 1.3270913887
Ca  Ca5  1  0.67900000  0.35800000  0.25000000  1.0 1.3270913887
Ca  Ca6  1  0.67900000  0.32100000  0.58333000  1.0 1.3270913887
Mn  Mn1  1  0.67285000  0.32715000  0.58333000  1.0 1.0207617609
Mn  Mn2  1  0.65430000  0.32715000  0.91667000  1.0 1.0207617609
Mn  Mn3  1  0.67285000  0.34570000  0.25000000  1.0 1.0207617609
Mn  Mn4  1  0.32715000  0.67285000  0.08333000  1.0 1.0207617609
Mn  Mn5  1  0.34570000  0.67285000  0.41667000  1.0 1.0207617609
Mn  Mn6  1  0.32715000  0.65430000  0.75000000  1.0 1.0207617609
Zn  Zn1  1  0.28150000  0.56300000  0.25000000  1.0 0.8264969516
Zn  Zn2  1  0.28150000  0.71850000  0.58333000  1.0 0.8264969516
Zn  Zn3  1  0.43700000  0.71850000  0.91667000  1.0 0.8264969516
Zn  Zn4  1  0.71850000  0.43700000  0.75000000  1.0 0.8264969516
Zn  Zn5  1  0.71850000  0.28150000  0.08333000  1.0 0.8264969516
Zn  Zn6  1  0.56300000  0.28150000  0.41667000  1.0 0.8264969516
Co  Co1  1  0.28270000  0.56540000  0.25000000  1.0 0.7586266923
Co  Co2  1  0.28270000  0.71730000  0.58333000  1.0 0.7586266923
Co  Co3  1  0.43460000  0.71730000  0.91667000  1.0 0.7586266923
Co  Co4  1  0.71730000  0.43460000  0.75000000  1.0 0.7586266923
Co  Co5  1  0.71730000  0.28270000  0.08333000  1.0 0.7586266923
Co  Co6  1  0.56540000  0.28270000  0.41667000  1.0 0.7586266923
H  H1  1  0.26350000  0.37400000  0.35743000  1.0 0.1291085274
H  H2  1  0.36310000  0.50530000  0.56143000  1.0 0.118612141
H  H3  1  0.24970000  0.27600000  0.43713000  1.0 0.114914209
H  H4  1  0.35120000  0.40770000  0.63923000  1.0 0.118612141
H  H5  1  0.41770000  0.33440000  0.53443000  1.0 0.118612141
H  H6  1  0.32820000  0.23230000  0.76133000  1.0 0.118612141
H  H7  1  0.52920000  0.35580000  0.58153000  1.0 0.1041622867
H  H8  1  0.44160000  0.25710000  0.80873000  1.0 0.1291085274
H  H9  1  0.11050000  0.73650000  0.69077000  1.0 0.1291085274
H  H10  1  0.14220000  0.63690000  0.89477000  1.0 0.118612141
H  H11  1  0.02630000  0.75030000  0.77047000  1.0 0.114914209
H  H12  1  0.05650000  0.64880000  0.97257000  1.0 0.118612141
H  H13  1  0.91670000  0.58230000  0.86777000  1.0 0.118612141
H  H14  1  0.90410000  0.67180000  0.09467000  1.0 0.118612141
H  H15  1  0.82660000  0.47080000  0.91487000  1.0 0.1041622867
H  H16  1  0.81550000  0.55840000  0.14207000  1.0 0.1291085274
H  H17  1  0.62600000  0.88950000  0.02410000  1.0 0.1291085274
H  H18  1  0.49470000  0.85780000  0.22810000  1.0 0.118612141
H  H19  1  0.72400000  0.97370000  0.10380000  1.0 0.114914209
H  H20  1  0.59230000  0.94350000  0.30590000  1.0 0.118612141
H  H21  1  0.66560000  0.08330000  0.20110000  1.0 0.118612141
H  H22  1  0.76770000  0.09590000  0.42800000  1.0 0.118612141
H  H23  1  0.64420000  0.17340000  0.24820000  1.0 0.1041622867
H  H24  1  0.74290000  0.18450000  0.47540000  1.0 0.1291085274
H  H25  1  0.73650000  0.62600000  0.85743000  1.0 0.1291085274
H  H26  1  0.63690000  0.49470000  0.06143000  1.0 0.118612141
H  H27  1  0.75030000  0.72400000  0.93713000  1.0 0.114914209
H  H28  1  0.64880000  0.59230000  0.13923000  1.0 0.118612141
H  H29  1  0.58230000  0.66560000  0.03443000  1.0 0.118612141
H  H30  1  0.67180000  0.76770000  0.26133000  1.0 0.118612141
H  H31  1  0.47080000  0.64420000  0.08153000  1.0 0.1041622867
H  H32  1  0.55840000  0.74290000  0.30873000  1.0 0.1291085274
H  H33  1  0.88950000  0.26350000  0.19077000  1.0 0.1291085274
H  H34  1  0.85780000  0.36310000  0.39477000  1.0 0.118612141
H  H35  1  0.97370000  0.24970000  0.27047000  1.0 0.114914209
H  H36  1  0.94350000  0.35120000  0.47257000  1.0 0.118612141
H  H37  1  0.08330000  0.41770000  0.36777000  1.0 0.118612141
H  H38  1  0.09590000  0.32820000  0.59467000  1.0 0.118612141
H  H39  1  0.17340000  0.52920000  0.41487000  1.0 0.1041622867
H  H40  1  0.18450000  0.44160000  0.64207000  1.0 0.1291085274
H  H41  1  0.37400000  0.11050000  0.52410000  1.0 0.1291085274
H  H42  1  0.50530000  0.14220000  0.72810000  1.0 0.118612141
H  H43  1  0.27600000  0.02630000  0.60380000  1.0 0.114914209
H  H44  1  0.40770000  0.05650000  0.80590000  1.0 0.118612141
H  H45  1  0.33440000  0.91670000  0.70110000  1.0 0.118612141
H  H46  1  0.23230000  0.90410000  0.92800000  1.0 0.118612141
H  H47  1  0.35580000  0.82660000  0.74820000  1.0 0.1041622867
H  H48  1  0.25710000  0.81550000  0.97540000  1.0 0.1291085274
H  H49  1  0.88950000  0.62600000  0.64257000  1.0 0.1291085274
H  H50  1  0.85780000  0.49470000  0.43857000  1.0 0.118612141
H  H51  1  0.97370000  0.72400000  0.56287000  1.0 0.114914209
H  H52  1  0.94350000  0.59230000  0.36077000  1.0 0.118612141
H  H53  1  0.08330000  0.66560000  0.46557000  1.0 0.118612141
H  H54  1  0.09590000  0.76770000  0.23867000  1.0 0.118612141
H  H55  1  0.17340000  0.64420000  0.41847000  1.0 0.1041622867
H  H56  1  0.18450000  0.74290000  0.19127000  1.0 0.1291085274
H  H57  1  0.37400000  0.26350000  0.30923000  1.0 0.1291085274
H  H58  1  0.50530000  0.36310000  0.10523000  1.0 0.118612141
H  H59  1  0.27600000  0.24970000  0.22953000  1.0 0.114914209
H  H60  1  0.40770000  0.35120000  0.02743000  1.0 0.118612141
H  H61  1  0.33440000  0.41770000  0.13223000  1.0 0.118612141
H  H62  1  0.23230000  0.32820000  0.90533000  1.0 0.118612141
H  H63  1  0.35580000  0.52920000  0.08513000  1.0 0.1041622867
H  H64  1  0.25710000  0.44160000  0.85793000  1.0 0.1291085274
H  H65  1  0.73650000  0.11050000  0.97590000  1.0 0.1291085274
H  H66  1  0.63690000  0.14220000  0.77190000  1.0 0.118612141
H  H67  1  0.75030000  0.02630000  0.89620000  1.0 0.114914209
H  H68  1  0.64880000  0.05650000  0.69410000  1.0 0.118612141
H  H69  1  0.58230000  0.91670000  0.79890000  1.0 0.118612141
H  H70  1  0.67180000  0.90410000  0.57200000  1.0 0.118612141
H  H71  1  0.47080000  0.82660000  0.75180000  1.0 0.1041622867
H  H72  1  0.55840000  0.81550000  0.52460000  1.0 0.1291085274
H  H73  1  0.11050000  0.37400000  0.14257000  1.0 0.1291085274
H  H74  1  0.14220000  0.50530000  0.93857000  1.0 0.118612141
H  H75  1  0.02630000  0.27600000  0.06287000  1.0 0.114914209
H  H76  1  0.05650000  0.40770000  0.86077000  1.0 0.118612141
H  H77  1  0.91670000  0.33440000  0.96557000  1.0 0.118612141
H  H78  1  0.90410000  0.23230000  0.73867000  1.0 0.118612141
H  H79  1  0.82660000  0.35580000  0.91847000  1.0 0.1041622867
H  H80  1  0.81550000  0.25710000  0.69127000  1.0 0.1291085274
H  H81  1  0.62600000  0.73650000  0.80923000  1.0 0.1291085274
H  H82  1  0.49470000  0.63690000  0.60523000  1.0 0.118612141
H  H83  1  0.72400000  0.75030000  0.72953000  1.0 0.114914209
H  H84  1  0.59230000  0.64880000  0.52743000  1.0 0.118612141
H  H85  1  0.66560000  0.58230000  0.63223000  1.0 0.118612141
H  H86  1  0.76770000  0.67180000  0.40533000  1.0 0.118612141
H  H87  1  0.64420000  0.47080000  0.58513000  1.0 0.1041622867
H  H88  1  0.74290000  0.55840000  0.35793000  1.0 0.1291085274
H  H89  1  0.26350000  0.88950000  0.47590000  1.0 0.1291085274
H  H90  1  0.36310000  0.85780000  0.27190000  1.0 0.118612141
H  H91  1  0.24970000  0.97370000  0.39620000  1.0 0.114914209
H  H92  1  0.35120000  0.94350000  0.19410000  1.0 0.118612141
H  H93  1  0.41770000  0.08330000  0.29890000  1.0 0.118612141
H  H94  1  0.32820000  0.09590000  0.07200000  1.0 0.118612141
H  H95  1  0.52920000  0.17340000  0.25180000  1.0 0.1041622867
H  H96  1  0.44160000  0.18450000  0.02460000  1.0 0.1291085274
C  C1  1  0.31810000  0.51130000  0.40143000  1.0 0.4796402731
C  C2  1  0.31480000  0.45020000  0.44993000  1.0 -0.0321876515
C  C3  1  0.28110000  0.38120000  0.41493000  1.0 -0.0933056843
C  C4  1  0.34040000  0.45910000  0.53563000  1.0 -0.1065173146
C  C5  1  0.27260000  0.32230000  0.46273000  1.0 -0.1618282965
C  C6  1  0.33230000  0.40020000  0.58233000  1.0 -0.1498959136
C  C7  1  0.29780000  0.33090000  0.54893000  1.0 0.0699720529
C  C8  1  0.28690000  0.26660000  0.60633000  1.0 -0.2930549355
C  C9  1  0.36070000  0.28210000  0.64273000  1.0 0.0796098172
C  C10  1  0.23280000  0.25820000  0.67733000  1.0 0.6500974624
C  C11  1  0.25610000  0.19550000  0.55353000  1.0 0.6500974624
C  C12  1  0.42210000  0.31880000  0.59033000  1.0 -0.1407243364
C  C13  1  0.36890000  0.25840000  0.72523000  1.0 -0.1498959136
C  C14  1  0.48880000  0.33240000  0.61893000  1.0 -0.1407243364
C  C15  1  0.43690000  0.27360000  0.75363000  1.0 -0.0970430594
C  C16  1  0.49790000  0.31230000  0.70263000  1.0 -0.0195162207
C  C17  1  0.56990000  0.33030000  0.73623000  1.0 0.4013456904
C  C18  1  0.19320000  0.68190000  0.73477000  1.0 0.4796402731
C  C19  1  0.13540000  0.68520000  0.78327000  1.0 -0.0321876515
C  C20  1  0.10010000  0.71890000  0.74827000  1.0 -0.0933056843
C  C21  1  0.11870000  0.65960000  0.86897000  1.0 -0.1065173146
C  C22  1  0.04970000  0.72740000  0.79607000  1.0 -0.1618282965
C  C23  1  0.06790000  0.66770000  0.91567000  1.0 -0.1498959136
C  C24  1  0.03310000  0.70220000  0.88227000  1.0 0.0699720529
C  C25  1  0.97970000  0.71310000  0.93967000  1.0 -0.2930549355
C  C26  1  0.92140000  0.63930000  0.97607000  1.0 0.0796098172
C  C27  1  0.02540000  0.76720000  0.01067000  1.0 0.6500974624
C  C28  1  0.93940000  0.74390000  0.88687000  1.0 0.6500974624
C  C29  1  0.89670000  0.57790000  0.92367000  1.0 -0.1407243364
C  C30  1  0.88950000  0.63110000  0.05857000  1.0 -0.1498959136
C  C31  1  0.84360000  0.51120000  0.95227000  1.0 -0.1407243364
C  C32  1  0.83670000  0.56310000  0.08697000  1.0 -0.0970430594
C  C33  1  0.81440000  0.50210000  0.03597000  1.0 -0.0195162207
C  C34  1  0.76040000  0.43010000  0.06957000  1.0 0.4013456904
C  C35  1  0.48870000  0.80680000  0.06810000  1.0 0.4796402731
C  C36  1  0.54980000  0.86460000  0.11660000  1.0 -0.0321876515
C  C37  1  0.61880000  0.89990000  0.08160000  1.0 -0.0933056843
C  C38  1  0.54090000  0.88130000  0.20230000  1.0 -0.1065173146
C  C39  1  0.67770000  0.95030000  0.12940000  1.0 -0.1618282965
C  C40  1  0.59980000  0.93210000  0.24900000  1.0 -0.1498959136
C  C41  1  0.66910000  0.96690000  0.21560000  1.0 0.0699720529
C  C42  1  0.73340000  0.02030000  0.27300000  1.0 -0.2930549355
C  C43  1  0.71790000  0.07860000  0.30940000  1.0 0.0796098172
C  C44  1  0.74180000  0.97460000  0.34400000  1.0 0.6500974624
C  C45  1  0.80450000  0.06060000  0.22020000  1.0 0.6500974624
C  C46  1  0.68120000  0.10330000  0.25700000  1.0 -0.1407243364
C  C47  1  0.74160000  0.11050000  0.39190000  1.0 -0.1498959136
C  C48  1  0.66760000  0.15640000  0.28560000  1.0 -0.1407243364
C  C49  1  0.72640000  0.16330000  0.42030000  1.0 -0.0970430594
C  C50  1  0.68770000  0.18560000  0.36930000  1.0 -0.0195162207
C  C51  1  0.66970000  0.23960000  0.40290000  1.0 0.4013456904
C  C52  1  0.68190000  0.48870000  0.90143000  1.0 0.4796402731
C  C53  1  0.68520000  0.54980000  0.94993000  1.0 -0.0321876515
C  C54  1  0.71890000  0.61880000  0.91493000  1.0 -0.0933056843
C  C55  1  0.65960000  0.54090000  0.03563000  1.0 -0.1065173146
C  C56  1  0.72740000  0.67770000  0.96273000  1.0 -0.1618282965
C  C57  1  0.66770000  0.59980000  0.08233000  1.0 -0.1498959136
C  C58  1  0.70220000  0.66910000  0.04893000  1.0 0.0699720529
C  C59  1  0.71310000  0.73340000  0.10633000  1.0 -0.2930549355
C  C60  1  0.63930000  0.71790000  0.14273000  1.0 0.0796098172
C  C61  1  0.76720000  0.74180000  0.17733000  1.0 0.6500974624
C  C62  1  0.74390000  0.80450000  0.05353000  1.0 0.6500974624
C  C63  1  0.57790000  0.68120000  0.09033000  1.0 -0.1407243364
C  C64  1  0.63110000  0.74160000  0.22523000  1.0 -0.1498959136
C  C65  1  0.51120000  0.66760000  0.11893000  1.0 -0.1407243364
C  C66  1  0.56310000  0.72640000  0.25363000  1.0 -0.0970430594
C  C67  1  0.50210000  0.68770000  0.20263000  1.0 -0.0195162207
C  C68  1  0.43010000  0.66970000  0.23623000  1.0 0.4013456904
C  C69  1  0.80680000  0.31810000  0.23477000  1.0 0.4796402731
C  C70  1  0.86460000  0.31480000  0.28327000  1.0 -0.0321876515
C  C71  1  0.89990000  0.28110000  0.24827000  1.0 -0.0933056843
C  C72  1  0.88130000  0.34040000  0.36897000  1.0 -0.1065173146
C  C73  1  0.95030000  0.27260000  0.29607000  1.0 -0.1618282965
C  C74  1  0.93210000  0.33230000  0.41567000  1.0 -0.1498959136
C  C75  1  0.96690000  0.29780000  0.38227000  1.0 0.0699720529
C  C76  1  0.02030000  0.28690000  0.43967000  1.0 -0.2930549355
C  C77  1  0.07860000  0.36070000  0.47607000  1.0 0.0796098172
C  C78  1  0.97460000  0.23280000  0.51067000  1.0 0.6500974624
C  C79  1  0.06060000  0.25610000  0.38687000  1.0 0.6500974624
C  C80  1  0.10330000  0.42210000  0.42367000  1.0 -0.1407243364
C  C81  1  0.11050000  0.36890000  0.55857000  1.0 -0.1498959136
C  C82  1  0.15640000  0.48880000  0.45227000  1.0 -0.1407243364
C  C83  1  0.16330000  0.43690000  0.58697000  1.0 -0.0970430594
C  C84  1  0.18560000  0.49790000  0.53597000  1.0 -0.0195162207
C  C85  1  0.23960000  0.56990000  0.56957000  1.0 0.4013456904
C  C86  1  0.51130000  0.19320000  0.56810000  1.0 0.4796402731
C  C87  1  0.45020000  0.13540000  0.61660000  1.0 -0.0321876515
C  C88  1  0.38120000  0.10010000  0.58160000  1.0 -0.0933056843
C  C89  1  0.45910000  0.11870000  0.70230000  1.0 -0.1065173146
C  C90  1  0.32230000  0.04970000  0.62940000  1.0 -0.1618282965
C  C91  1  0.40020000  0.06790000  0.74900000  1.0 -0.1498959136
C  C92  1  0.33090000  0.03310000  0.71560000  1.0 0.0699720529
C  C93  1  0.26660000  0.97970000  0.77300000  1.0 -0.2930549355
C  C94  1  0.28210000  0.92140000  0.80940000  1.0 0.0796098172
C  C95  1  0.25820000  0.02540000  0.84400000  1.0 0.6500974624
C  C96  1  0.19550000  0.93940000  0.72020000  1.0 0.6500974624
C  C97  1  0.31880000  0.89670000  0.75700000  1.0 -0.1407243364
C  C98  1  0.25840000  0.88950000  0.89190000  1.0 -0.1498959136
C  C99  1  0.33240000  0.84360000  0.78560000  1.0 -0.1407243364
C  C100  1  0.27360000  0.83670000  0.92030000  1.0 -0.0970430594
C  C101  1  0.31230000  0.81440000  0.86930000  1.0 -0.0195162207
C  C102  1  0.33030000  0.76040000  0.90290000  1.0 0.4013456904
C  C103  1  0.80680000  0.48870000  0.59857000  1.0 0.4796402731
C  C104  1  0.86460000  0.54980000  0.55007000  1.0 -0.0321876515
C  C105  1  0.89990000  0.61880000  0.58507000  1.0 -0.0933056843
C  C106  1  0.88130000  0.54090000  0.46437000  1.0 -0.1065173146
C  C107  1  0.95030000  0.67770000  0.53727000  1.0 -0.1618282965
C  C108  1  0.93210000  0.59980000  0.41767000  1.0 -0.1498959136
C  C109  1  0.96690000  0.66910000  0.45107000  1.0 0.0699720529
C  C110  1  0.02030000  0.73340000  0.39367000  1.0 -0.2930549355
C  C111  1  0.07860000  0.71790000  0.35727000  1.0 0.0796098172
C  C112  1  0.97460000  0.74180000  0.32267000  1.0 0.6500974624
C  C113  1  0.06060000  0.80450000  0.44647000  1.0 0.6500974624
C  C114  1  0.10330000  0.68120000  0.40967000  1.0 -0.1407243364
C  C115  1  0.11050000  0.74160000  0.27477000  1.0 -0.1498959136
C  C116  1  0.15640000  0.66760000  0.38107000  1.0 -0.1407243364
C  C117  1  0.16330000  0.72640000  0.24637000  1.0 -0.0970430594
C  C118  1  0.18560000  0.68770000  0.29737000  1.0 -0.0195162207
C  C119  1  0.23960000  0.66970000  0.26377000  1.0 0.4013456904
C  C120  1  0.51130000  0.31810000  0.26523000  1.0 0.4796402731
C  C121  1  0.45020000  0.31480000  0.21673000  1.0 -0.0321876515
C  C122  1  0.38120000  0.28110000  0.25173000  1.0 -0.0933056843
C  C123  1  0.45910000  0.34040000  0.13103000  1.0 -0.1065173146
C  C124  1  0.32230000  0.27260000  0.20393000  1.0 -0.1618282965
C  C125  1  0.40020000  0.33230000  0.08433000  1.0 -0.1498959136
C  C126  1  0.33090000  0.29780000  0.11773000  1.0 0.0699720529
C  C127  1  0.26660000  0.28690000  0.06033000  1.0 -0.2930549355
C  C128  1  0.28210000  0.36070000  0.02393000  1.0 0.0796098172
C  C129  1  0.25820000  0.23280000  0.98933000  1.0 0.6500974624
C  C130  1  0.19550000  0.25610000  0.11313000  1.0 0.6500974624
C  C131  1  0.31880000  0.42210000  0.07633000  1.0 -0.1407243364
C  C132  1  0.25840000  0.36890000  0.94143000  1.0 -0.1498959136
C  C133  1  0.33240000  0.48880000  0.04773000  1.0 -0.1407243364
C  C134  1  0.27360000  0.43690000  0.91303000  1.0 -0.0970430594
C  C135  1  0.31230000  0.49790000  0.96403000  1.0 -0.0195162207
C  C136  1  0.33030000  0.56990000  0.93043000  1.0 0.4013456904
C  C137  1  0.68190000  0.19320000  0.93190000  1.0 0.4796402731
C  C138  1  0.68520000  0.13540000  0.88340000  1.0 -0.0321876515
C  C139  1  0.71890000  0.10010000  0.91840000  1.0 -0.0933056843
C  C140  1  0.65960000  0.11870000  0.79770000  1.0 -0.1065173146
C  C141  1  0.72740000  0.04970000  0.87060000  1.0 -0.1618282965
C  C142  1  0.66770000  0.06790000  0.75100000  1.0 -0.1498959136
C  C143  1  0.70220000  0.03310000  0.78440000  1.0 0.0699720529
C  C144  1  0.71310000  0.97970000  0.72700000  1.0 -0.2930549355
C  C145  1  0.63930000  0.92140000  0.69060000  1.0 0.0796098172
C  C146  1  0.76720000  0.02540000  0.65600000  1.0 0.6500974624
C  C147  1  0.74390000  0.93940000  0.77980000  1.0 0.6500974624
C  C148  1  0.57790000  0.89670000  0.74300000  1.0 -0.1407243364
C  C149  1  0.63110000  0.88950000  0.60810000  1.0 -0.1498959136
C  C150  1  0.51120000  0.84360000  0.71440000  1.0 -0.1407243364
C  C151  1  0.56310000  0.83670000  0.57970000  1.0 -0.0970430594
C  C152  1  0.50210000  0.81440000  0.63070000  1.0 -0.0195162207
C  C153  1  0.43010000  0.76040000  0.59710000  1.0 0.4013456904
C  C154  1  0.19320000  0.51130000  0.09857000  1.0 0.4796402731
C  C155  1  0.13540000  0.45020000  0.05007000  1.0 -0.0321876515
C  C156  1  0.10010000  0.38120000  0.08507000  1.0 -0.0933056843
C  C157  1  0.11870000  0.45910000  0.96437000  1.0 -0.1065173146
C  C158  1  0.04970000  0.32230000  0.03727000  1.0 -0.1618282965
C  C159  1  0.06790000  0.40020000  0.91767000  1.0 -0.1498959136
C  C160  1  0.03310000  0.33090000  0.95107000  1.0 0.0699720529
C  C161  1  0.97970000  0.26660000  0.89367000  1.0 -0.2930549355
C  C162  1  0.92140000  0.28210000  0.85727000  1.0 0.0796098172
C  C163  1  0.02540000  0.25820000  0.82267000  1.0 0.6500974624
C  C164  1  0.93940000  0.19550000  0.94647000  1.0 0.6500974624
C  C165  1  0.89670000  0.31880000  0.90967000  1.0 -0.1407243364
C  C166  1  0.88950000  0.25840000  0.77477000  1.0 -0.1498959136
C  C167  1  0.84360000  0.33240000  0.88107000  1.0 -0.1407243364
C  C168  1  0.83670000  0.27360000  0.74637000  1.0 -0.0970430594
C  C169  1  0.81440000  0.31230000  0.79737000  1.0 -0.0195162207
C  C170  1  0.76040000  0.33030000  0.76377000  1.0 0.4013456904
C  C171  1  0.48870000  0.68190000  0.76523000  1.0 0.4796402731
C  C172  1  0.54980000  0.68520000  0.71673000  1.0 -0.0321876515
C  C173  1  0.61880000  0.71890000  0.75173000  1.0 -0.0933056843
C  C174  1  0.54090000  0.65960000  0.63103000  1.0 -0.1065173146
C  C175  1  0.67770000  0.72740000  0.70393000  1.0 -0.1618282965
C  C176  1  0.59980000  0.66770000  0.58433000  1.0 -0.1498959136
C  C177  1  0.66910000  0.70220000  0.61773000  1.0 0.0699720529
C  C178  1  0.73340000  0.71310000  0.56033000  1.0 -0.2930549355
C  C179  1  0.71790000  0.63930000  0.52393000  1.0 0.0796098172
C  C180  1  0.74180000  0.76720000  0.48933000  1.0 0.6500974624
C  C181  1  0.80450000  0.74390000  0.61313000  1.0 0.6500974624
C  C182  1  0.68120000  0.57790000  0.57633000  1.0 -0.1407243364
C  C183  1  0.74160000  0.63110000  0.44143000  1.0 -0.1498959136
C  C184  1  0.66760000  0.51120000  0.54773000  1.0 -0.1407243364
C  C185  1  0.72640000  0.56310000  0.41303000  1.0 -0.0970430594
C  C186  1  0.68770000  0.50210000  0.46403000  1.0 -0.0195162207
C  C187  1  0.66970000  0.43010000  0.43043000  1.0 0.4013456904
C  C188  1  0.31810000  0.80680000  0.43190000  1.0 0.4796402731
C  C189  1  0.31480000  0.86460000  0.38340000  1.0 -0.0321876515
C  C190  1  0.28110000  0.89990000  0.41840000  1.0 -0.0933056843
C  C191  1  0.34040000  0.88130000  0.29770000  1.0 -0.1065173146
C  C192  1  0.27260000  0.95030000  0.37060000  1.0 -0.1618282965
C  C193  1  0.33230000  0.93210000  0.25100000  1.0 -0.1498959136
C  C194  1  0.29780000  0.96690000  0.28440000  1.0 0.0699720529
C  C195  1  0.28690000  0.02030000  0.22700000  1.0 -0.2930549355
C  C196  1  0.36070000  0.07860000  0.19060000  1.0 0.0796098172
C  C197  1  0.23280000  0.97460000  0.15600000  1.0 0.6500974624
C  C198  1  0.25610000  0.06060000  0.27980000  1.0 0.6500974624
C  C199  1  0.42210000  0.10330000  0.24300000  1.0 -0.1407243364
C  C200  1  0.36890000  0.11050000  0.10810000  1.0 -0.1498959136
C  C201  1  0.48880000  0.15640000  0.21440000  1.0 -0.1407243364
C  C202  1  0.43690000  0.16330000  0.07970000  1.0 -0.0970430594
C  C203  1  0.49790000  0.18560000  0.13070000  1.0 -0.0195162207
C  C204  1  0.56990000  0.23960000  0.09710000  1.0 0.4013456904
O  O1  1  0.29700000  0.50030000  0.32423000  1.0 -0.5676858348
O  O2  1  0.62570000  0.37130000  0.68693000  1.0 -0.7243097496
O  O3  1  0.34250000  0.57170000  0.43893000  1.0 -0.6842886877
O  O4  1  0.57590000  0.30980000  0.81063000  1.0 -0.6857200932
O  O5  1  0.20330000  0.70300000  0.65757000  1.0 -0.5676858348
O  O6  1  0.74560000  0.37430000  0.02027000  1.0 -0.7243097496
O  O7  1  0.22920000  0.65750000  0.77227000  1.0 -0.6842886877
O  O8  1  0.73390000  0.42410000  0.14397000  1.0 -0.6857200932
O  O9  1  0.49970000  0.79670000  0.99090000  1.0 -0.5676858348
O  O10  1  0.62870000  0.25440000  0.35360000  1.0 -0.7243097496
O  O11  1  0.42830000  0.77080000  0.10560000  1.0 -0.6842886877
O  O12  1  0.69020000  0.26610000  0.47730000  1.0 -0.6857200932
O  O13  1  0.70300000  0.49970000  0.82423000  1.0 -0.5676858348
O  O14  1  0.37430000  0.62870000  0.18693000  1.0 -0.7243097496
O  O15  1  0.65750000  0.42830000  0.93893000  1.0 -0.6842886877
O  O16  1  0.42410000  0.69020000  0.31063000  1.0 -0.6857200932
O  O17  1  0.79670000  0.29700000  0.15757000  1.0 -0.5676858348
O  O18  1  0.25440000  0.62570000  0.52027000  1.0 -0.7243097496
O  O19  1  0.77080000  0.34250000  0.27227000  1.0 -0.6857200932
O  O20  1  0.26610000  0.57590000  0.64397000  1.0 -0.6857200932
O  O21  1  0.50030000  0.20330000  0.49090000  1.0 -0.5676858348
O  O22  1  0.37130000  0.74560000  0.85360000  1.0 -0.7243097496
O  O23  1  0.57170000  0.22920000  0.60560000  1.0 -0.6842886877
O  O24  1  0.30980000  0.73390000  0.97730000  1.0 -0.6857200932
O  O25  1  0.79670000  0.49970000  0.67577000  1.0 -0.5676858348
O  O26  1  0.25440000  0.62870000  0.31307000  1.0 -0.7243097496
O  O27  1  0.77080000  0.42830000  0.56107000  1.0 -0.6842886877
O  O28  1  0.26610000  0.69020000  0.18937000  1.0 -0.6857200932
O  O29  1  0.50030000  0.29700000  0.34243000  1.0 -0.5676858348
O  O30  1  0.37130000  0.62570000  0.97973000  1.0 -0.7243097496
O  O31  1  0.57170000  0.34250000  0.22773000  1.0 -0.6842886877
O  O32  1  0.30980000  0.57590000  0.85603000  1.0 -0.6857200932
O  O33  1  0.70300000  0.20330000  0.00910000  1.0 -0.5676858348
O  O34  1  0.37430000  0.74560000  0.64640000  1.0 -0.7243097496
O  O35  1  0.65750000  0.22920000  0.89440000  1.0 -0.6842886877
O  O36  1  0.42410000  0.73390000  0.52270000  1.0 -0.6857200932
O  O37  1  0.20330000  0.50030000  0.17577000  1.0 -0.5676858348
O  O38  1  0.74560000  0.37130000  0.81307000  1.0 -0.7243097496
O  O39  1  0.22920000  0.57170000  0.06107000  1.0 -0.6842886877
O  O40  1  0.73390000  0.30980000  0.68937000  1.0 -0.6857200932
O  O41  1  0.49970000  0.70300000  0.84243000  1.0 -0.5676858348
O  O42  1  0.62870000  0.37430000  0.47973000  1.0 -0.7243097496
O  O43  1  0.42830000  0.65750000  0.72773000  1.0 -0.6842886877
O  O44  1  0.69020000  0.42410000  0.35603000  1.0 -0.6857200932
O  O45  1  0.29700000  0.79670000  0.50910000  1.0 -0.5676858348
O  O46  1  0.62570000  0.25440000  0.14640000  1.0 -0.7243097496
O  O47  1  0.34250000  0.77080000  0.39440000  1.0 -0.6842886877
O  O48  1  0.57590000  0.26610000  0.02270000  1.0 -0.6857200932
F  F1  1  0.26220000  0.31170000  0.73563000  1.0 -0.1990692657
F  F2  1  0.20650000  0.19600000  0.72183000  1.0 -0.1990692657
F  F3  1  0.17510000  0.25950000  0.64453000  1.0 -0.1990692657
F  F4  1  0.29660000  0.20010000  0.48693000  1.0 -0.1990692657
F  F5  1  0.25150000  0.14120000  0.60443000  1.0 -0.1990692657
F  F6  1  0.18740000  0.17160000  0.52553000  1.0 -0.2068296295
F  F7  1  0.04950000  0.73780000  0.06897000  1.0 -0.1990692657
F  F8  1  0.98950000  0.79350000  0.05517000  1.0 -0.1990692657
F  F9  1  0.08440000  0.82490000  0.97787000  1.0 -0.1990692657
F  F10  1  0.90350000  0.70340000  0.82027000  1.0 -0.1990692657
F  F11  1  0.88970000  0.74850000  0.93777000  1.0 -0.1990692657
F  F12  1  0.98420000  0.81260000  0.85887000  1.0 -0.2068296295
F  F13  1  0.68830000  0.95050000  0.40230000  1.0 -0.1990692657
F  F14  1  0.80400000  0.01050000  0.38850000  1.0 -0.1990692657
F  F15  1  0.74050000  0.91560000  0.31120000  1.0 -0.1990692657
F  F16  1  0.79990000  0.09650000  0.15360000  1.0 -0.1990692657
F  F17  1  0.85880000  0.11030000  0.27110000  1.0 -0.1990692657
F  F18  1  0.82840000  0.01580000  0.19220000  1.0 -0.2068296295
F  F19  1  0.73780000  0.68830000  0.23563000  1.0 -0.1990692657
F  F20  1  0.79350000  0.80400000  0.22183000  1.0 -0.1990692657
F  F21  1  0.82490000  0.74050000  0.14453000  1.0 -0.1990692657
F  F22  1  0.70340000  0.79990000  0.98693000  1.0 -0.1990692657
F  F23  1  0.74850000  0.85880000  0.10443000  1.0 -0.1990692657
F  F24  1  0.81260000  0.82840000  0.02553000  1.0 -0.2068296295
F  F25  1  0.95050000  0.26220000  0.56897000  1.0 -0.1990692657
F  F26  1  0.01050000  0.20650000  0.55517000  1.0 -0.1990692657
F  F27  1  0.91560000  0.17510000  0.47787000  1.0 -0.1990692657
F  F28  1  0.09650000  0.29660000  0.32027000  1.0 -0.1990692657
F  F29  1  0.11030000  0.25150000  0.43777000  1.0 -0.1990692657
F  F30  1  0.01580000  0.18740000  0.35887000  1.0 -0.2068296295
F  F31  1  0.31170000  0.04950000  0.90230000  1.0 -0.1990692657
F  F32  1  0.19600000  0.98950000  0.88850000  1.0 -0.1990692657
F  F33  1  0.25950000  0.08440000  0.81120000  1.0 -0.1990692657
F  F34  1  0.20010000  0.90350000  0.65360000  1.0 -0.1990692657
F  F35  1  0.14120000  0.88970000  0.77110000  1.0 -0.1990692657
F  F36  1  0.17160000  0.98420000  0.69220000  1.0 -0.2068296295
F  F37  1  0.95050000  0.68830000  0.26437000  1.0 -0.1990692657
F  F38  1  0.01050000  0.80400000  0.27817000  1.0 -0.1990692657
F  F39  1  0.91560000  0.74050000  0.35547000  1.0 -0.1990692657
F  F40  1  0.09650000  0.79990000  0.51307000  1.0 -0.1990692657
F  F41  1  0.11030000  0.85880000  0.39557000  1.0 -0.1990692657
F  F42  1  0.01580000  0.82840000  0.47447000  1.0 -0.2068296295
F  F43  1  0.31170000  0.26220000  0.93103000  1.0 -0.1990692657
F  F44  1  0.19600000  0.20650000  0.94483000  1.0 -0.1990692657
F  F45  1  0.25950000  0.17510000  0.02213000  1.0 -0.1990692657
F  F46  1  0.20010000  0.29660000  0.17973000  1.0 -0.1990692657
F  F47  1  0.14120000  0.25150000  0.06223000  1.0 -0.1990692657
F  F48  1  0.17160000  0.18740000  0.14113000  1.0 -0.2068296295
F  F49  1  0.73780000  0.04950000  0.59770000  1.0 -0.1990692657
F  F50  1  0.79350000  0.98950000  0.61150000  1.0 -0.1990692657
F  F51  1  0.82490000  0.08440000  0.68880000  1.0 -0.1990692657
F  F52  1  0.70340000  0.90350000  0.84640000  1.0 -0.1990692657
F  F53  1  0.74850000  0.88970000  0.72890000  1.0 -0.1990692657
F  F54  1  0.81260000  0.98420000  0.80780000  1.0 -0.2068296295
F  F55  1  0.04950000  0.31170000  0.76437000  1.0 -0.1990692657
F  F56  1  0.98950000  0.19600000  0.77817000  1.0 -0.1990692657
F  F57  1  0.08440000  0.25950000  0.85547000  1.0 -0.1990692657
F  F58  1  0.90350000  0.20010000  0.01307000  1.0 -0.1990692657
F  F59  1  0.88970000  0.14120000  0.89557000  1.0 -0.1990692657
F  F60  1  0.98420000  0.17160000  0.97447000  1.0 -0.2068296295
F  F61  1  0.68830000  0.73780000  0.43103000  1.0 -0.1990692657
F  F62  1  0.80400000  0.79350000  0.44483000  1.0 -0.1990692657
F  F63  1  0.74050000  0.82490000  0.52213000  1.0 -0.1990692657
F  F64  1  0.79990000  0.70340000  0.67973000  1.0 -0.1990692657
F  F65  1  0.85880000  0.74850000  0.56223000  1.0 -0.1990692657
F  F66  1  0.82840000  0.81260000  0.64113000  1.0 -0.2068296295
F  F67  1  0.26220000  0.95050000  0.09770000  1.0 -0.1990692657
F  F68  1  0.20650000  0.01050000  0.11150000  1.0 -0.1990692657
F  F69  1  0.17510000  0.91560000  0.18880000  1.0 -0.1990692657
F  F70  1  0.29660000  0.09650000  0.34640000  1.0 -0.1990692657
F  F71  1  0.25150000  0.11030000  0.22890000  1.0 -0.1990692657
F  F72  1  0.18740000  0.01580000  0.30780000  1.0 -0.2068296295
