# DDEC6 charges by PACMAN v1.1 (https://github.com/mtap-research/PACMAN-charge/)
data_KIRRIP_FSR_pacman
_chemical_formula_sum              "O48 C204 H96 F72 Co12 Zn4 Mn6"
_cell_length_a       21.2398
_cell_length_b       21.2398
_cell_length_c       15.0528
_cell_angle_alpha    90
_cell_angle_beta     90
_cell_angle_gamma    120

_symmetry_space_group_name_H-M    "P 1"
_symmetry_Int_Tables_number       1

loop_
  _symmetry_equiv_pos_as_xyz
  'x, y, z'

loop_
  _atom_site_type_symbol
  _atom_site_label
  _atom_site_symmetry_multiplicity
  _atom_site_fract_x
  _atom_site_fract_y
  _atom_site_fract_z
  _atom_site_occupancy
 _atom_site_charge
O   O1        1.0  0.62589  0.25675  0.85300  1.0000 -0.6689332535
O   O2        1.0  0.70030  0.20430  0.99190  1.0000 -0.513608854
C   C1        1.0  0.57040  0.24200  0.90460  1.0000 0.5514338205
O   O3        1.0  0.57632  0.26822  0.97950  1.0000 -0.609082069
C   C2        1.0  0.49700  0.18800  0.86930  1.0000 -0.0222563861
O   O4        1.0  0.57641  0.34550  0.77640  1.0000 -0.6307424118
C   C3        1.0  0.43540  0.16570  0.92180  1.0000 -0.10169984
C   C4        1.0  0.48940  0.15740  0.78630  1.0000 -0.1432327905
C   C5        1.0  0.36830  0.11340  0.89160  1.0000 -0.1432327905
H   H1        1.0  0.43970  0.18660  0.97820  1.0000 0.128473818
C   C6        1.0  0.42180  0.10440  0.75660  1.0000 -0.1432327905
H   H2        1.0  0.53040  0.17270  0.74970  1.0000 0.1122440812
H   H3        1.0  0.32690  0.09970  0.92690  1.0000 0.1122440812
C   C7        1.0  0.36070  0.08050  0.80950  1.0000 0.073689353
H   H4        1.0  0.41730  0.08430  0.69980  1.0000 0.1193895703
C   C8        1.0  0.28670  0.02050  0.77180  1.0000 -0.285673063
C   C9        1.0  0.29830  0.96620  0.71490  1.0000 0.073689353
C   C10       1.0  0.23200  0.97640  0.84610  1.0000 0.6511706501
C   C11       1.0  0.25580  0.06030  0.71740  1.0000 0.6511706501
C   C12       1.0  0.27230  0.94800  0.62880  1.0000 -0.1634891726
C   C13       1.0  0.33320  0.93270  0.75390  1.0000 -0.1499775394
F   F1        1.0  0.26190  0.95360  0.90660  1.0000 -0.1993358286
F   F2        1.0  0.20570  0.01280  0.88890  1.0000 -0.1993358286
F   F3        1.0  0.17490  0.91680  0.81220  1.0000 -0.1993358286
F   F4        1.0  0.29670  0.09380  0.64770  1.0000 -0.1993358286
F   F5        1.0  0.25200  0.11120  0.76630  1.0000 -0.1993358286
F   F6        1.0  0.18800  0.01560  0.68780  1.0000 -0.1993358286
C   C14       1.0  0.28230  0.89740  0.58280  1.0000 -0.0937285017
H   H5        1.0  0.24810  0.96990  0.60190  1.0000 0.1122440812
C   C15       1.0  0.34190  0.88110  0.70860  1.0000 -0.1073869837
H   H6        1.0  0.35130  0.94550  0.81200  1.0000 0.1122440812
C   C16       1.0  0.31620  0.86310  0.62090  1.0000 -0.0414124557
H   H7        1.0  0.26550  0.88600  0.52400  1.0000 0.1193895703
H   H8        1.0  0.36470  0.85820  0.73620  1.0000 0.1193895703
C   C17       1.0  0.32160  0.80540  0.57200  1.0000 0.5567779134
O   O5        1.0  0.74325  0.36914  0.18633  1.0000 -0.7245076259
O   O6        1.0  0.79570  0.49600  0.32523  1.0000 -0.5813527663
C   C18       1.0  0.75800  0.32840  0.23793  1.0000 0.4178517687
O   O7        1.0  0.73178  0.30810  0.31283  1.0000 -0.5936337521
C   C19       1.0  0.81200  0.30900  0.20263  1.0000 -8.18115e-05
O   O8        1.0  0.65450  0.23091  0.10973  1.0000 -0.6307424118
C   C20       1.0  0.83430  0.26970  0.25513  1.0000 -0.10169984
C   C21       1.0  0.84260  0.33200  0.11963  1.0000 -0.1308796012
C   C22       1.0  0.88660  0.25490  0.22493  1.0000 -0.1432327905
H   H9        1.0  0.81340  0.25310  0.31153  1.0000 0.128473818
C   C23       1.0  0.89560  0.31740  0.08993  1.0000 -0.1308796012
H   H10       1.0  0.82730  0.35770  0.08303  1.0000 0.1193895703
H   H11       1.0  0.90030  0.22720  0.26023  1.0000 0.1122440812
C   C24       1.0  0.91950  0.28020  0.14283  1.0000 0.073689353
H   H12       1.0  0.91570  0.33300  0.03313  1.0000 0.1193895703
C   C25       1.0  0.97950  0.26620  0.10513  1.0000 -0.285673063
C   C26       1.0  0.03380  0.33210  0.04823  1.0000 0.0754175207
C   C27       1.0  0.02360  0.25560  0.17943  1.0000 0.6511706501
C   C28       1.0  0.93970  0.19550  0.05073  1.0000 0.6511706501
C   C29       1.0  0.05200  0.32430  0.96213  1.0000 -0.1634891726
C   C30       1.0  0.06730  0.40050  0.08723  1.0000 -0.1499775394
F   F7        1.0  0.04640  0.30830  0.23993  1.0000 -0.1993358286
F   F8        1.0  0.98720  0.19290  0.22223  1.0000 -0.1993358286
F   F9        1.0  0.08320  0.25810  0.14553  1.0000 -0.1993358286
F   F10       1.0  0.90620  0.20290  0.98103  1.0000 -0.1993358286
F   F11       1.0  0.88880  0.14080  0.09963  1.0000 -0.1993358286
F   F12       1.0  0.98440  0.17240  0.02113  1.0000 -0.1993358286
C   C31       1.0  0.10260  0.38490  0.91613  1.0000 -0.0937285017
H   H13       1.0  0.03010  0.27820  0.93523  1.0000 0.1122440812
C   C32       1.0  0.11890  0.46080  0.04193  1.0000 -0.1073869837
H   H14       1.0  0.05450  0.40580  0.14533  1.0000 0.1122440812
C   C33       1.0  0.13690  0.45310  0.95423  1.0000 -0.0222563861
H   H15       1.0  0.11400  0.37950  0.85733  1.0000 0.128473818
H   H16       1.0  0.14180  0.50650  0.06953  1.0000 0.128473818
C   C34       1.0  0.19460  0.51620  0.90533  1.0000 0.4793677593
O   O9        1.0  0.63086  0.37411  0.51967  1.0000 -0.7125016262
O   O10       1.0  0.50400  0.29970  0.65857  1.0000 -0.5813527663
C   C35       1.0  0.67160  0.42960  0.57127  1.0000 0.4178517687
O   O11       1.0  0.69190  0.42368  0.64617  1.0000 -0.609082069
C   C36       1.0  0.69100  0.50300  0.53597  1.0000 -8.18115e-05
O   O12       1.0  0.76909  0.42359  0.44307  1.0000 -0.6038989832
C   C37       1.0  0.73030  0.56460  0.58847  1.0000 -0.10169984
C   C38       1.0  0.66800  0.51060  0.45297  1.0000 -0.1499775394
C   C39       1.0  0.74510  0.63170  0.55827  1.0000 -0.1432327905
H   H17       1.0  0.74690  0.56030  0.64487  1.0000 0.128473818
C   C40       1.0  0.68260  0.57820  0.42327  1.0000 -0.1432327905
H   H18       1.0  0.64230  0.46960  0.41637  1.0000 0.1122440812
H   H19       1.0  0.77280  0.67310  0.59357  1.0000 0.1122440812
C   C41       1.0  0.71980  0.63930  0.47617  1.0000 0.073689353
H   H20       1.0  0.66700  0.58270  0.36647  1.0000 0.1193895703
C   C42       1.0  0.73380  0.71330  0.43847  1.0000 -0.285673063
C   C43       1.0  0.66790  0.70170  0.38157  1.0000 0.0754175207
C   C44       1.0  0.74440  0.76800  0.51277  1.0000 0.6511706501
C   C45       1.0  0.80450  0.74420  0.38407  1.0000 0.6511706501
C   C46       1.0  0.67570  0.72770  0.29547  1.0000 -0.1634891726
C   C47       1.0  0.59950  0.66680  0.42057  1.0000 -0.1499775394
F   F13       1.0  0.69170  0.73810  0.57327  1.0000 -0.1993358286
F   F14       1.0  0.80710  0.79430  0.55557  1.0000 -0.1993358286
F   F15       1.0  0.74190  0.82510  0.47887  1.0000 -0.1993358286
F   F16       1.0  0.79710  0.70330  0.31437  1.0000 -0.1993358286
F   F17       1.0  0.85920  0.74800  0.43297  1.0000 -0.1993358286
F   F18       1.0  0.82760  0.81200  0.35447  1.0000 -0.1993358286
C   C48       1.0  0.61510  0.71770  0.24947  1.0000 -0.0937285017
H   H21       1.0  0.72180  0.75190  0.26857  1.0000 0.1122440812
C   C49       1.0  0.53920  0.65810  0.37527  1.0000 -0.1073869837
H   H22       1.0  0.59420  0.64870  0.47867  1.0000 0.1122440812
C   C50       1.0  0.54690  0.68380  0.28757  1.0000 -0.0222563861
H   H23       1.0  0.62050  0.73450  0.19067  1.0000 0.128473818
H   H24       1.0  0.49350  0.63530  0.40287  1.0000 0.128473818
C   C51       1.0  0.48380  0.67840  0.23867  1.0000 0.4738072495
O   O13       1.0  0.37411  0.74325  0.35300  1.0000 -0.6689332535
O   O14       1.0  0.29970  0.79570  0.49190  1.0000 -0.513608854
C   C52       1.0  0.42960  0.75800  0.40460  1.0000 0.5514338205
O   O15       1.0  0.42368  0.73178  0.47950  1.0000 -0.609082069
C   C53       1.0  0.50300  0.81200  0.36930  1.0000 -0.0222563861
O   O16       1.0  0.42359  0.65450  0.27640  1.0000 -0.6307424118
C   C54       1.0  0.56460  0.83430  0.42180  1.0000 -0.10169984
C   C55       1.0  0.51060  0.84260  0.28630  1.0000 -0.1432327905
C   C56       1.0  0.63170  0.88660  0.39160  1.0000 -0.1432327905
H   H25       1.0  0.56030  0.81340  0.47820  1.0000 0.128473818
C   C57       1.0  0.57820  0.89560  0.25660  1.0000 -0.1432327905
H   H26       1.0  0.46960  0.82730  0.24970  1.0000 0.1122440812
H   H27       1.0  0.67310  0.90030  0.42690  1.0000 0.1122440812
C   C58       1.0  0.63930  0.91950  0.30950  1.0000 0.073689353
H   H28       1.0  0.58270  0.91570  0.19980  1.0000 0.1193895703
C   C59       1.0  0.71330  0.97950  0.27180  1.0000 -0.285673063
C   C60       1.0  0.70170  0.03380  0.21490  1.0000 0.073689353
C   C61       1.0  0.76800  0.02360  0.34610  1.0000 0.6511706501
C   C62       1.0  0.74420  0.93970  0.21740  1.0000 0.6511706501
C   C63       1.0  0.72770  0.05200  0.12880  1.0000 -0.1634891726
C   C64       1.0  0.66680  0.06730  0.25390  1.0000 -0.1499775394
F   F19       1.0  0.73810  0.04640  0.40660  1.0000 -0.1993358286
F   F20       1.0  0.79430  0.98720  0.38890  1.0000 -0.1993358286
F   F21       1.0  0.82510  0.08320  0.31220  1.0000 -0.1993358286
F   F22       1.0  0.70330  0.90620  0.14770  1.0000 -0.1993358286
F   F23       1.0  0.74800  0.88880  0.26630  1.0000 -0.1993358286
F   F24       1.0  0.81200  0.98440  0.18780  1.0000 -0.1993358286
C   C65       1.0  0.71770  0.10260  0.08280  1.0000 -0.0937285017
H   H29       1.0  0.75190  0.03010  0.10190  1.0000 0.1122440812
C   C66       1.0  0.65810  0.11890  0.20860  1.0000 -0.1073869837
H   H30       1.0  0.64870  0.05450  0.31200  1.0000 0.1122440812
C   C67       1.0  0.68380  0.13690  0.12090  1.0000 -0.0414124557
H   H31       1.0  0.73450  0.11400  0.02400  1.0000 0.1193895703
H   H32       1.0  0.63530  0.14180  0.23620  1.0000 0.1193895703
C   C68       1.0  0.67840  0.19460  0.07200  1.0000 0.5567779134
O   O17       1.0  0.25675  0.63086  0.68633  1.0000 -0.7245076259
O   O18       1.0  0.20430  0.50400  0.82523  1.0000 -0.5813527663
C   C69       1.0  0.24200  0.67160  0.73793  1.0000 0.4178517687
O   O19       1.0  0.26822  0.69190  0.81283  1.0000 -0.5936337521
C   C70       1.0  0.18800  0.69100  0.70263  1.0000 -8.18115e-05
O   O20       1.0  0.34550  0.76909  0.60973  1.0000 -0.6307424118
C   C71       1.0  0.16570  0.73030  0.75513  1.0000 -0.10169984
C   C72       1.0  0.15740  0.66800  0.61963  1.0000 -0.1308796012
C   C73       1.0  0.11340  0.74510  0.72493  1.0000 -0.1432327905
H   H33       1.0  0.18660  0.74690  0.81153  1.0000 0.128473818
C   C74       1.0  0.10440  0.68260  0.58993  1.0000 -0.1308796012
H   H34       1.0  0.17270  0.64230  0.58303  1.0000 0.1193895703
H   H35       1.0  0.09970  0.77280  0.76023  1.0000 0.1122440812
C   C75       1.0  0.08050  0.71980  0.64283  1.0000 0.073689353
H   H36       1.0  0.08430  0.66700  0.53313  1.0000 0.1193895703
C   C76       1.0  0.02050  0.73380  0.60513  1.0000 -0.285673063
C   C77       1.0  0.96620  0.66790  0.54823  1.0000 0.0754175207
C   C78       1.0  0.97640  0.74440  0.67943  1.0000 0.6511706501
C   C79       1.0  0.06030  0.80450  0.55073  1.0000 0.6511706501
C   C80       1.0  0.94800  0.67570  0.46213  1.0000 -0.1634891726
C   C81       1.0  0.93270  0.59950  0.58723  1.0000 -0.1499775394
F   F25       1.0  0.95360  0.69170  0.73993  1.0000 -0.1993358286
F   F26       1.0  0.01280  0.80710  0.72223  1.0000 -0.1993358286
F   F27       1.0  0.91680  0.74190  0.64553  1.0000 -0.1993358286
F   F28       1.0  0.09380  0.79710  0.48103  1.0000 -0.1993358286
F   F29       1.0  0.11120  0.85920  0.59963  1.0000 -0.1993358286
F   F30       1.0  0.01560  0.82760  0.52113  1.0000 -0.1993358286
C   C82       1.0  0.89740  0.61510  0.41613  1.0000 -0.0937285017
H   H37       1.0  0.96990  0.72180  0.43523  1.0000 0.1122440812
C   C83       1.0  0.88110  0.53920  0.54193  1.0000 -0.1073869837
H   H38       1.0  0.94550  0.59420  0.64533  1.0000 0.1122440812
C   C84       1.0  0.86310  0.54690  0.45423  1.0000 -0.0222563861
H   H39       1.0  0.88600  0.62050  0.35733  1.0000 0.128473818
H   H40       1.0  0.85820  0.49350  0.56953  1.0000 0.128473818
C   C85       1.0  0.80540  0.48380  0.40533  1.0000 0.4793677593
O   O21       1.0  0.36914  0.62589  0.01967  1.0000 -0.7125016262
O   O22       1.0  0.49600  0.70030  0.15857  1.0000 -0.5813527663
C   C86       1.0  0.32840  0.57040  0.07127  1.0000 0.4178517687
O   O23       1.0  0.30810  0.57632  0.14617  1.0000 -0.609082069
C   C87       1.0  0.30900  0.49700  0.03597  1.0000 -8.18115e-05
O   O24       1.0  0.23091  0.57641  0.94307  1.0000 -0.6038989832
C   C88       1.0  0.26970  0.43540  0.08847  1.0000 -0.10169984
C   C89       1.0  0.33200  0.48940  0.95297  1.0000 -0.1499775394
C   C90       1.0  0.25490  0.36830  0.05827  1.0000 -0.1432327905
H   H41       1.0  0.25310  0.43970  0.14487  1.0000 0.128473818
C   C91       1.0  0.31740  0.42180  0.92327  1.0000 -0.1432327905
H   H42       1.0  0.35770  0.53040  0.91637  1.0000 0.1122440812
H   H43       1.0  0.22720  0.32690  0.09357  1.0000 0.1122440812
C   C92       1.0  0.28020  0.36070  0.97617  1.0000 0.073689353
H   H44       1.0  0.33300  0.41730  0.86647  1.0000 0.1193895703
C   C93       1.0  0.26620  0.28670  0.93847  1.0000 -0.285673063
C   C94       1.0  0.33210  0.29830  0.88157  1.0000 0.0754175207
C   C95       1.0  0.25560  0.23200  0.01277  1.0000 0.6511706501
C   C96       1.0  0.19550  0.25580  0.88407  1.0000 0.6511706501
C   C97       1.0  0.32430  0.27230  0.79547  1.0000 -0.1634891726
C   C98       1.0  0.40050  0.33320  0.92057  1.0000 -0.1499775394
F   F31       1.0  0.30830  0.26190  0.07327  1.0000 -0.1993358286
F   F32       1.0  0.19290  0.20570  0.05557  1.0000 -0.1993358286
F   F33       1.0  0.25810  0.17490  0.97887  1.0000 -0.1993358286
F   F34       1.0  0.20290  0.29670  0.81437  1.0000 -0.1993358286
F   F35       1.0  0.14080  0.25200  0.93297  1.0000 -0.1993358286
F   F36       1.0  0.17240  0.18800  0.85447  1.0000 -0.1993358286
C   C99       1.0  0.38490  0.28230  0.74947  1.0000 -0.0937285017
H   H45       1.0  0.27820  0.24810  0.76857  1.0000 0.1122440812
C   C100      1.0  0.46080  0.34190  0.87527  1.0000 -0.1073869837
H   H46       1.0  0.40580  0.35130  0.97867  1.0000 0.1122440812
C   C101      1.0  0.45310  0.31620  0.78757  1.0000 -0.0222563861
H   H47       1.0  0.37950  0.26550  0.69067  1.0000 0.128473818
H   H48       1.0  0.50650  0.36470  0.90287  1.0000 0.128473818
C   C102      1.0  0.51620  0.32160  0.73867  1.0000 0.4738072495
O   O25       1.0  0.25675  0.62589  0.48033  1.0000 -0.6689332535
O   O26       1.0  0.20430  0.70030  0.34143  1.0000 -0.513608854
C   C103      1.0  0.24200  0.57040  0.42873  1.0000 0.5514338205
O   O27       1.0  0.26822  0.57632  0.35383  1.0000 -0.609082069
C   C104      1.0  0.18800  0.49700  0.46403  1.0000 -0.0222563861
O   O28       1.0  0.34550  0.57641  0.55693  1.0000 -0.6307424118
C   C105      1.0  0.16570  0.43540  0.41153  1.0000 -0.10169984
C   C106      1.0  0.15740  0.48940  0.54703  1.0000 -0.1432327905
C   C107      1.0  0.11340  0.36830  0.44173  1.0000 -0.1432327905
H   H49       1.0  0.18660  0.43970  0.35513  1.0000 0.128473818
C   C108      1.0  0.10440  0.42180  0.57673  1.0000 -0.1432327905
H   H50       1.0  0.17270  0.53040  0.58363  1.0000 0.1122440812
H   H51       1.0  0.09970  0.32690  0.40643  1.0000 0.1122440812
C   C109      1.0  0.08050  0.36070  0.52383  1.0000 0.073689353
H   H52       1.0  0.08430  0.41730  0.63353  1.0000 0.1193895703
C   C110      1.0  0.02050  0.28670  0.56153  1.0000 -0.285673063
C   C111      1.0  0.96620  0.29830  0.61843  1.0000 0.073689353
C   C112      1.0  0.97640  0.23200  0.48723  1.0000 0.6511706501
C   C113      1.0  0.06030  0.25580  0.61593  1.0000 0.6511706501
C   C114      1.0  0.94800  0.27230  0.70453  1.0000 -0.1634891726
C   C115      1.0  0.93270  0.33320  0.57943  1.0000 -0.1499775394
F   F37       1.0  0.95360  0.26190  0.42673  1.0000 -0.1993358286
F   F38       1.0  0.01280  0.20570  0.44443  1.0000 -0.1993358286
F   F39       1.0  0.91680  0.17490  0.52113  1.0000 -0.1993358286
F   F40       1.0  0.09380  0.29670  0.68563  1.0000 -0.1993358286
F   F41       1.0  0.11120  0.25200  0.56703  1.0000 -0.1993358286
F   F42       1.0  0.01560  0.18800  0.64553  1.0000 -0.1993358286
C   C116      1.0  0.89740  0.28230  0.75053  1.0000 -0.0937285017
H   H53       1.0  0.96990  0.24810  0.73143  1.0000 0.1122440812
C   C117      1.0  0.88110  0.34190  0.62473  1.0000 -0.1073869837
H   H54       1.0  0.94550  0.35130  0.52133  1.0000 0.1122440812
C   C118      1.0  0.86310  0.31620  0.71243  1.0000 -0.0414124557
H   H55       1.0  0.88600  0.26550  0.80933  1.0000 0.1193895703
H   H56       1.0  0.85820  0.36470  0.59713  1.0000 0.1193895703
C   C119      1.0  0.80540  0.32160  0.76133  1.0000 0.5567779134
O   O29       1.0  0.36914  0.74325  0.14700  1.0000 -0.7245076259
O   O30       1.0  0.49600  0.79570  0.00810  1.0000 -0.5813527663
C   C120      1.0  0.32840  0.75800  0.09540  1.0000 0.4178517687
O   O31       1.0  0.30810  0.73178  0.02050  1.0000 -0.5936337521
C   C121      1.0  0.30900  0.81200  0.13070  1.0000 0.0010335029
O   O32       1.0  0.23091  0.65450  0.22360  1.0000 -0.6307424118
C   C122      1.0  0.26970  0.83430  0.07820  1.0000 -0.10169984
C   C123      1.0  0.33200  0.84260  0.21370  1.0000 -0.1308796012
C   C124      1.0  0.25490  0.88660  0.10840  1.0000 -0.1432327905
H   H57       1.0  0.25310  0.81340  0.02180  1.0000 0.128473818
C   C125      1.0  0.31740  0.89560  0.24340  1.0000 -0.1308796012
H   H58       1.0  0.35770  0.82730  0.25030  1.0000 0.1193895703
H   H59       1.0  0.22720  0.90030  0.07310  1.0000 0.1122440812
C   C126      1.0  0.28020  0.91950  0.19050  1.0000 0.073689353
H   H60       1.0  0.33300  0.91570  0.30020  1.0000 0.1193895703
C   C127      1.0  0.26620  0.97950  0.22820  1.0000 -0.285673063
C   C128      1.0  0.33210  0.03380  0.28510  1.0000 0.0754175207
C   C129      1.0  0.25560  0.02360  0.15390  1.0000 0.6511706501
C   C130      1.0  0.19550  0.93970  0.28260  1.0000 0.6511706501
C   C131      1.0  0.32430  0.05200  0.37120  1.0000 -0.1634891726
C   C132      1.0  0.40050  0.06730  0.24610  1.0000 -0.1499775394
F   F43       1.0  0.30830  0.04640  0.09340  1.0000 -0.1993358286
F   F44       1.0  0.19290  0.98720  0.11110  1.0000 -0.1993358286
F   F45       1.0  0.25810  0.08320  0.18780  1.0000 -0.1993358286
F   F46       1.0  0.20290  0.90620  0.35230  1.0000 -0.1993358286
F   F47       1.0  0.14080  0.88880  0.23370  1.0000 -0.1993358286
F   F48       1.0  0.17240  0.98440  0.31220  1.0000 -0.1993358286
C   C133      1.0  0.38490  0.10260  0.41720  1.0000 -0.0937285017
H   H61       1.0  0.27820  0.03010  0.39810  1.0000 0.1122440812
C   C134      1.0  0.46080  0.11890  0.29140  1.0000 -0.1073869837
H   H62       1.0  0.40580  0.05450  0.18800  1.0000 0.1122440812
C   C135      1.0  0.45310  0.13690  0.37910  1.0000 -0.0222563861
H   H63       1.0  0.37950  0.11400  0.47600  1.0000 0.128473818
H   H64       1.0  0.50650  0.14180  0.26380  1.0000 0.128473818
C   C136      1.0  0.51620  0.19460  0.42800  1.0000 0.4793677593
O   O33       1.0  0.37411  0.63086  0.81367  1.0000 -0.7125016262
O   O34       1.0  0.29970  0.50400  0.67477  1.0000 -0.5813527663
C   C137      1.0  0.42960  0.67160  0.76207  1.0000 0.4178517687
O   O35       1.0  0.42368  0.69190  0.68717  1.0000 -0.609082069
C   C138      1.0  0.50300  0.69100  0.79737  1.0000 -8.18115e-05
O   O36       1.0  0.42359  0.76909  0.89027  1.0000 -0.6038989832
C   C139      1.0  0.56460  0.73030  0.74487  1.0000 -0.10169984
C   C140      1.0  0.51060  0.66800  0.88037  1.0000 -0.1499775394
C   C141      1.0  0.63170  0.74510  0.77507  1.0000 -0.1432327905
H   H65       1.0  0.56030  0.74690  0.68847  1.0000 0.128473818
C   C142      1.0  0.57820  0.68260  0.91007  1.0000 -0.1432327905
H   H66       1.0  0.46960  0.64230  0.91697  1.0000 0.1122440812
H   H67       1.0  0.67310  0.77280  0.73977  1.0000 0.1122440812
C   C143      1.0  0.63930  0.71980  0.85717  1.0000 0.073689353
H   H68       1.0  0.58270  0.66700  0.96687  1.0000 0.1193895703
C   C144      1.0  0.71330  0.73380  0.89487  1.0000 -0.285673063
C   C145      1.0  0.70170  0.66790  0.95177  1.0000 0.0754175207
C   C146      1.0  0.76800  0.74440  0.82057  1.0000 0.6511706501
C   C147      1.0  0.74420  0.80450  0.94927  1.0000 0.6511706501
C   C148      1.0  0.72770  0.67570  0.03787  1.0000 -0.1634891726
C   C149      1.0  0.66680  0.59950  0.91277  1.0000 -0.1499775394
F   F49       1.0  0.73810  0.69170  0.76007  1.0000 -0.1993358286
F   F50       1.0  0.79430  0.80710  0.77777  1.0000 -0.1993358286
F   F51       1.0  0.82510  0.74190  0.85447  1.0000 -0.1993358286
F   F52       1.0  0.70330  0.79710  0.01897  1.0000 -0.1993358286
F   F53       1.0  0.74800  0.85920  0.90037  1.0000 -0.1993358286
F   F54       1.0  0.81200  0.82760  0.97887  1.0000 -0.1993358286
C   C150      1.0  0.71770  0.61510  0.08387  1.0000 -0.0937285017
H   H69       1.0  0.75190  0.72180  0.06477  1.0000 0.1122440812
C   C151      1.0  0.65810  0.53920  0.95807  1.0000 -0.1073869837
H   H70       1.0  0.64870  0.59420  0.85467  1.0000 0.1122440812
C   C152      1.0  0.68380  0.54690  0.04577  1.0000 -0.0222563861
H   H71       1.0  0.73450  0.62050  0.14267  1.0000 0.128473818
H   H72       1.0  0.63530  0.49350  0.93047  1.0000 0.128473818
C   C153      1.0  0.67840  0.48380  0.09467  1.0000 0.4738072495
O   O37       1.0  0.74325  0.37411  0.98033  1.0000 -0.6689332535
O   O38       1.0  0.79570  0.29970  0.84143  1.0000 -0.513608854
C   C154      1.0  0.75800  0.42960  0.92873  1.0000 0.5514338205
O   O39       1.0  0.73178  0.42368  0.85383  1.0000 -0.609082069
C   C155      1.0  0.81200  0.50300  0.96403  1.0000 -0.0222563861
O   O40       1.0  0.65450  0.42359  0.05693  1.0000 -0.6307424118
C   C156      1.0  0.83430  0.56460  0.91153  1.0000 -0.10169984
C   C157      1.0  0.84260  0.51060  0.04703  1.0000 -0.1432327905
C   C158      1.0  0.88660  0.63170  0.94173  1.0000 -0.1432327905
H   H73       1.0  0.81340  0.56030  0.85513  1.0000 0.128473818
C   C159      1.0  0.89560  0.57820  0.07673  1.0000 -0.1432327905
H   H74       1.0  0.82730  0.46960  0.08363  1.0000 0.1122440812
H   H75       1.0  0.90030  0.67310  0.90643  1.0000 0.1122440812
C   C160      1.0  0.91950  0.63930  0.02383  1.0000 0.073689353
H   H76       1.0  0.91570  0.58270  0.13353  1.0000 0.1193895703
C   C161      1.0  0.97950  0.71330  0.06153  1.0000 -0.285673063
C   C162      1.0  0.03380  0.70170  0.11843  1.0000 0.073689353
C   C163      1.0  0.02360  0.76800  0.98723  1.0000 0.6511706501
C   C164      1.0  0.93970  0.74420  0.11593  1.0000 0.6511706501
C   C165      1.0  0.05200  0.72770  0.20453  1.0000 -0.1634891726
C   C166      1.0  0.06730  0.66680  0.07943  1.0000 -0.1499775394
F   F55       1.0  0.04640  0.73810  0.92673  1.0000 -0.1993358286
F   F56       1.0  0.98720  0.79430  0.94443  1.0000 -0.1993358286
F   F57       1.0  0.08320  0.82510  0.02113  1.0000 -0.1993358286
F   F58       1.0  0.90620  0.70330  0.18563  1.0000 -0.1993358286
F   F59       1.0  0.88880  0.74800  0.06703  1.0000 -0.1993358286
F   F60       1.0  0.98440  0.81200  0.14553  1.0000 -0.1993358286
C   C167      1.0  0.10260  0.71770  0.25053  1.0000 -0.0937285017
H   H77       1.0  0.03010  0.75190  0.23143  1.0000 0.1122440812
C   C168      1.0  0.11890  0.65810  0.12473  1.0000 -0.1073869837
H   H78       1.0  0.05450  0.64870  0.02133  1.0000 0.1122440812
C   C169      1.0  0.13690  0.68380  0.21243  1.0000 -0.0414124557
H   H79       1.0  0.11400  0.73450  0.30933  1.0000 0.1193895703
H   H80       1.0  0.14180  0.63530  0.09713  1.0000 0.1193895703
C   C170      1.0  0.19460  0.67840  0.26133  1.0000 0.5567779134
O   O41       1.0  0.63086  0.25675  0.64700  1.0000 -0.7245076259
O   O42       1.0  0.50400  0.20430  0.50810  1.0000 -0.5813527663
C   C171      1.0  0.67160  0.24200  0.59540  1.0000 0.4178517687
O   O43       1.0  0.69190  0.26822  0.52050  1.0000 -0.5936337521
C   C172      1.0  0.69100  0.18800  0.63070  1.0000 -8.18115e-05
O   O44       1.0  0.76909  0.34550  0.72360  1.0000 -0.6307424118
C   C173      1.0  0.73030  0.16570  0.57820  1.0000 -0.10169984
C   C174      1.0  0.66800  0.15740  0.71370  1.0000 -0.1308796012
C   C175      1.0  0.74510  0.11340  0.60840  1.0000 -0.1432327905
H   H81       1.0  0.74690  0.18660  0.52180  1.0000 0.128473818
C   C176      1.0  0.68260  0.10440  0.74340  1.0000 -0.1308796012
H   H82       1.0  0.64230  0.17270  0.75030  1.0000 0.1193895703
H   H83       1.0  0.77280  0.09970  0.57310  1.0000 0.1122440812
C   C177      1.0  0.71980  0.08050  0.69050  1.0000 0.073689353
H   H84       1.0  0.66700  0.08430  0.80020  1.0000 0.1193895703
C   C178      1.0  0.73380  0.02050  0.72820  1.0000 -0.285673063
C   C179      1.0  0.66790  0.96620  0.78510  1.0000 0.0754175207
C   C180      1.0  0.74440  0.97640  0.65390  1.0000 0.6511706501
C   C181      1.0  0.80450  0.06030  0.78260  1.0000 0.6511706501
C   C182      1.0  0.67570  0.94800  0.87120  1.0000 -0.1634891726
C   C183      1.0  0.59950  0.93270  0.74610  1.0000 -0.1499775394
F   F61       1.0  0.69170  0.95360  0.59340  1.0000 -0.1993358286
F   F62       1.0  0.80710  0.01280  0.61110  1.0000 -0.1993358286
F   F63       1.0  0.74190  0.91680  0.68780  1.0000 -0.1993358286
F   F64       1.0  0.79710  0.09380  0.85230  1.0000 -0.1993358286
F   F65       1.0  0.85920  0.11120  0.73370  1.0000 -0.1993358286
F   F66       1.0  0.82760  0.01560  0.81220  1.0000 -0.1993358286
C   C184      1.0  0.61510  0.89740  0.91720  1.0000 -0.0937285017
H   H85       1.0  0.72180  0.96990  0.89810  1.0000 0.1122440812
C   C185      1.0  0.53920  0.88110  0.79140  1.0000 -0.1073869837
H   H86       1.0  0.59420  0.94550  0.68800  1.0000 0.1122440812
C   C186      1.0  0.54690  0.86310  0.87910  1.0000 -0.0222563861
H   H87       1.0  0.62050  0.88600  0.97600  1.0000 0.128473818
H   H88       1.0  0.49350  0.85820  0.76380  1.0000 0.128473818
C   C187      1.0  0.48380  0.80540  0.92800  1.0000 0.4793677593
O   O45       1.0  0.62589  0.36914  0.31367  1.0000 -0.7125016262
O   O46       1.0  0.70030  0.49600  0.17477  1.0000 -0.5813527663
C   C188      1.0  0.57040  0.32840  0.26207  1.0000 0.4178517687
O   O47       1.0  0.57632  0.30810  0.18717  1.0000 -0.609082069
C   C189      1.0  0.49700  0.30900  0.29737  1.0000 -8.18115e-05
O   O48       1.0  0.57641  0.23091  0.39027  1.0000 -0.6038989832
C   C190      1.0  0.43540  0.26970  0.24487  1.0000 -0.10169984
C   C191      1.0  0.48940  0.33200  0.38037  1.0000 -0.1499775394
C   C192      1.0  0.36830  0.25490  0.27507  1.0000 -0.1432327905
H   H89       1.0  0.43970  0.25310  0.18847  1.0000 0.128473818
C   C193      1.0  0.42180  0.31740  0.41007  1.0000 -0.1432327905
H   H90       1.0  0.53040  0.35770  0.41697  1.0000 0.1122440812
H   H91       1.0  0.32690  0.22720  0.23977  1.0000 0.1122440812
C   C194      1.0  0.36070  0.28020  0.35717  1.0000 0.073689353
H   H92       1.0  0.41730  0.33300  0.46687  1.0000 0.1193895703
C   C195      1.0  0.28670  0.26620  0.39487  1.0000 -0.285673063
C   C196      1.0  0.29830  0.33210  0.45177  1.0000 0.0754175207
C   C197      1.0  0.23200  0.25560  0.32057  1.0000 0.6511706501
C   C198      1.0  0.25580  0.19550  0.44927  1.0000 0.6511706501
C   C199      1.0  0.27230  0.32430  0.53787  1.0000 -0.1634891726
C   C200      1.0  0.33320  0.40050  0.41277  1.0000 -0.1499775394
F   F67       1.0  0.26190  0.30830  0.26007  1.0000 -0.1993358286
F   F68       1.0  0.20570  0.19290  0.27777  1.0000 -0.1993358286
F   F69       1.0  0.17490  0.25810  0.35447  1.0000 -0.1993358286
F   F70       1.0  0.29670  0.20290  0.51897  1.0000 -0.1993358286
F   F71       1.0  0.25200  0.14080  0.40037  1.0000 -0.1993358286
F   F72       1.0  0.18800  0.17240  0.47887  1.0000 -0.1993358286
C   C201      1.0  0.28230  0.38490  0.58387  1.0000 -0.0937285017
H   H93       1.0  0.24810  0.27820  0.56477  1.0000 0.1122440812
C   C202      1.0  0.34190  0.46080  0.45807  1.0000 -0.1073869837
H   H94       1.0  0.35130  0.40580  0.35467  1.0000 0.1122440812
C   C203      1.0  0.31620  0.45310  0.54577  1.0000 -0.0222563861
H   H95       1.0  0.26550  0.37950  0.64267  1.0000 0.128473818
H   H96       1.0  0.36470  0.50650  0.43047  1.0000 0.128473818
C   C204      1.0  0.32160  0.51620  0.59467  1.0000 0.4738072495
Co  Co1       1.0  0.71638  0.28362  0.91667  1.0000 0.790618359
Co  Co2       1.0  0.71638  0.43276  0.25000  1.0000 0.790618359
Zn  Zn1       1.0  0.71695  0.43390  0.25000  1.0000 0.8621137927
Co  Co3       1.0  0.56724  0.28362  0.58333  1.0000 0.790618359
Zn  Zn2       1.0  0.56610  0.28305  0.58333  1.0000 0.8621137927
Co  Co4       1.0  0.28362  0.71638  0.41667  1.0000 0.790618359
Co  Co5       1.0  0.28362  0.56724  0.75000  1.0000 0.790618359
Zn  Zn3       1.0  0.28305  0.56610  0.75000  1.0000 0.8621137927
Co  Co6       1.0  0.43276  0.71638  0.08333  1.0000 0.790618359
Zn  Zn4       1.0  0.43390  0.71695  0.08333  1.0000 0.8621137927
Mn  Mn1       1.0  0.67555  0.35110  0.75000  1.0000 1.0745256732
Mn  Mn2       1.0  0.64890  0.32445  0.08333  1.0000 1.0745256732
Mn  Mn3       1.0  0.67555  0.32445  0.41667  1.0000 1.0151362012
Mn  Mn4       1.0  0.32445  0.64890  0.25000  1.0000 1.0745256732
Mn  Mn5       1.0  0.35110  0.67555  0.58333  1.0000 1.0745256732
Mn  Mn6       1.0  0.32445  0.67555  0.91667  1.0000 1.0151362012
Co  Co7       1.0  0.65400  0.32700  0.08333  1.0000 0.9643903266
Co  Co8       1.0  0.67300  0.32700  0.41667  1.0000 0.8759551833
Co  Co9       1.0  0.67300  0.34600  0.75000  1.0000 0.9643903266
Co  Co10      1.0  0.34600  0.67300  0.58333  1.0000 0.9643903266
Co  Co11      1.0  0.32700  0.67300  0.91667  1.0000 0.8759551833
Co  Co12      1.0  0.32700  0.65400  0.25000  1.0000 0.9643903266
  Zn  Zn5       1.0  0.71638  0.28362  0.91667  1.0000
  Zn  Zn6       1.0  0.28362  0.71638  0.41667  1.0000
