# DDEC6 charges by PACMAN v1.1 (https://github.com/mtap-research/PACMAN-charge/)
data_KIRRAH_ASR_pacman
_symmetry_space_group_name_H-M   'P 1'
_cell_length_a   21.22510000
_cell_length_b   21.22510000
_cell_length_c   15.28300000
_cell_angle_alpha   90.00000000
_cell_angle_beta   90.00000000
_cell_angle_gamma   120.00000000
_symmetry_Int_Tables_number   1
_chemical_formula_structural   MnCoH16C34(O2F3)4
_chemical_formula_sum   'Mn6 Co6 H96 C204 O48 F72'
_cell_volume   5962.64200069
_cell_formula_units_Z   6
loop_
 _symmetry_equiv_pos_site_id
 _symmetry_equiv_pos_as_xyz
  1  'x, y, z'
loop_
 _atom_site_type_symbol
 _atom_site_label
 _atom_site_symmetry_multiplicity
 _atom_site_fract_x
 _atom_site_fract_y
 _atom_site_fract_z
 _atom_site_occupancy
 _atom_site_charge
Mn  Mn1  1  0.32489000  0.64978000  0.75000000  1.0 1.0718623491
Mn  Mn2  1  0.32489000  0.67511000  0.41667000  1.0 1.0718623491
Mn  Mn3  1  0.35022000  0.67511000  0.08333000  1.0 1.0718623491
Mn  Mn4  1  0.67511000  0.35022000  0.25000000  1.0 1.0718623491
Mn  Mn5  1  0.67511000  0.32489000  0.91667000  1.0 1.0718623491
Mn  Mn6  1  0.64978000  0.32489000  0.58333000  1.0 1.0718623491
Co  Co1  1  0.43510000  0.71755000  0.58333000  1.0 0.9123442462
Co  Co2  1  0.28245000  0.56490000  0.25000000  1.0 0.9123442462
Co  Co3  1  0.28245000  0.71755000  0.91667000  1.0 0.9123442462
Co  Co4  1  0.56490000  0.28245000  0.08333000  1.0 0.9123442462
Co  Co5  1  0.71755000  0.43510000  0.75000000  1.0 0.9123442462
Co  Co6  1  0.71755000  0.28245000  0.41667000  1.0 0.9123442462
H  H1  1  0.23130000  0.32690000  0.59337000  1.0 0.1208486151
H  H2  1  0.25540000  0.43940000  0.64237000  1.0 0.1282323562
H  H3  1  0.33390000  0.41710000  0.36917000  1.0 0.1282323562
H  H4  1  0.37570000  0.26410000  0.19207000  1.0 0.1282323562
H  H5  1  0.40640000  0.35040000  0.47457000  1.0 0.1208486151
H  H6  1  0.50500000  0.36330000  0.39767000  1.0 0.1282323562
H  H7  1  0.27630000  0.24720000  0.27197000  1.0 0.1208486151
H  H8  1  0.35640000  0.52940000  0.41637000  1.0 0.1208486151
H  H9  1  0.09560000  0.76870000  0.26003000  1.0 0.1208486151
H  H10  1  0.18400000  0.74460000  0.30903000  1.0 0.1282323562
H  H11  1  0.08320000  0.66610000  0.03583000  1.0 0.1282323562
H  H12  1  0.88840000  0.62430000  0.85873000  1.0 0.1282323562
H  H13  1  0.94400000  0.59360000  0.14123000  1.0 0.1208486151
H  H14  1  0.85830000  0.49500000  0.06433000  1.0 0.1282323562
H  H15  1  0.97090000  0.72370000  0.93863000  1.0 0.1208486151
H  H16  1  0.17300000  0.64360000  0.08303000  1.0 0.1208486151
H  H17  1  0.67310000  0.90440000  0.92670000  1.0 0.1208486151
H  H18  1  0.56060000  0.81600000  0.97570000  1.0 0.1282323562
H  H19  1  0.58290000  0.91680000  0.70250000  1.0 0.1282323562
H  H20  1  0.73590000  0.11160000  0.52540000  1.0 0.1282323562
H  H21  1  0.64960000  0.05600000  0.80790000  1.0 0.1208486151
H  H22  1  0.63670000  0.14170000  0.73100000  1.0 0.1282323562
H  H23  1  0.75280000  0.02910000  0.60530000  1.0 0.1208486151
H  H24  1  0.47060000  0.82700000  0.74970000  1.0 0.1208486151
H  H25  1  0.76870000  0.67310000  0.09337000  1.0 0.1208486151
H  H26  1  0.74460000  0.56060000  0.14237000  1.0 0.1282323562
H  H27  1  0.66610000  0.58290000  0.86917000  1.0 0.1282323562
H  H28  1  0.62430000  0.73590000  0.69207000  1.0 0.1282323562
H  H29  1  0.59360000  0.64960000  0.97457000  1.0 0.1208486151
H  H30  1  0.49500000  0.63670000  0.89767000  1.0 0.1282323562
H  H31  1  0.72370000  0.75280000  0.77197000  1.0 0.1208486151
H  H32  1  0.64360000  0.47060000  0.91637000  1.0 0.1208486151
H  H33  1  0.90440000  0.23130000  0.76003000  1.0 0.1208486151
H  H34  1  0.81600000  0.25540000  0.80903000  1.0 0.1282323562
H  H35  1  0.91680000  0.33390000  0.53583000  1.0 0.1282323562
H  H36  1  0.11160000  0.37570000  0.35873000  1.0 0.1282323562
H  H37  1  0.05600000  0.40640000  0.64123000  1.0 0.1208486151
H  H38  1  0.14170000  0.50500000  0.56433000  1.0 0.1282323562
H  H39  1  0.02910000  0.27630000  0.43863000  1.0 0.1208486151
H  H40  1  0.82700000  0.35640000  0.58303000  1.0 0.1208486151
H  H41  1  0.32690000  0.09560000  0.42670000  1.0 0.1208486151
H  H42  1  0.43940000  0.18400000  0.47570000  1.0 0.1282323562
H  H43  1  0.41710000  0.08320000  0.20250000  1.0 0.1282323562
H  H44  1  0.26410000  0.88840000  0.02540000  1.0 0.1282323562
H  H45  1  0.35040000  0.94400000  0.30790000  1.0 0.1208486151
H  H46  1  0.36330000  0.85830000  0.23100000  1.0 0.1282323562
H  H47  1  0.24720000  0.97090000  0.10530000  1.0 0.1208486151
H  H48  1  0.52940000  0.17300000  0.24970000  1.0 0.1208486151
H  H49  1  0.90440000  0.67310000  0.40663000  1.0 0.1208486151
H  H50  1  0.81600000  0.56060000  0.35763000  1.0 0.1282323562
H  H51  1  0.91680000  0.58290000  0.63083000  1.0 0.1282323562
H  H52  1  0.11160000  0.73590000  0.80793000  1.0 0.1282323562
H  H53  1  0.05600000  0.64960000  0.52543000  1.0 0.1208486151
H  H54  1  0.14170000  0.63670000  0.60233000  1.0 0.1282323562
H  H55  1  0.02910000  0.75280000  0.72803000  1.0 0.1208486151
H  H56  1  0.82700000  0.47060000  0.58363000  1.0 0.1208486151
H  H57  1  0.32690000  0.23130000  0.73997000  1.0 0.1208486151
H  H58  1  0.43940000  0.25540000  0.69097000  1.0 0.1282323562
H  H59  1  0.41710000  0.33390000  0.96417000  1.0 0.1282323562
H  H60  1  0.26410000  0.37570000  0.14127000  1.0 0.1282323562
H  H61  1  0.35040000  0.40640000  0.85877000  1.0 0.1208486151
H  H62  1  0.36330000  0.50500000  0.93567000  1.0 0.1282323562
H  H63  1  0.24720000  0.27630000  0.06137000  1.0 0.1208486151
H  H64  1  0.52940000  0.35640000  0.91697000  1.0 0.1208486151
H  H65  1  0.76870000  0.09560000  0.07330000  1.0 0.1208486151
H  H66  1  0.74460000  0.18400000  0.02430000  1.0 0.1282323562
H  H67  1  0.66610000  0.08320000  0.29750000  1.0 0.1282323562
H  H68  1  0.62430000  0.88840000  0.47460000  1.0 0.1282323562
H  H69  1  0.59360000  0.94400000  0.19210000  1.0 0.1208486151
H  H70  1  0.49500000  0.85830000  0.26900000  1.0 0.1282323562
H  H71  1  0.72370000  0.97090000  0.39470000  1.0 0.1208486151
H  H72  1  0.64360000  0.17300000  0.25030000  1.0 0.1208486151
H  H73  1  0.09560000  0.32690000  0.90663000  1.0 0.1208486151
H  H74  1  0.18400000  0.43940000  0.85763000  1.0 0.1282323562
H  H75  1  0.08320000  0.41710000  0.13083000  1.0 0.1282323562
H  H76  1  0.88840000  0.26410000  0.30793000  1.0 0.1282323562
H  H77  1  0.94400000  0.35040000  0.02543000  1.0 0.1208486151
H  H78  1  0.85830000  0.36330000  0.10233000  1.0 0.1282323562
H  H79  1  0.97090000  0.24720000  0.22803000  1.0 0.1208486151
H  H80  1  0.17300000  0.52940000  0.08363000  1.0 0.1208486151
H  H81  1  0.67310000  0.76870000  0.23997000  1.0 0.1208486151
H  H82  1  0.56060000  0.74460000  0.19097000  1.0 0.1282323562
H  H83  1  0.58290000  0.66610000  0.46417000  1.0 0.1282323562
H  H84  1  0.73590000  0.62430000  0.64127000  1.0 0.1282323562
H  H85  1  0.64960000  0.59360000  0.35877000  1.0 0.1208486151
H  H86  1  0.63670000  0.49500000  0.43567000  1.0 0.1282323562
H  H87  1  0.75280000  0.72370000  0.56137000  1.0 0.1208486151
H  H88  1  0.47060000  0.64360000  0.41697000  1.0 0.1208486151
H  H89  1  0.23130000  0.90440000  0.57330000  1.0 0.1208486151
H  H90  1  0.25540000  0.81600000  0.52430000  1.0 0.1282323562
H  H91  1  0.33390000  0.91680000  0.79750000  1.0 0.1282323562
H  H92  1  0.37570000  0.11160000  0.97460000  1.0 0.1282323562
H  H93  1  0.40640000  0.05600000  0.69210000  1.0 0.1208486151
H  H94  1  0.50500000  0.14170000  0.76900000  1.0 0.1282323562
H  H95  1  0.27630000  0.02910000  0.89470000  1.0 0.1208486151
H  H96  1  0.35640000  0.82700000  0.75030000  1.0 0.1208486151
C  C1  1  0.31070000  0.49700000  0.53607000  1.0 -0.0292268566
C  C2  1  0.25720000  0.36760000  0.55817000  1.0 -0.1503433693
C  C3  1  0.32990000  0.57020000  0.56937000  1.0 0.6080521287
C  C4  1  0.27180000  0.43520000  0.58747000  1.0 -0.079815342
C  C5  1  0.31820000  0.42160000  0.42447000  1.0 -0.1271298089
C  C6  1  0.51320000  0.31910000  0.23647000  1.0 0.5779708417
C  C7  1  0.26640000  0.28600000  0.43877000  1.0 -0.2756253291
C  C8  1  0.38220000  0.28080000  0.24947000  1.0 -0.079815342
C  C9  1  0.25870000  0.23200000  0.51347000  1.0 0.6672887023
C  C10  1  0.45120000  0.31470000  0.28527000  1.0 -0.0418923043
C  C11  1  0.40010000  0.33210000  0.41797000  1.0 -0.1428539588
C  C12  1  0.45930000  0.34050000  0.37167000  1.0 -0.079815342
C  C13  1  0.28110000  0.36050000  0.47637000  1.0 0.0816813631
C  C14  1  0.32250000  0.27120000  0.29687000  1.0 -0.1553349702
C  C15  1  0.33180000  0.29710000  0.38147000  1.0 0.0816813631
C  C16  1  0.33240000  0.48920000  0.45287000  1.0 -0.0935363437
C  C17  1  0.19450000  0.25450000  0.38887000  1.0 0.6672887023
C  C18  1  0.18630000  0.68930000  0.20273000  1.0 -0.0292268566
C  C19  1  0.11040000  0.74280000  0.22483000  1.0 -0.1503433693
C  C20  1  0.24030000  0.67010000  0.23603000  1.0 0.6080521287
C  C21  1  0.16340000  0.72820000  0.25413000  1.0 -0.079815342
C  C22  1  0.10340000  0.68180000  0.09113000  1.0 -0.1271298089
C  C23  1  0.80590000  0.48680000  0.90313000  1.0 0.5779708417
C  C24  1  0.01960000  0.73360000  0.10543000  1.0 -0.2756253291
C  C25  1  0.89860000  0.61780000  0.91613000  1.0 -0.079815342
C  C26  1  0.97330000  0.74130000  0.18013000  1.0 0.6672887023
C  C27  1  0.86350000  0.54880000  0.95193000  1.0 -0.0418923043
C  C28  1  0.93200000  0.59990000  0.08463000  1.0 -0.1428539588
C  C29  1  0.88120000  0.54070000  0.03833000  1.0 -0.079815342
C  C30  1  0.07940000  0.71890000  0.14303000  1.0 0.0816813631
C  C31  1  0.94870000  0.67750000  0.96353000  1.0 -0.1503433693
C  C32  1  0.96530000  0.66820000  0.04813000  1.0 0.0816813631
C  C33  1  0.15680000  0.66760000  0.11953000  1.0 -0.0935363437
C  C34  1  0.06000000  0.80550000  0.05553000  1.0 0.6672887023
C  C35  1  0.50300000  0.81370000  0.86940000  1.0 -0.0292268566
C  C36  1  0.63240000  0.88960000  0.89150000  1.0 -0.1503433693
C  C37  1  0.42980000  0.75970000  0.90270000  1.0 0.6080521287
C  C38  1  0.56480000  0.83660000  0.92080000  1.0 -0.079815342
C  C39  1  0.57840000  0.89660000  0.75780000  1.0 -0.1271298089
C  C40  1  0.68090000  0.19410000  0.56980000  1.0 0.5779708417
C  C41  1  0.71400000  0.98040000  0.77210000  1.0 -0.2756253291
C  C42  1  0.71920000  0.10140000  0.58280000  1.0 -0.079815342
C  C43  1  0.76800000  0.02670000  0.84680000  1.0 0.6672887023
C  C44  1  0.68530000  0.13650000  0.61860000  1.0 -0.0418923043
C  C45  1  0.66790000  0.06800000  0.75130000  1.0 -0.1428539588
C  C46  1  0.65950000  0.11880000  0.70500000  1.0 -0.079815342
C  C47  1  0.63950000  0.92060000  0.80970000  1.0 0.0816813631
C  C48  1  0.72880000  0.05130000  0.63020000  1.0 -0.1503433693
C  C49  1  0.70290000  0.03470000  0.71480000  1.0 0.0816813631
C  C50  1  0.51080000  0.84320000  0.78620000  1.0 -0.0935363437
C  C51  1  0.74550000  0.94000000  0.72220000  1.0 0.6672887023
C  C52  1  0.68930000  0.50300000  0.03607000  1.0 -0.0292268566
C  C53  1  0.74280000  0.63240000  0.05817000  1.0 -0.1503433693
C  C54  1  0.67010000  0.42980000  0.06937000  1.0 0.6080521287
C  C55  1  0.72820000  0.56480000  0.08747000  1.0 -0.079815342
C  C56  1  0.68180000  0.57840000  0.92447000  1.0 -0.1271298089
C  C57  1  0.48680000  0.68090000  0.73647000  1.0 0.5779708417
C  C58  1  0.73360000  0.71400000  0.93877000  1.0 -0.2756253291
C  C59  1  0.61780000  0.71920000  0.74947000  1.0 -0.079815342
C  C60  1  0.74130000  0.76800000  0.01347000  1.0 0.6672887023
C  C61  1  0.54880000  0.68530000  0.78527000  1.0 -0.0418923043
C  C62  1  0.59990000  0.66790000  0.91797000  1.0 -0.1428539588
C  C63  1  0.54070000  0.65950000  0.87167000  1.0 -0.079815342
C  C64  1  0.71890000  0.63950000  0.97637000  1.0 0.0816813631
C  C65  1  0.67750000  0.72880000  0.79687000  1.0 -0.1503433693
C  C66  1  0.66820000  0.70290000  0.88147000  1.0 0.0816813631
C  C67  1  0.66760000  0.51080000  0.95287000  1.0 -0.0935363437
C  C68  1  0.80550000  0.74550000  0.88887000  1.0 0.6672887023
C  C69  1  0.81370000  0.31070000  0.70273000  1.0 -0.0292268566
C  C70  1  0.88960000  0.25720000  0.72483000  1.0 -0.1503433693
C  C71  1  0.75970000  0.32990000  0.73603000  1.0 0.6080521287
C  C72  1  0.83660000  0.27180000  0.75413000  1.0 -0.079815342
C  C73  1  0.89660000  0.31820000  0.59113000  1.0 -0.1271298089
C  C74  1  0.19410000  0.51320000  0.40313000  1.0 0.5779708417
C  C75  1  0.98040000  0.26640000  0.60543000  1.0 -0.2756253291
C  C76  1  0.10140000  0.38220000  0.41613000  1.0 -0.079815342
C  C77  1  0.02670000  0.25870000  0.68013000  1.0 0.6672887023
C  C78  1  0.13650000  0.45120000  0.45193000  1.0 -0.0418923043
C  C79  1  0.06800000  0.40010000  0.58463000  1.0 -0.1428539588
C  C80  1  0.11880000  0.45930000  0.53833000  1.0 -0.079815342
C  C81  1  0.92060000  0.28110000  0.64303000  1.0 0.0816813631
C  C82  1  0.05130000  0.32250000  0.46353000  1.0 -0.1553349702
C  C83  1  0.03470000  0.33180000  0.54813000  1.0 0.0816813631
C  C84  1  0.84320000  0.33240000  0.61953000  1.0 -0.0935363437
C  C85  1  0.94000000  0.19450000  0.55553000  1.0 0.6672887023
C  C86  1  0.49700000  0.18630000  0.36940000  1.0 -0.0292268566
C  C87  1  0.36760000  0.11040000  0.39150000  1.0 -0.1503433693
C  C88  1  0.57020000  0.24030000  0.40270000  1.0 0.6080521287
C  C89  1  0.43520000  0.16340000  0.42080000  1.0 -0.079815342
C  C90  1  0.42160000  0.10340000  0.25780000  1.0 -0.1271298089
C  C91  1  0.31910000  0.80590000  0.06980000  1.0 0.5779708417
C  C92  1  0.28600000  0.01960000  0.27210000  1.0 -0.2756253291
C  C93  1  0.28080000  0.89860000  0.08280000  1.0 -0.079815342
C  C94  1  0.23200000  0.97330000  0.34680000  1.0 0.6672887023
C  C95  1  0.31470000  0.86350000  0.11860000  1.0 -0.0418923043
C  C96  1  0.33210000  0.93200000  0.25130000  1.0 -0.1428539588
C  C97  1  0.34050000  0.88120000  0.20500000  1.0 -0.079815342
C  C98  1  0.36050000  0.07940000  0.30970000  1.0 0.0816813631
C  C99  1  0.27120000  0.94870000  0.13020000  1.0 -0.1503433693
C  C100  1  0.29710000  0.96530000  0.21480000  1.0 0.0816813631
C  C101  1  0.48920000  0.15680000  0.28620000  1.0 -0.0935363437
C  C102  1  0.25450000  0.06000000  0.22220000  1.0 0.6672887023
C  C103  1  0.81370000  0.50300000  0.46393000  1.0 -0.0292268566
C  C104  1  0.88960000  0.63240000  0.44183000  1.0 -0.1503433693
C  C105  1  0.75970000  0.42980000  0.43063000  1.0 0.6080521287
C  C106  1  0.83660000  0.56480000  0.41253000  1.0 -0.079815342
C  C107  1  0.89660000  0.57840000  0.57553000  1.0 -0.1271298089
C  C108  1  0.19410000  0.68090000  0.76353000  1.0 0.5779708417
C  C109  1  0.98040000  0.71400000  0.56123000  1.0 -0.2756253291
C  C110  1  0.10140000  0.71920000  0.75053000  1.0 -0.079815342
C  C111  1  0.02670000  0.76800000  0.48653000  1.0 0.6672887023
C  C112  1  0.13650000  0.68530000  0.71473000  1.0 -0.0418923043
C  C113  1  0.06800000  0.66790000  0.58203000  1.0 -0.1428539588
C  C114  1  0.11880000  0.65950000  0.62833000  1.0 -0.079815342
C  C115  1  0.92060000  0.63950000  0.52363000  1.0 0.0816813631
C  C116  1  0.05130000  0.72880000  0.70313000  1.0 -0.1553349702
C  C117  1  0.03470000  0.70290000  0.61853000  1.0 0.0816813631
C  C118  1  0.84320000  0.51080000  0.54713000  1.0 -0.0935363437
C  C119  1  0.94000000  0.74550000  0.61113000  1.0 0.6672887023
C  C120  1  0.49700000  0.31070000  0.79727000  1.0 -0.0292268566
C  C121  1  0.36760000  0.25720000  0.77517000  1.0 -0.1503433693
C  C122  1  0.57020000  0.32990000  0.76397000  1.0 0.6080521287
C  C123  1  0.43520000  0.27180000  0.74587000  1.0 -0.079815342
C  C124  1  0.42160000  0.31820000  0.90887000  1.0 -0.1271298089
C  C125  1  0.31910000  0.51320000  0.09687000  1.0 0.5779708417
C  C126  1  0.28600000  0.26640000  0.89457000  1.0 -0.2756253291
C  C127  1  0.28080000  0.38220000  0.08387000  1.0 -0.079815342
C  C128  1  0.23200000  0.25870000  0.81987000  1.0 0.6672887023
C  C129  1  0.31470000  0.45120000  0.04807000  1.0 -0.0418923043
C  C130  1  0.33210000  0.40010000  0.91537000  1.0 -0.1428539588
C  C131  1  0.34050000  0.45930000  0.96167000  1.0 -0.079815342
C  C132  1  0.36050000  0.28110000  0.85697000  1.0 0.0816813631
C  C133  1  0.27120000  0.32250000  0.03647000  1.0 -0.1503433693
C  C134  1  0.29710000  0.33180000  0.95187000  1.0 0.0816813631
C  C135  1  0.48920000  0.33240000  0.88047000  1.0 -0.0935363437
C  C136  1  0.25450000  0.19450000  0.94447000  1.0 0.6672887023
C  C137  1  0.68930000  0.18630000  0.13060000  1.0 -0.0292268566
C  C138  1  0.74280000  0.11040000  0.10850000  1.0 -0.1503433693
C  C139  1  0.67010000  0.24030000  0.09730000  1.0 0.6080521287
C  C140  1  0.72820000  0.16340000  0.07920000  1.0 -0.079815342
C  C141  1  0.68180000  0.10340000  0.24220000  1.0 -0.1271298089
C  C142  1  0.48680000  0.80590000  0.43020000  1.0 0.5779708417
C  C143  1  0.73360000  0.01960000  0.22790000  1.0 -0.2756253291
C  C144  1  0.61780000  0.89860000  0.41720000  1.0 -0.079815342
C  C145  1  0.74130000  0.97330000  0.15320000  1.0 0.6672887023
C  C146  1  0.54880000  0.86350000  0.38140000  1.0 -0.0418923043
C  C147  1  0.59990000  0.93200000  0.24870000  1.0 -0.1428539588
C  C148  1  0.54070000  0.88120000  0.29500000  1.0 -0.079815342
C  C149  1  0.71890000  0.07940000  0.19030000  1.0 0.0816813631
C  C150  1  0.67750000  0.94870000  0.36980000  1.0 -0.1503433693
C  C151  1  0.66820000  0.96530000  0.28520000  1.0 0.0816813631
C  C152  1  0.66760000  0.15680000  0.21380000  1.0 -0.0935363437
C  C153  1  0.80550000  0.06000000  0.27780000  1.0 0.6672887023
C  C154  1  0.18630000  0.49700000  0.96393000  1.0 -0.0292268566
C  C155  1  0.11040000  0.36760000  0.94183000  1.0 -0.1503433693
C  C156  1  0.24030000  0.57020000  0.93063000  1.0 0.6080521287
C  C157  1  0.16340000  0.43520000  0.91253000  1.0 -0.079815342
C  C158  1  0.10340000  0.42160000  0.07553000  1.0 -0.1271298089
C  C159  1  0.80590000  0.31910000  0.26353000  1.0 0.5779708417
C  C160  1  0.01960000  0.28600000  0.06123000  1.0 -0.2756253291
C  C161  1  0.89860000  0.28080000  0.25053000  1.0 -0.079815342
C  C162  1  0.97330000  0.23200000  0.98653000  1.0 0.6672887023
C  C163  1  0.86350000  0.31470000  0.21473000  1.0 -0.0418923043
C  C164  1  0.93200000  0.33210000  0.08203000  1.0 -0.1428539588
C  C165  1  0.88120000  0.34050000  0.12833000  1.0 -0.079815342
C  C166  1  0.07940000  0.36050000  0.02363000  1.0 0.0816813631
C  C167  1  0.94870000  0.27120000  0.20313000  1.0 -0.1503433693
C  C168  1  0.96530000  0.29710000  0.11853000  1.0 0.0816813631
C  C169  1  0.15680000  0.48920000  0.04713000  1.0 -0.0935363437
C  C170  1  0.06000000  0.25450000  0.11113000  1.0 0.6672887023
C  C171  1  0.50300000  0.68930000  0.29727000  1.0 -0.0292268566
C  C172  1  0.63240000  0.74280000  0.27517000  1.0 -0.1503433693
C  C173  1  0.42980000  0.67010000  0.26397000  1.0 0.6080521287
C  C174  1  0.56480000  0.72820000  0.24587000  1.0 -0.079815342
C  C175  1  0.57840000  0.68180000  0.40887000  1.0 -0.1271298089
C  C176  1  0.68090000  0.48680000  0.59687000  1.0 0.5779708417
C  C177  1  0.71400000  0.73360000  0.39457000  1.0 -0.2756253291
C  C178  1  0.71920000  0.61780000  0.58387000  1.0 -0.079815342
C  C179  1  0.76800000  0.74130000  0.31987000  1.0 0.6672887023
C  C180  1  0.68530000  0.54880000  0.54807000  1.0 -0.0418923043
C  C181  1  0.66790000  0.59990000  0.41537000  1.0 -0.1428539588
C  C182  1  0.65950000  0.54070000  0.46167000  1.0 -0.079815342
C  C183  1  0.63950000  0.71890000  0.35697000  1.0 0.0816813631
C  C184  1  0.72880000  0.67750000  0.53647000  1.0 -0.1503433693
C  C185  1  0.70290000  0.66820000  0.45187000  1.0 0.0816813631
C  C186  1  0.51080000  0.66760000  0.38047000  1.0 -0.0935363437
C  C187  1  0.74550000  0.80550000  0.44447000  1.0 0.6672887023
C  C188  1  0.31070000  0.81370000  0.63060000  1.0 -0.0292268566
C  C189  1  0.25720000  0.88960000  0.60850000  1.0 -0.1503433693
C  C190  1  0.32990000  0.75970000  0.59730000  1.0 0.6080521287
C  C191  1  0.27180000  0.83660000  0.57920000  1.0 -0.079815342
C  C192  1  0.31820000  0.89660000  0.74220000  1.0 -0.1271298089
C  C193  1  0.51320000  0.19410000  0.93020000  1.0 0.5779708417
C  C194  1  0.26640000  0.98040000  0.72790000  1.0 -0.2756253291
C  C195  1  0.38220000  0.10140000  0.91720000  1.0 -0.079815342
C  C196  1  0.25870000  0.02670000  0.65320000  1.0 0.6672887023
C  C197  1  0.45120000  0.13650000  0.88140000  1.0 -0.0418923043
C  C198  1  0.40010000  0.06800000  0.74870000  1.0 -0.1428539588
C  C199  1  0.45930000  0.11880000  0.79500000  1.0 -0.079815342
C  C200  1  0.28110000  0.92060000  0.69030000  1.0 0.0816813631
C  C201  1  0.32250000  0.05130000  0.86980000  1.0 -0.1503433693
C  C202  1  0.33180000  0.03470000  0.78520000  1.0 0.0816813631
C  C203  1  0.33240000  0.84320000  0.71380000  1.0 -0.0935363437
C  C204  1  0.19450000  0.94000000  0.77780000  1.0 0.6672887023
O  O1  1  0.30960000  0.57630000  0.64527000  1.0 -0.5491686969
O  O2  1  0.37120000  0.62660000  0.52117000  1.0 -0.606088963
O  O3  1  0.57410000  0.34350000  0.27427000  1.0 -0.5653020848
O  O4  1  0.50090000  0.29760000  0.15637000  1.0 -0.5431907285
O  O5  1  0.26670000  0.69040000  0.31193000  1.0 -0.5491686969
O  O6  1  0.25540000  0.62880000  0.18783000  1.0 -0.606088963
O  O7  1  0.76940000  0.42590000  0.94093000  1.0 -0.5653020848
O  O8  1  0.79670000  0.49910000  0.82303000  1.0 -0.5431907285
O  O9  1  0.42370000  0.73330000  0.97860000  1.0 -0.5491686969
O  O10  1  0.37340000  0.74460000  0.85450000  1.0 -0.606088963
O  O11  1  0.65650000  0.23060000  0.60760000  1.0 -0.5653020848
O  O12  1  0.70240000  0.20330000  0.48970000  1.0 -0.5431907285
O  O13  1  0.69040000  0.42370000  0.14527000  1.0 -0.5491686969
O  O14  1  0.62880000  0.37340000  0.02117000  1.0 -0.606088963
O  O15  1  0.42590000  0.65650000  0.77427000  1.0 -0.5653020848
O  O16  1  0.49910000  0.70240000  0.65637000  1.0 -0.5431907285
O  O17  1  0.73330000  0.30960000  0.81193000  1.0 -0.5491686969
O  O18  1  0.74460000  0.37120000  0.68783000  1.0 -0.6040308683
O  O19  1  0.23060000  0.57410000  0.44093000  1.0 -0.5653020848
O  O20  1  0.20330000  0.50090000  0.32303000  1.0 -0.5431907285
O  O21  1  0.57630000  0.26670000  0.47860000  1.0 -0.5491686969
O  O22  1  0.62660000  0.25540000  0.35450000  1.0 -0.606088963
O  O23  1  0.34350000  0.76940000  0.10760000  1.0 -0.5653020848
O  O24  1  0.29760000  0.79670000  0.98970000  1.0 -0.5431907285
O  O25  1  0.73330000  0.42370000  0.35473000  1.0 -0.5491686969
O  O26  1  0.74460000  0.37340000  0.47883000  1.0 -0.606088963
O  O27  1  0.23060000  0.65650000  0.72573000  1.0 -0.5653020848
O  O28  1  0.20330000  0.70240000  0.84363000  1.0 -0.5431907285
O  O29  1  0.57630000  0.30960000  0.68807000  1.0 -0.5491686969
O  O30  1  0.62660000  0.37120000  0.81217000  1.0 -0.6040308683
O  O31  1  0.34350000  0.57410000  0.05907000  1.0 -0.5653020848
O  O32  1  0.29760000  0.50090000  0.17697000  1.0 -0.5431907285
O  O33  1  0.69040000  0.26670000  0.02140000  1.0 -0.5491686969
O  O34  1  0.62880000  0.25540000  0.14550000  1.0 -0.606088963
O  O35  1  0.42590000  0.76940000  0.39240000  1.0 -0.5653020848
O  O36  1  0.49910000  0.79670000  0.51030000  1.0 -0.5431907285
O  O37  1  0.26670000  0.57630000  0.85473000  1.0 -0.5491686969
O  O38  1  0.25540000  0.62660000  0.97883000  1.0 -0.606088963
O  O39  1  0.76940000  0.34350000  0.22573000  1.0 -0.5653020848
O  O40  1  0.79670000  0.29760000  0.34363000  1.0 -0.5431907285
O  O41  1  0.42370000  0.69040000  0.18807000  1.0 -0.5491686969
O  O42  1  0.37340000  0.62880000  0.31217000  1.0 -0.606088963
O  O43  1  0.65650000  0.42590000  0.55907000  1.0 -0.5653020848
O  O44  1  0.70240000  0.49910000  0.67697000  1.0 -0.5431907285
O  O45  1  0.30960000  0.73330000  0.52140000  1.0 -0.5491686969
O  O46  1  0.37120000  0.74460000  0.64550000  1.0 -0.606088963
O  O47  1  0.57410000  0.23060000  0.89240000  1.0 -0.5653020848
O  O48  1  0.50090000  0.20330000  0.01030000  1.0 -0.5431907285
F  F1  1  0.20070000  0.29540000  0.31917000  1.0 -0.1906880568
F  F2  1  0.17160000  0.18660000  0.35967000  1.0 -0.1972926665
F  F3  1  0.31230000  0.26290000  0.57057000  1.0 -0.1906880568
F  F4  1  0.25960000  0.17460000  0.47907000  1.0 -0.1906880568
F  F5  1  0.14070000  0.25070000  0.43747000  1.0 -0.1906880568
F  F6  1  0.19520000  0.20570000  0.55637000  1.0 -0.1972926665
F  F7  1  0.09470000  0.79930000  0.98583000  1.0 -0.1906880568
F  F8  1  0.01500000  0.82840000  0.02633000  1.0 -0.1972926665
F  F9  1  0.95060000  0.68770000  0.23723000  1.0 -0.1906880568
F  F10  1  0.91500000  0.74040000  0.14573000  1.0 -0.1906880568
F  F11  1  0.11000000  0.85930000  0.10413000  1.0 -0.1906880568
F  F12  1  0.01050000  0.80480000  0.22303000  1.0 -0.1972926665
F  F13  1  0.70460000  0.90530000  0.65250000  1.0 -0.1906880568
F  F14  1  0.81340000  0.98500000  0.69300000  1.0 -0.1972926665
F  F15  1  0.73710000  0.04940000  0.90390000  1.0 -0.1906880568
F  F16  1  0.82540000  0.08500000  0.81240000  1.0 -0.1906880568
F  F17  1  0.74930000  0.89000000  0.77080000  1.0 -0.1906880568
F  F18  1  0.79430000  0.98950000  0.88970000  1.0 -0.1972926665
F  F19  1  0.79930000  0.70460000  0.81917000  1.0 -0.1906880568
F  F20  1  0.82840000  0.81340000  0.85967000  1.0 -0.1972926665
F  F21  1  0.68770000  0.73710000  0.07057000  1.0 -0.1906880568
F  F22  1  0.74040000  0.82540000  0.97907000  1.0 -0.1906880568
F  F23  1  0.85930000  0.74930000  0.93747000  1.0 -0.1906880568
F  F24  1  0.80480000  0.79430000  0.05637000  1.0 -0.1972926665
F  F25  1  0.90530000  0.20070000  0.48583000  1.0 -0.1906880568
F  F26  1  0.98500000  0.17160000  0.52633000  1.0 -0.1972926665
F  F27  1  0.04940000  0.31230000  0.73723000  1.0 -0.1906880568
F  F28  1  0.08500000  0.25960000  0.64573000  1.0 -0.1906880568
F  F29  1  0.89000000  0.14070000  0.60413000  1.0 -0.1906880568
F  F30  1  0.98950000  0.19520000  0.72303000  1.0 -0.1972926665
F  F31  1  0.29540000  0.09470000  0.15250000  1.0 -0.1906880568
F  F32  1  0.18660000  0.01500000  0.19300000  1.0 -0.1972926665
F  F33  1  0.26290000  0.95060000  0.40390000  1.0 -0.1906880568
F  F34  1  0.17460000  0.91500000  0.31240000  1.0 -0.1906880568
F  F35  1  0.25070000  0.11000000  0.27080000  1.0 -0.1906880568
F  F36  1  0.20570000  0.01050000  0.38970000  1.0 -0.1972926665
F  F37  1  0.90530000  0.70460000  0.68083000  1.0 -0.1906880568
F  F38  1  0.98500000  0.81340000  0.64033000  1.0 -0.1972926665
F  F39  1  0.04940000  0.73710000  0.42943000  1.0 -0.1906880568
F  F40  1  0.08500000  0.82540000  0.52093000  1.0 -0.1906880568
F  F41  1  0.89000000  0.74930000  0.56253000  1.0 -0.1906880568
F  F42  1  0.98950000  0.79430000  0.44363000  1.0 -0.1972926665
F  F43  1  0.29540000  0.20070000  0.01417000  1.0 -0.1906880568
F  F44  1  0.18660000  0.17160000  0.97367000  1.0 -0.1972926665
F  F45  1  0.26290000  0.31230000  0.76277000  1.0 -0.1906880568
F  F46  1  0.17460000  0.25960000  0.85427000  1.0 -0.1906880568
F  F47  1  0.25070000  0.14070000  0.89587000  1.0 -0.1906880568
F  F48  1  0.20570000  0.19520000  0.77697000  1.0 -0.1972926665
F  F49  1  0.79930000  0.09470000  0.34750000  1.0 -0.1906880568
F  F50  1  0.82840000  0.01500000  0.30700000  1.0 -0.1972926665
F  F51  1  0.68770000  0.95060000  0.09610000  1.0 -0.1906880568
F  F52  1  0.74040000  0.91500000  0.18760000  1.0 -0.1906880568
F  F53  1  0.85930000  0.11000000  0.22920000  1.0 -0.1906880568
F  F54  1  0.80480000  0.01050000  0.11030000  1.0 -0.1972926665
F  F55  1  0.09470000  0.29540000  0.18083000  1.0 -0.1906880568
F  F56  1  0.01500000  0.18660000  0.14033000  1.0 -0.1972926665
F  F57  1  0.95060000  0.26290000  0.92943000  1.0 -0.1906880568
F  F58  1  0.91500000  0.17460000  0.02093000  1.0 -0.1906880568
F  F59  1  0.11000000  0.25070000  0.06253000  1.0 -0.1906880568
F  F60  1  0.01050000  0.20570000  0.94363000  1.0 -0.1972926665
F  F61  1  0.70460000  0.79930000  0.51417000  1.0 -0.1906880568
F  F62  1  0.81340000  0.82840000  0.47367000  1.0 -0.1972926665
F  F63  1  0.73710000  0.68770000  0.26277000  1.0 -0.1906880568
F  F64  1  0.82540000  0.74040000  0.35427000  1.0 -0.1906880568
F  F65  1  0.74930000  0.85930000  0.39587000  1.0 -0.1906880568
F  F66  1  0.79430000  0.80480000  0.27697000  1.0 -0.1972926665
F  F67  1  0.20070000  0.90530000  0.84750000  1.0 -0.1906880568
F  F68  1  0.17160000  0.98500000  0.80700000  1.0 -0.1972926665
F  F69  1  0.31230000  0.04940000  0.59610000  1.0 -0.1906880568
F  F70  1  0.25960000  0.08500000  0.68760000  1.0 -0.1906880568
F  F71  1  0.14070000  0.89000000  0.72920000  1.0 -0.1906880568
F  F72  1  0.19520000  0.98950000  0.61030000  1.0 -0.1972926665
