# DDEC6 charges by PACMAN v1.1 (https://github.com/mtap-research/PACMAN-charge/)
data_KISVEO_ASR_pacman
_symmetry_space_group_name_H-M   'P 1'
_cell_length_a   22.12490000
_cell_length_b   22.12490000
_cell_length_c   22.12490000
_cell_angle_alpha   101.41300000
_cell_angle_beta   101.41300000
_cell_angle_gamma   127.17400000
_symmetry_Int_Tables_number   1
_chemical_formula_structural   U14(SO4)19
_chemical_formula_sum   'U28 S38 O152'
_cell_volume   7728.86449014
_cell_formula_units_Z   2
loop_
 _symmetry_equiv_pos_site_id
 _symmetry_equiv_pos_as_xyz
  1  'x, y, z'
loop_
 _atom_site_type_symbol
 _atom_site_label
 _atom_site_symmetry_multiplicity
 _atom_site_fract_x
 _atom_site_fract_y
 _atom_site_fract_z
 _atom_site_occupancy
 _atom_site_charge
U  U1  1  0.21721000  0.58827000  0.37184000  1.0 2.3327776511
U  U2  1  0.84537000  0.21721000  0.62894000  1.0 2.3366991203
U  U3  1  0.58827000  0.21643000  0.37106000  1.0 2.3327776511
U  U4  1  0.21643000  0.84537000  0.62816000  1.0 2.3327776511
U  U5  1  0.78279000  0.41173000  0.62816000  1.0 2.3327776511
U  U6  1  0.15464000  0.78280000  0.37106000  1.0 2.3327776511
U  U7  1  0.41174000  0.78358000  0.62894000  1.0 2.3327776511
U  U8  1  0.78358000  0.15463000  0.37184000  1.0 2.3366991203
U  U9  1  0.61374000  0.13594000  0.14054000  1.0 2.2608979861
U  U10  1  0.47320000  0.61374000  0.47780000  1.0 2.2498959224
U  U11  1  0.13594000  0.99540000  0.52220000  1.0 2.2608979861
U  U12  1  0.99540000  0.47320000  0.85946000  1.0 2.2608979861
U  U13  1  0.38626000  0.86406000  0.85946000  1.0 2.2608979861
U  U14  1  0.52680000  0.38626000  0.52220000  1.0 2.2498959224
U  U15  1  0.86406000  0.00460000  0.47780000  1.0 2.2682660739
U  U16  1  0.00460000  0.52680000  0.14054000  1.0 2.2608979861
U  U17  1  0.82397000  0.46495000  0.28892000  1.0 2.2498959224
U  U18  1  0.53505000  0.82397000  0.35902000  1.0 2.2608979861
U  U19  1  0.46495000  0.17603000  0.64098000  1.0 2.2682660739
U  U20  1  0.17603000  0.53505000  0.71108000  1.0 2.2682660739
U  U21  1  0.54487000  0.40308000  0.27283000  1.0 2.0240613143
U  U22  1  0.27204000  0.54487000  0.14179000  1.0 2.0577547868
U  U23  1  0.40308000  0.13025000  0.85821000  1.0 2.0540177743
U  U24  1  0.13025000  0.27204000  0.72717000  1.0 2.0577547868
U  U25  1  0.45513000  0.59692000  0.72717000  1.0 2.044653527
U  U26  1  0.72796000  0.45513000  0.85821000  1.0 2.0577547868
U  U27  1  0.59692000  0.86975000  0.14179000  1.0 2.0540177743
U  U28  1  0.86975000  0.72796000  0.27283000  1.0 2.0313786189
S  S1  1  0.25000000  0.75000000  0.50000000  1.0 1.4765869896
S  S2  1  0.75000000  0.25000000  0.50000000  1.0 1.4765869896
S  S3  1  0.03282000  0.55344000  0.32046000  1.0 1.4479127362
S  S4  1  0.71236000  0.03282000  0.47938000  1.0 1.4479127362
S  S5  1  0.55344000  0.23298000  0.52062000  1.0 1.4448010842
S  S6  1  0.23298000  0.71236000  0.67954000  1.0 1.4479127362
S  S7  1  0.96718000  0.44656000  0.67954000  1.0 1.4479127362
S  S8  1  0.28764000  0.96718000  0.52062000  1.0 1.4479127362
S  S9  1  0.44656000  0.76702000  0.47938000  1.0 1.4479127362
S  S10  1  0.76702000  0.28764000  0.32046000  1.0 1.4479127362
S  S11  1  0.60089000  0.28294000  0.23065000  1.0 1.3171676716
S  S12  1  0.37024000  0.60089000  0.31795000  1.0 1.3304948046
S  S13  1  0.28294000  0.05229000  0.68205000  1.0 1.3304948046
S  S14  1  0.05229000  0.37024000  0.76935000  1.0 1.3304948046
S  S15  1  0.39911000  0.71706000  0.76935000  1.0 1.3304948046
S  S16  1  0.62976000  0.39911000  0.68205000  1.0 1.3304948046
S  S17  1  0.71706000  0.94771000  0.31795000  1.0 1.3304948046
S  S18  1  0.94771000  0.62976000  0.23065000  1.0 1.3304948046
S  S19  1  0.69719000  0.49899000  0.19618000  1.0 1.3000982623
S  S20  1  0.50101000  0.69719000  0.19820000  1.0 1.3000982623
S  S21  1  0.49899000  0.30281000  0.80180000  1.0 1.3000982623
S  S22  1  0.30281000  0.50101000  0.80382000  1.0 1.3000982623
S  S23  1  0.10125000  0.44642000  0.19709000  1.0 1.3089726885
S  S24  1  0.90416000  0.10125000  0.65483000  1.0 1.3089726885
S  S25  1  0.44642000  0.24933000  0.34517000  1.0 1.3171676716
S  S26  1  0.24933000  0.90416000  0.80291000  1.0 1.3089726885
S  S27  1  0.89875000  0.55358000  0.80291000  1.0 1.3089726885
S  S28  1  0.09584000  0.89875000  0.34517000  1.0 1.3171676716
S  S29  1  0.55358000  0.75067000  0.65483000  1.0 1.3089726885
S  S30  1  0.75067000  0.09584000  0.19709000  1.0 1.3089726885
S  S31  1  0.51591000  0.92775000  0.02778000  1.0 1.2580633595
S  S32  1  0.48813000  0.51591000  0.58816000  1.0 1.2580633595
S  S33  1  0.92775000  0.89997000  0.41184000  1.0 1.2580633595
S  S34  1  0.89997000  0.48813000  0.97222000  1.0 1.2525159041
S  S35  1  0.48409000  0.07225000  0.97222000  1.0 1.2580633595
S  S36  1  0.51187000  0.48409000  0.41184000  1.0 1.2580633595
S  S37  1  0.07225000  0.10003000  0.58816000  1.0 1.2580633595
S  S38  1  0.10003000  0.51187000  0.02778000  1.0 1.2580633595
O  O1  1  0.21440000  0.66450000  0.46610000  1.0 -0.760074236
O  O2  1  0.74830000  0.21440000  0.54990000  1.0 -0.7513999808
O  O3  1  0.66450000  0.19840000  0.45010000  1.0 -0.7513999808
O  O4  1  0.19840000  0.74830000  0.53390000  1.0 -0.760074236
O  O5  1  0.78560000  0.33550000  0.53390000  1.0 -0.760074236
O  O6  1  0.25170000  0.78560000  0.45010000  1.0 -0.7513999808
O  O7  1  0.33550000  0.80160000  0.54990000  1.0 -0.760074236
O  O8  1  0.80160000  0.25170000  0.46610000  1.0 -0.7513999808
O  O9  1  0.55130000  0.30500000  0.21070000  1.0 -0.7385663231
O  O10  1  0.34060000  0.55130000  0.24630000  1.0 -0.7513999808
O  O11  1  0.30500000  0.09430000  0.75370000  1.0 -0.7513999808
O  O12  1  0.09430000  0.34060000  0.78930000  1.0 -0.7513999808
O  O13  1  0.44870000  0.69500000  0.78930000  1.0 -0.7513999808
O  O14  1  0.65940000  0.44870000  0.75370000  1.0 -0.7513999808
O  O15  1  0.69500000  0.90570000  0.24630000  1.0 -0.7513999808
O  O16  1  0.90570000  0.65940000  0.21070000  1.0 -0.7385663231
O  O17  1  0.96310000  0.51860000  0.34050000  1.0 -0.7329161644
O  O18  1  0.62260000  0.96310000  0.44450000  1.0 -0.7385663231
O  O19  1  0.51860000  0.17810000  0.55550000  1.0 -0.7385663231
O  O20  1  0.17810000  0.62260000  0.65950000  1.0 -0.7385663231
O  O21  1  0.03690000  0.48140000  0.65950000  1.0 -0.7385663231
O  O22  1  0.37740000  0.03690000  0.55550000  1.0 -0.7385663231
O  O23  1  0.48140000  0.82190000  0.44450000  1.0 -0.7329161644
O  O24  1  0.82190000  0.37740000  0.34050000  1.0 -0.7329161644
O  O25  1  0.59830000  0.23840000  0.16970000  1.0 -0.7022031327
O  O26  1  0.42860000  0.59830000  0.35990000  1.0 -0.707199045
O  O27  1  0.23840000  0.06870000  0.64010000  1.0 -0.707199045
O  O28  1  0.06870000  0.42860000  0.83030000  1.0 -0.707199045
O  O29  1  0.40170000  0.76160000  0.83030000  1.0 -0.707199045
O  O30  1  0.57140000  0.40170000  0.64010000  1.0 -0.707199045
O  O31  1  0.76160000  0.93130000  0.35990000  1.0 -0.707199045
O  O32  1  0.93130000  0.57140000  0.16970000  1.0 -0.7022031327
O  O33  1  0.07520000  0.52570000  0.34510000  1.0 -0.7513999808
O  O34  1  0.73010000  0.07520000  0.54950000  1.0 -0.7513999808
O  O35  1  0.52570000  0.18060000  0.45050000  1.0 -0.7513999808
O  O36  1  0.18060000  0.73010000  0.65490000  1.0 -0.760074236
O  O37  1  0.92480000  0.47430000  0.65490000  1.0 -0.7513999808
O  O38  1  0.26990000  0.92480000  0.45050000  1.0 -0.760074236
O  O39  1  0.47430000  0.81940000  0.54950000  1.0 -0.7513999808
O  O40  1  0.81940000  0.26990000  0.34510000  1.0 -0.760074236
O  O41  1  0.56980000  0.01860000  0.05340000  1.0 -0.8104938673
O  O42  1  0.51640000  0.56980000  0.55120000  1.0 -0.8211955365
O  O43  1  0.01860000  0.96520000  0.44880000  1.0 -0.8289386663
O  O44  1  0.96520000  0.51640000  0.94660000  1.0 -0.8211955365
O  O45  1  0.43020000  0.98140000  0.94660000  1.0 -0.8289386663
O  O46  1  0.48360000  0.43020000  0.44880000  1.0 -0.8289386663
O  O47  1  0.98140000  0.03480000  0.55120000  1.0 -0.8289386663
O  O48  1  0.03480000  0.48360000  0.05340000  1.0 -0.8104938673
O  O49  1  0.56650000  0.22910000  0.26700000  1.0 -0.8104938673
O  O50  1  0.29950000  0.56650000  0.33740000  1.0 -0.804292647
O  O51  1  0.22910000  0.96210000  0.66260000  1.0 -0.8104938673
O  O52  1  0.96210000  0.29950000  0.73300000  1.0 -0.8104938673
O  O53  1  0.43350000  0.77090000  0.73300000  1.0 -0.8104938673
O  O54  1  0.70050000  0.43350000  0.66260000  1.0 -0.8104938673
O  O55  1  0.77090000  0.03790000  0.33740000  1.0 -0.804292647
O  O56  1  0.03790000  0.70050000  0.26700000  1.0 -0.804292647
O  O57  1  0.02490000  0.36090000  0.16060000  1.0 -0.4498748494
O  O58  1  0.86430000  0.02490000  0.66400000  1.0 -0.4498748494
O  O59  1  0.36090000  0.20030000  0.33600000  1.0 -0.4498748494
O  O60  1  0.20030000  0.86430000  0.83940000  1.0 -0.4498748494
O  O61  1  0.97510000  0.63910000  0.83940000  1.0 -0.4498748494
O  O62  1  0.13570000  0.97510000  0.33600000  1.0 -0.4498748494
O  O63  1  0.63910000  0.79970000  0.66400000  1.0 -0.4498748494
O  O64  1  0.79970000  0.13570000  0.16060000  1.0 -0.4498748494
O  O65  1  0.16620000  0.45980000  0.17580000  1.0 -0.8104938673
O  O66  1  0.99040000  0.16620000  0.70640000  1.0 -0.8104938673
O  O67  1  0.45980000  0.28400000  0.29360000  1.0 -0.8104938673
O  O68  1  0.28400000  0.99040000  0.82420000  1.0 -0.8104938673
O  O69  1  0.83380000  0.54020000  0.82420000  1.0 -0.8104938673
O  O70  1  0.00960000  0.83380000  0.29360000  1.0 -0.8211955365
O  O71  1  0.54020000  0.71600000  0.70640000  1.0 -0.8104938673
O  O72  1  0.71600000  0.00960000  0.17580000  1.0 -0.8104938673
O  O73  1  0.68680000  0.35870000  0.27550000  1.0 -0.8289386663
O  O74  1  0.41130000  0.68680000  0.32810000  1.0 -0.8211955365
O  O75  1  0.35870000  0.08320000  0.67190000  1.0 -0.8211955365
O  O76  1  0.08320000  0.41130000  0.72450000  1.0 -0.8211955365
O  O77  1  0.31320000  0.64130000  0.72450000  1.0 -0.8211955365
O  O78  1  0.58870000  0.31320000  0.67190000  1.0 -0.8211955365
O  O79  1  0.64130000  0.91680000  0.32810000  1.0 -0.8211955365
O  O80  1  0.91680000  0.58870000  0.27550000  1.0 -0.8211955365
O  O81  1  0.56600000  0.90910000  0.05550000  1.0 -0.7721121589
O  O82  1  0.51050000  0.56600000  0.65690000  1.0 -0.760074236
O  O83  1  0.90910000  0.85360000  0.34310000  1.0 -0.7794176365
O  O84  1  0.85360000  0.51050000  0.94450000  1.0 -0.7721121589
O  O85  1  0.43400000  0.09090000  0.94450000  1.0 -0.7721121589
O  O86  1  0.48950000  0.43400000  0.34310000  1.0 -0.760074236
O  O87  1  0.09090000  0.14640000  0.65690000  1.0 -0.7721121589
O  O88  1  0.14640000  0.48950000  0.05550000  1.0 -0.7794176365
O  O89  1  0.09120000  0.64330000  0.35030000  1.0 -0.8289386663
O  O90  1  0.74090000  0.09120000  0.44790000  1.0 -0.8211955365
O  O91  1  0.64330000  0.29300000  0.55210000  1.0 -0.8211955365
O  O92  1  0.29300000  0.74090000  0.64970000  1.0 -0.8211955365
O  O93  1  0.90880000  0.35670000  0.64970000  1.0 -0.8211955365
O  O94  1  0.25910000  0.90880000  0.55210000  1.0 -0.8211955365
O  O95  1  0.35670000  0.70700000  0.44790000  1.0 -0.8211955365
O  O96  1  0.70700000  0.25910000  0.35030000  1.0 -0.8211955365
O  O97  1  0.12890000  0.46570000  0.27000000  1.0 -0.7922095139
O  O98  1  0.85890000  0.12890000  0.66320000  1.0 -0.7794176365
O  O99  1  0.46570000  0.19570000  0.33680000  1.0 -0.7794176365
O  O100  1  0.19570000  0.85890000  0.73000000  1.0 -0.7922095139
O  O101  1  0.87110000  0.53430000  0.73000000  1.0 -0.7794176365
O  O102  1  0.14110000  0.87110000  0.33680000  1.0 -0.7794176365
O  O103  1  0.53430000  0.80430000  0.66320000  1.0 -0.7794176365
O  O104  1  0.80430000  0.14110000  0.27000000  1.0 -0.7794176365
O  O105  1  0.49140000  0.89750000  0.95390000  1.0 -0.7513999808
O  O106  1  0.53750000  0.49140000  0.59390000  1.0 -0.7385663231
O  O107  1  0.89750000  0.94360000  0.40610000  1.0 -0.760074236
O  O108  1  0.94360000  0.53750000  0.04610000  1.0 -0.7385663231
O  O109  1  0.50860000  0.10250000  0.04610000  1.0 -0.760074236
O  O110  1  0.46250000  0.50860000  0.40610000  1.0 -0.760074236
O  O111  1  0.10250000  0.05640000  0.59390000  1.0 -0.7385663231
O  O112  1  0.05640000  0.46250000  0.95390000  1.0 -0.7513999808
O  O113  1  0.09240000  0.50400000  0.18600000  1.0 -0.8104938673
O  O114  1  0.90640000  0.09240000  0.58840000  1.0 -0.8104938673
O  O115  1  0.50400000  0.31800000  0.41160000  1.0 -0.8104938673
O  O116  1  0.31800000  0.90640000  0.81400000  1.0 -0.8104938673
O  O117  1  0.90760000  0.49600000  0.81400000  1.0 -0.8211955365
O  O118  1  0.09360000  0.90760000  0.41160000  1.0 -0.8211955365
O  O119  1  0.49600000  0.68200000  0.58840000  1.0 -0.8104938673
O  O120  1  0.68200000  0.09360000  0.18600000  1.0 -0.8104938673
O  O121  1  0.00100000  0.52160000  0.24720000  1.0 -0.7794176365
O  O122  1  0.75380000  0.00100000  0.47940000  1.0 -0.7721121589
O  O123  1  0.52160000  0.27440000  0.52060000  1.0 -0.7721121589
O  O124  1  0.27440000  0.75380000  0.75280000  1.0 -0.7721121589
O  O125  1  0.99900000  0.47840000  0.75280000  1.0 -0.7794176365
O  O126  1  0.24620000  0.99900000  0.52060000  1.0 -0.7721121589
O  O127  1  0.47840000  0.72560000  0.47940000  1.0 -0.7721121589
O  O128  1  0.72560000  0.24620000  0.24720000  1.0 -0.7794176365
O  O129  1  0.44510000  0.89060000  0.04330000  1.0 -0.5418512815
O  O130  1  0.40180000  0.44510000  0.55450000  1.0 -0.5346205314
O  O131  1  0.89060000  0.84730000  0.44550000  1.0 -0.5418512815
O  O132  1  0.84730000  0.40180000  0.95670000  1.0 -0.5418512815
O  O133  1  0.55490000  0.10940000  0.95670000  1.0 -0.5418512815
O  O134  1  0.59820000  0.55490000  0.44550000  1.0 -0.5418512815
O  O135  1  0.10940000  0.15270000  0.55450000  1.0 -0.5418512815
O  O136  1  0.15270000  0.59820000  0.04330000  1.0 -0.5418512815
O  O137  1  0.74560000  0.58440000  0.20940000  1.0 -0.8104938673
O  O138  1  0.53620000  0.74560000  0.16120000  1.0 -0.8289386663
O  O139  1  0.58440000  0.37500000  0.83880000  1.0 -0.8289386663
O  O140  1  0.37500000  0.53620000  0.79060000  1.0 -0.8211955365
O  O141  1  0.25440000  0.41560000  0.79060000  1.0 -0.8289386663
O  O142  1  0.46380000  0.25440000  0.83880000  1.0 -0.8289386663
O  O143  1  0.41560000  0.62500000  0.16120000  1.0 -0.8289386663
O  O144  1  0.62500000  0.46380000  0.20940000  1.0 -0.8104938673
O  O145  1  0.74470000  0.48690000  0.23160000  1.0 -0.8211955365
O  O146  1  0.51310000  0.74470000  0.25780000  1.0 -0.8289386663
O  O147  1  0.48690000  0.25530000  0.74220000  1.0 -0.8370014508
O  O148  1  0.25530000  0.51310000  0.76840000  1.0 -0.8289386663
O  O149  1  0.66490000  0.46050000  0.12540000  1.0 -0.4498748494
O  O150  1  0.53950000  0.66490000  0.20440000  1.0 -0.4568730374
O  O151  1  0.46050000  0.33510000  0.79560000  1.0 -0.4568730374
O  O152  1  0.33510000  0.53950000  0.87460000  1.0 -0.4568730374
