# DDEC6 charges by PACMAN v1.1 (https://github.com/mtap-research/PACMAN-charge/)
data_KIVDUQ_ASR_pacman
_symmetry_space_group_name_H-M   'P 1'
_cell_length_a   10.87200000
_cell_length_b   16.73700000
_cell_length_c   17.38000000
_cell_angle_alpha   114.48000000
_cell_angle_beta   92.95000000
_cell_angle_gamma   99.63000000
_symmetry_Int_Tables_number   1
_chemical_formula_structural   KLa3H10(C6O5)5
_chemical_formula_sum   'K2 La6 H20 C60 O50'
_cell_volume   2811.86629290
_cell_formula_units_Z   2
loop_
 _symmetry_equiv_pos_site_id
 _symmetry_equiv_pos_as_xyz
  1  'x, y, z'
loop_
 _atom_site_type_symbol
 _atom_site_label
 _atom_site_symmetry_multiplicity
 _atom_site_fract_x
 _atom_site_fract_y
 _atom_site_fract_z
 _atom_site_occupancy
 _atom_site_charge
K  K1  1  0.73014000  0.25633000  0.01824000  1.0 0.8712725838
K  K2  1  0.26986000  0.74367000  0.98176000  1.0 0.8712725838
La  La1  1  0.08260000  0.14079000  0.01261000  1.0 1.9289499124
La  La2  1  0.91740000  0.85921000  0.98739000  1.0 1.9289499124
La  La3  1  0.37069000  0.34364000  0.99611000  1.0 1.9465255339
La  La4  1  0.62931000  0.65636000  0.00389000  1.0 1.9465255339
La  La5  1  0.43860000  0.86483000  0.40578000  1.0 1.8860901793
La  La6  1  0.56140000  0.13517000  0.59422000  1.0 1.8860901793
H  H1  1  0.11950000  0.97780000  0.79630000  1.0 0.1409037945
H  H2  1  0.88050000  0.02220000  0.20370000  1.0 0.1409037945
H  H3  1  0.05520000  0.44150000  0.87240000  1.0 0.1498366705
H  H4  1  0.94480000  0.55850000  0.12760000  1.0 0.1498366705
H  H5  1  0.85970000  0.50400000  0.87690000  1.0 0.1409037945
H  H6  1  0.14030000  0.49600000  0.12310000  1.0 0.1409037945
H  H7  1  0.39380000  0.05430000  0.13940000  1.0 0.1409037945
H  H8  1  0.60620000  0.94570000  0.86060000  1.0 0.1409037945
H  H9  1  0.13200000  0.87070000  0.64510000  1.0 0.1498366705
H  H10  1  0.86800000  0.12930000  0.35490000  1.0 0.1498366705
H  H11  1  0.80730000  0.78410000  0.72880000  1.0 0.1498366705
H  H12  1  0.19270000  0.21590000  0.27120000  1.0 0.1498366705
H  H13  1  0.58860000  0.98470000  0.12810000  1.0 0.1409037945
H  H14  1  0.41140000  0.01530000  0.87190000  1.0 0.1409037945
H  H15  1  0.18760000  0.58730000  0.39980000  1.0 0.1498366705
H  H16  1  0.81240000  0.41270000  0.60020000  1.0 0.1498366705
H  H17  1  0.66320000  0.76640000  0.59840000  1.0 0.1498366705
H  H18  1  0.33680000  0.23360000  0.40160000  1.0 0.1498366705
H  H19  1  0.06460000  0.42860000  0.31480000  1.0 0.1498366705
H  H20  1  0.93540000  0.57140000  0.68520000  1.0 0.1498366705
C  C1  1  0.41480000  0.18740000  0.07080000  1.0 0.5911946793
C  C2  1  0.58520000  0.81260000  0.92920000  1.0 0.5911946793
C  C3  1  0.49280000  0.13210000  0.08950000  1.0 0.0689587145
C  C4  1  0.50720000  0.86790000  0.91050000  1.0 0.0689587145
C  C5  1  0.26160000  0.97360000  0.64400000  1.0 0.0689587145
C  C6  1  0.73840000  0.02640000  0.35600000  1.0 0.0689587145
C  C7  1  0.19410000  0.42010000  0.23360000  1.0 0.0524969336
C  C8  1  0.80590000  0.57990000  0.76640000  1.0 0.0524969336
C  C9  1  0.66200000  0.42910000  0.95060000  1.0 0.6104103525
C  C10  1  0.33800000  0.57090000  0.04940000  1.0 0.6104103525
C  C11  1  0.24920000  0.06710000  0.77430000  1.0 0.0627221589
C  C12  1  0.75080000  0.93290000  0.22570000  1.0 0.0627221589
C  C13  1  0.78780000  0.06140000  0.05500000  1.0 0.5787482758
C  C14  1  0.21220000  0.93860000  0.94500000  1.0 0.5787482758
C  C15  1  0.96070000  0.36490000  0.92480000  1.0 0.0791109403
C  C16  1  0.03930000  0.63510000  0.07520000  1.0 0.0791109403
C  C17  1  0.66170000  0.07350000  0.08040000  1.0 0.0928365675
C  C18  1  0.33830000  0.92650000  0.91960000  1.0 0.0928365675
C  C19  1  0.04130000  0.31010000  0.94380000  1.0 0.5911946793
C  C20  1  0.95870000  0.68990000  0.05620000  1.0 0.5911946793
C  C21  1  0.16320000  0.33500000  0.15600000  1.0 0.55226626
C  C22  1  0.83680000  0.66500000  0.84400000  1.0 0.55226626
C  C23  1  0.79040000  0.41940000  0.92820000  1.0 0.0689587145
C  C24  1  0.20960000  0.58060000  0.07180000  1.0 0.0689587145
C  C25  1  0.16940000  0.98940000  0.75870000  1.0 -0.1607939924
C  C26  1  0.83060000  0.01060000  0.24130000  1.0 -0.1607939924
C  C27  1  0.28600000  0.15300000  0.85020000  1.0 0.5668955643
C  C28  1  0.71400000  0.84700000  0.14980000  1.0 0.5668955643
C  C29  1  0.98190000  0.42560000  0.89260000  1.0 -0.1607939924
C  C30  1  0.01810000  0.57440000  0.10740000  1.0 -0.1607939924
C  C31  1  0.89790000  0.96930000  0.84800000  1.0 0.5583551277
C  C32  1  0.10210000  0.03070000  0.15200000  1.0 0.5583551277
C  C33  1  0.87240000  0.46060000  0.89500000  1.0 -0.1704322106
C  C34  1  0.12760000  0.53940000  0.10500000  1.0 -0.1704322106
C  C35  1  0.61770000  0.93790000  0.60810000  1.0 0.5787482758
C  C36  1  0.38230000  0.06210000  0.39190000  1.0 0.5787482758
C  C37  1  0.46730000  0.06950000  0.11900000  1.0 -0.1607939924
C  C38  1  0.53270000  0.93050000  0.88100000  1.0 -0.1607939924
C  C39  1  0.68910000  0.90360000  0.65810000  1.0 0.0791109403
C  C40  1  0.31090000  0.09640000  0.34190000  1.0 0.0791109403
C  C41  1  0.81530000  0.91800000  0.76750000  1.0 0.0524969336
C  C42  1  0.18470000  0.08200000  0.23250000  1.0 0.0524969336
C  C43  1  0.17700000  0.92950000  0.67440000  1.0 -0.1704322106
C  C44  1  0.82300000  0.07050000  0.32560000  1.0 -0.1704322106
C  C45  1  0.30890000  0.94600000  0.56110000  1.0 0.5583551277
C  C46  1  0.69110000  0.05400000  0.43890000  1.0 0.5583551277
C  C47  1  0.78260000  0.82960000  0.71830000  1.0 -0.1704322106
C  C48  1  0.21740000  0.17040000  0.28170000  1.0 -0.1704322106
C  C49  1  0.57750000  0.03040000  0.11280000  1.0 -0.1795336965
C  C50  1  0.42250000  0.96960000  0.88720000  1.0 -0.1795336965
C  C51  1  0.20560000  0.54510000  0.34890000  1.0 -0.1795336965
C  C52  1  0.79440000  0.45490000  0.65110000  1.0 -0.1795336965
C  C53  1  0.29940000  0.55660000  0.30810000  1.0 0.0791109403
C  C54  1  0.70060000  0.44340000  0.69190000  1.0 0.0791109403
C  C55  1  0.70060000  0.81980000  0.64510000  1.0 -0.1795336965
C  C56  1  0.29940000  0.18020000  0.35490000  1.0 -0.1795336965
C  C57  1  0.13630000  0.45620000  0.30130000  1.0 -0.1795336965
C  C58  1  0.86370000  0.54380000  0.69870000  1.0 -0.1795336965
C  C59  1  0.40670000  0.63300000  0.32610000  1.0 0.5409298737
C  C60  1  0.59330000  0.36700000  0.67390000  1.0 0.5409298737
O  O1  1  0.81880000  0.99130000  0.05150000  1.0 -0.604342262
O  O2  1  0.18120000  0.00870000  0.94850000  1.0 -0.604342262
O  O3  1  0.46350000  0.23820000  0.03830000  1.0 -0.6573886077
O  O4  1  0.53650000  0.76180000  0.96170000  1.0 -0.6573886077
O  O5  1  0.30430000  0.17730000  0.08800000  1.0 -0.5840025644
O  O6  1  0.69570000  0.82270000  0.91200000  1.0 -0.5840025644
O  O7  1  0.92880000  0.92690000  0.88800000  1.0 -0.6183748166
O  O8  1  0.07120000  0.07310000  0.11200000  1.0 -0.6183748166
O  O9  1  0.99260000  0.25270000  0.96810000  1.0 -0.6119855047
O  O10  1  0.00740000  0.74730000  0.03190000  1.0 -0.6119855047
O  O11  1  0.61180000  0.13650000  0.06630000  1.0 -0.1704322106
O  O12  1  0.38820000  0.86350000  0.93370000  1.0 -0.1704322106
O  O13  1  0.84100000  0.35920000  0.94700000  1.0 -0.1607939924
O  O14  1  0.15900000  0.64080000  0.05300000  1.0 -0.1607939924
O  O15  1  0.85230000  0.12260000  0.04030000  1.0 -0.6289045612
O  O16  1  0.14770000  0.87740000  0.95970000  1.0 -0.6289045612
O  O17  1  0.22600000  0.16570000  0.91270000  1.0 -0.6399531837
O  O18  1  0.77400000  0.83430000  0.08730000  1.0 -0.6399531837
O  O19  1  0.60000000  0.37240000  0.97030000  1.0 -0.6183748166
O  O20  1  0.40000000  0.62760000  0.02970000  1.0 -0.6183748166
O  O21  1  0.15370000  0.32760000  0.93180000  1.0 -0.6119855047
O  O22  1  0.84630000  0.67240000  0.06820000  1.0 -0.6183748166
O  O23  1  0.93500000  0.05200000  0.87260000  1.0 -0.5684405963
O  O24  1  0.06500000  0.94800000  0.12740000  1.0 -0.5684405963
O  O25  1  0.75910000  0.96450000  0.73260000  1.0 -0.0877451549
O  O26  1  0.24090000  0.03550000  0.26740000  1.0 -0.0877451549
O  O27  1  0.37520000  0.21180000  0.85110000  1.0 -0.5840025644
O  O28  1  0.62480000  0.78820000  0.14890000  1.0 -0.5840025644
O  O29  1  0.21990000  0.32800000  0.09360000  1.0 -0.6510380904
O  O30  1  0.78010000  0.67200000  0.90640000  1.0 -0.6510380904
O  O31  1  0.38240000  0.00200000  0.54540000  1.0 -0.6510380904
O  O32  1  0.61760000  0.99800000  0.45460000  1.0 -0.6510380904
O  O33  1  0.29610000  0.48080000  0.23700000  1.0 -0.0962705414
O  O34  1  0.70390000  0.51920000  0.76300000  1.0 -0.0962705414
O  O35  1  0.62510000  0.49490000  0.94620000  1.0 -0.6399531837
O  O36  1  0.37490000  0.50510000  0.05380000  1.0 -0.6399531837
O  O37  1  0.07860000  0.27380000  0.15580000  1.0 -0.5684405963
O  O38  1  0.92140000  0.72620000  0.84420000  1.0 -0.5684405963
O  O39  1  0.30830000  0.05890000  0.70400000  1.0 -0.1059511106
O  O40  1  0.69170000  0.94110000  0.29600000  1.0 -0.1059511106
O  O41  1  0.62580000  0.02210000  0.63960000  1.0 -0.6399531837
O  O42  1  0.37420000  0.97790000  0.36040000  1.0 -0.6399531837
O  O43  1  0.27410000  0.86520000  0.50870000  1.0 -0.5550942819
O  O44  1  0.72590000  0.13480000  0.49130000  1.0 -0.5550942819
O  O45  1  0.55460000  0.88020000  0.53960000  1.0 -0.5935253303
O  O46  1  0.44540000  0.11980000  0.46040000  1.0 -0.5935253303
O  O47  1  0.39360000  0.70700000  0.38290000  1.0 -0.6399531837
O  O48  1  0.60640000  0.29300000  0.61710000  1.0 -0.6399531837
O  O49  1  0.49590000  0.61830000  0.28460000  1.0 -0.5243812005
O  O50  1  0.50410000  0.38170000  0.71540000  1.0 -0.5243812005
