# DDEC6 charges by PACMAN v1.1 (https://github.com/mtap-research/PACMAN-charge/)
data_KIVFEC_ASR_pacman
_symmetry_space_group_name_H-M   'P 1'
_cell_length_a   10.78600000
_cell_length_b   16.72600000
_cell_length_c   17.38500000
_cell_angle_alpha   114.67000000
_cell_angle_beta   93.29000000
_cell_angle_gamma   99.58000000
_symmetry_Int_Tables_number   1
_chemical_formula_structural   KPr3H10(C6O5)5
_chemical_formula_sum   'K2 Pr6 H20 C60 O50'
_cell_volume   2782.05102330
_cell_formula_units_Z   2
loop_
 _symmetry_equiv_pos_site_id
 _symmetry_equiv_pos_as_xyz
  1  'x, y, z'
loop_
 _atom_site_type_symbol
 _atom_site_label
 _atom_site_symmetry_multiplicity
 _atom_site_fract_x
 _atom_site_fract_y
 _atom_site_fract_z
 _atom_site_occupancy
 _atom_site_charge
K  K1  1  0.73380000  0.25844000  0.02004000  1.0 0.8724178749
K  K2  1  0.26620000  0.74156000  0.97996000  1.0 0.8724178749
Pr  Pr1  1  0.08363000  0.14059000  0.01175000  1.0 2.1679063516
Pr  Pr2  1  0.91637000  0.85941000  0.98825000  1.0 2.1679063516
Pr  Pr3  1  0.37249000  0.34309000  0.99430000  1.0 2.1641339736
Pr  Pr4  1  0.62751000  0.65691000  0.00570000  1.0 2.1641339736
Pr  Pr5  1  0.43730000  0.86677000  0.40593000  1.0 2.1312281566
Pr  Pr6  1  0.56270000  0.13323000  0.59407000  1.0 2.1312281566
H  H1  1  0.11740000  0.97470000  0.79410000  1.0 0.1484905775
H  H2  1  0.88260000  0.02530000  0.20590000  1.0 0.1414533847
H  H3  1  0.05830000  0.43980000  0.87030000  1.0 0.1414533847
H  H4  1  0.94170000  0.56020000  0.12970000  1.0 0.1414533847
H  H5  1  0.86230000  0.50450000  0.87700000  1.0 0.1414533847
H  H6  1  0.13770000  0.49550000  0.12300000  1.0 0.1414533847
H  H7  1  0.39460000  0.05570000  0.13910000  1.0 0.1414533847
H  H8  1  0.60540000  0.94430000  0.86090000  1.0 0.1414533847
H  H9  1  0.12920000  0.86740000  0.64320000  1.0 0.1484905775
H  H10  1  0.87080000  0.13260000  0.35680000  1.0 0.1484905775
H  H11  1  0.80120000  0.77900000  0.72290000  1.0 0.1484905775
H  H12  1  0.19880000  0.22100000  0.27710000  1.0 0.1484905775
H  H13  1  0.59020000  0.98540000  0.12710000  1.0 0.1414533847
H  H14  1  0.40980000  0.01460000  0.87290000  1.0 0.1414533847
H  H15  1  0.18030000  0.58880000  0.39790000  1.0 0.1484905775
H  H16  1  0.81970000  0.41120000  0.60210000  1.0 0.1484905775
H  H17  1  0.65900000  0.76380000  0.59540000  1.0 0.1484905775
H  H18  1  0.34100000  0.23620000  0.40460000  1.0 0.1484905775
H  H19  1  0.05880000  0.42990000  0.30760000  1.0 0.1484905775
H  H20  1  0.94120000  0.57010000  0.69240000  1.0 0.1484905775
C  C1  1  0.41530000  0.19030000  0.07100000  1.0 0.5989742058
C  C2  1  0.58470000  0.80970000  0.92900000  1.0 0.5989742058
C  C3  1  0.49250000  0.13480000  0.09020000  1.0 0.0686461723
C  C4  1  0.50750000  0.86520000  0.90980000  1.0 0.0686461723
C  C5  1  0.26060000  0.97160000  0.64280000  1.0 0.0780044535
C  C6  1  0.73940000  0.02840000  0.35720000  1.0 0.0780044535
C  C7  1  0.19440000  0.42190000  0.23210000  1.0 0.0587634223
C  C8  1  0.80560000  0.57810000  0.76790000  1.0 0.0587634223
C  C9  1  0.66370000  0.43050000  0.95190000  1.0 0.6283245759
C  C10  1  0.33630000  0.56950000  0.04810000  1.0 0.6283245759
C  C11  1  0.24770000  0.06450000  0.77350000  1.0 0.0886217115
C  C12  1  0.75230000  0.93550000  0.22650000  1.0 0.0886217115
C  C13  1  0.79040000  0.06150000  0.05390000  1.0 0.5989742058
C  C14  1  0.20960000  0.93850000  0.94610000  1.0 0.5989742058
C  C15  1  0.96240000  0.36330000  0.92260000  1.0 0.0886217115
C  C16  1  0.03760000  0.63670000  0.07740000  1.0 0.0886217115
C  C17  1  0.66410000  0.07400000  0.08060000  1.0 0.0886217115
C  C18  1  0.33590000  0.92600000  0.91940000  1.0 0.0886217115
C  C19  1  0.04430000  0.30760000  0.94110000  1.0 0.612944104
C  C20  1  0.95570000  0.69240000  0.05890000  1.0 0.612944104
C  C21  1  0.16600000  0.33740000  0.15360000  1.0 0.5699289518
C  C22  1  0.83400000  0.66260000  0.84640000  1.0 0.5699289518
C  C23  1  0.79170000  0.42110000  0.92950000  1.0 0.0587634223
C  C24  1  0.20830000  0.57890000  0.07050000  1.0 0.0587634223
C  C25  1  0.16770000  0.98650000  0.75680000  1.0 -0.1695214781
C  C26  1  0.83230000  0.01350000  0.24320000  1.0 -0.1695214781
C  C27  1  0.28570000  0.15260000  0.85160000  1.0 0.5870195108
C  C28  1  0.71430000  0.84740000  0.14840000  1.0 0.5870195108
C  C29  1  0.98470000  0.42450000  0.89090000  1.0 -0.1695214781
C  C30  1  0.01530000  0.57550000  0.10910000  1.0 -0.1695214781
C  C31  1  0.89700000  0.96600000  0.84880000  1.0 0.5794330316
C  C32  1  0.10300000  0.03400000  0.15120000  1.0 0.5794330316
C  C33  1  0.87490000  0.46090000  0.89500000  1.0 -0.1695214781
C  C34  1  0.12510000  0.53910000  0.10500000  1.0 -0.1695214781
C  C35  1  0.61990000  0.93780000  0.60490000  1.0 0.612944104
C  C36  1  0.38010000  0.06220000  0.39510000  1.0 0.612944104
C  C37  1  0.46840000  0.07120000  0.11890000  1.0 -0.1562179549
C  C38  1  0.53160000  0.92880000  0.88110000  1.0 -0.1562179549
C  C39  1  0.69110000  0.90160000  0.65520000  1.0 0.0886217115
C  C40  1  0.30890000  0.09840000  0.34480000  1.0 0.0886217115
C  C41  1  0.81440000  0.91390000  0.76630000  1.0 0.0587634223
C  C42  1  0.18560000  0.08610000  0.23370000  1.0 0.0587634223
C  C43  1  0.17450000  0.92640000  0.67270000  1.0 -0.1695214781
C  C44  1  0.82550000  0.07360000  0.32730000  1.0 -0.1695214781
C  C45  1  0.30910000  0.94460000  0.56030000  1.0 0.5794330316
C  C46  1  0.69090000  0.05540000  0.43970000  1.0 0.5794330316
C  C47  1  0.77810000  0.82580000  0.71380000  1.0 -0.1695214781
C  C48  1  0.22190000  0.17420000  0.28620000  1.0 -0.1695214781
C  C49  1  0.57950000  0.03150000  0.11230000  1.0 -0.1695214781
C  C50  1  0.42050000  0.96850000  0.88770000  1.0 -0.1695214781
C  C51  1  0.20160000  0.54740000  0.34780000  1.0 -0.1695214781
C  C52  1  0.79840000  0.45260000  0.65220000  1.0 -0.1695214781
C  C53  1  0.30150000  0.56060000  0.31030000  1.0 0.0686461723
C  C54  1  0.69850000  0.43940000  0.68970000  1.0 0.0686461723
C  C55  1  0.69850000  0.81710000  0.64220000  1.0 -0.1821742093
C  C56  1  0.30150000  0.18290000  0.35780000  1.0 -0.1821742093
C  C57  1  0.13330000  0.45780000  0.29690000  1.0 -0.1695214781
C  C58  1  0.86670000  0.54220000  0.70310000  1.0 -0.1695214781
C  C59  1  0.40790000  0.63630000  0.32810000  1.0 0.5481174665
C  C60  1  0.59210000  0.36370000  0.67190000  1.0 0.5481174665
O  O1  1  0.81960000  0.99120000  0.04940000  1.0 -0.6323735339
O  O2  1  0.18040000  0.00880000  0.95060000  1.0 -0.6323735339
O  O3  1  0.46290000  0.23990000  0.03790000  1.0 -0.6813406272
O  O4  1  0.53710000  0.76010000  0.96210000  1.0 -0.6813406272
O  O5  1  0.30410000  0.17990000  0.08820000  1.0 -0.6214518113
O  O6  1  0.69590000  0.82010000  0.91180000  1.0 -0.6214518113
O  O7  1  0.92630000  0.92050000  0.88620000  1.0 -0.6813406272
O  O8  1  0.07370000  0.07950000  0.11380000  1.0 -0.6813406272
O  O9  1  0.99550000  0.25050000  0.96520000  1.0 -0.6437536401
O  O10  1  0.00450000  0.74950000  0.03480000  1.0 -0.6437536401
O  O11  1  0.61370000  0.13850000  0.06630000  1.0 -0.1821742093
O  O12  1  0.38630000  0.86150000  0.93370000  1.0 -0.1821742093
O  O13  1  0.84280000  0.35850000  0.94640000  1.0 -0.1695214781
O  O14  1  0.15720000  0.64150000  0.05360000  1.0 -0.1695214781
O  O15  1  0.85530000  0.12250000  0.03950000  1.0 -0.6604085041
O  O16  1  0.14470000  0.87750000  0.96050000  1.0 -0.6604085041
O  O17  1  0.22630000  0.16460000  0.91370000  1.0 -0.6977632565
O  O18  1  0.77370000  0.83540000  0.08630000  1.0 -0.6977632565
O  O19  1  0.60030000  0.37430000  0.97260000  1.0 -0.6813406272
O  O20  1  0.39970000  0.62570000  0.02740000  1.0 -0.6813406272
O  O21  1  0.15700000  0.32520000  0.92850000  1.0 -0.6604085041
O  O22  1  0.84300000  0.67480000  0.07150000  1.0 -0.6604085041
O  O23  1  0.93790000  0.04840000  0.87340000  1.0 -0.6214518113
O  O24  1  0.06210000  0.95160000  0.12660000  1.0 -0.6148712558
O  O25  1  0.76250000  0.96290000  0.73060000  1.0 -0.0957141442
O  O26  1  0.23750000  0.03710000  0.26940000  1.0 -0.0957141442
O  O27  1  0.37570000  0.21070000  0.85190000  1.0 -0.6214518113
O  O28  1  0.62430000  0.78930000  0.14810000  1.0 -0.6214518113
O  O29  1  0.22580000  0.33140000  0.09120000  1.0 -0.7411798013
O  O30  1  0.77420000  0.66860000  0.90880000  1.0 -0.7411798013
O  O31  1  0.38530000  0.00160000  0.54590000  1.0 -0.7411798013
O  O32  1  0.61470000  0.99840000  0.45410000  1.0 -0.7411798013
O  O33  1  0.29870000  0.48320000  0.23780000  1.0 -0.0871224849
O  O34  1  0.70130000  0.51680000  0.76220000  1.0 -0.0871224849
O  O35  1  0.62780000  0.49770000  0.94940000  1.0 -0.6904153151
O  O36  1  0.37220000  0.50230000  0.05060000  1.0 -0.6904153151
O  O37  1  0.08000000  0.27470000  0.15000000  1.0 -0.604235105
O  O38  1  0.92000000  0.72530000  0.85000000  1.0 -0.604235105
O  O39  1  0.30730000  0.05740000  0.70420000  1.0 -0.1108630893
O  O40  1  0.69270000  0.94260000  0.29580000  1.0 -0.1108630893
O  O41  1  0.63050000  0.02140000  0.63680000  1.0 -0.6718630118
O  O42  1  0.36950000  0.97860000  0.36320000  1.0 -0.6718630118
O  O43  1  0.27260000  0.86480000  0.50590000  1.0 -0.5915432496
O  O44  1  0.72740000  0.13520000  0.49410000  1.0 -0.5915432496
O  O45  1  0.55520000  0.88010000  0.53610000  1.0 -0.6437536401
O  O46  1  0.44480000  0.11990000  0.46390000  1.0 -0.6437536401
O  O47  1  0.39140000  0.71150000  0.38400000  1.0 -0.7094450516
O  O48  1  0.60860000  0.28850000  0.61600000  1.0 -0.7094450516
O  O49  1  0.49910000  0.62200000  0.28920000  1.0 -0.5177230162
O  O50  1  0.50090000  0.37800000  0.71080000  1.0 -0.5177230162
