# DDEC6 charges by PACMAN v1.1 (https://github.com/mtap-research/PACMAN-charge/)
data_KIXXOH_FSR_pacman
_symmetry_space_group_name_H-M   'P 1'
_cell_length_a   22.00860000
_cell_length_b   11.01030000
_cell_length_c   26.98920000
_cell_angle_alpha   90.00000000
_cell_angle_beta   106.30300000
_cell_angle_gamma   90.00000000
_symmetry_Int_Tables_number   1
_chemical_formula_structural   CdH20C29(N3O2)2
_chemical_formula_sum   'Cd8 H160 C232 N48 O32'
_cell_volume   6277.08589199
_cell_formula_units_Z   8
loop_
 _symmetry_equiv_pos_site_id
 _symmetry_equiv_pos_as_xyz
  1  'x, y, z'
loop_
 _atom_site_type_symbol
 _atom_site_label
 _atom_site_symmetry_multiplicity
 _atom_site_fract_x
 _atom_site_fract_y
 _atom_site_fract_z
 _atom_site_occupancy
 _atom_site_charge
Cd  Cd1  1  0.58721000  0.46148000  0.48929000  1.0 0.8738410996
Cd  Cd2  1  0.58777000  0.45231000  0.99275000  1.0 0.8738410996
Cd  Cd3  1  0.91279000  0.96148000  0.51071000  1.0 0.8738410996
Cd  Cd4  1  0.91223000  0.95231000  0.00725000  1.0 0.875501089
Cd  Cd5  1  0.41279000  0.53852000  0.51071000  1.0 0.8738410996
Cd  Cd6  1  0.41223000  0.54769000  0.00725000  1.0 0.8738410996
Cd  Cd7  1  0.08721000  0.03852000  0.48929000  1.0 0.8738410996
Cd  Cd8  1  0.08777000  0.04769000  0.99275000  1.0 0.8738410996
H  H1  1  0.57417000  0.49682000  0.60441000  1.0 0.0903590184
H  H2  1  0.57013000  0.39379000  0.67743000  1.0 0.1107881081
H  H3  1  0.59359000  0.08323000  0.60677000  1.0 0.1307827087
H  H4  1  0.59999000  0.19588000  0.53683000  1.0 0.1107881081
H  H5  1  0.56006000  0.39569000  0.79454000  1.0 0.1215200376
H  H6  1  0.56153000  0.49527000  0.86970000  1.0 0.0999179857
H  H7  1  0.57069000  0.18955000  0.94408000  1.0 0.1107881081
H  H8  1  0.56878000  0.07997000  0.87116000  1.0 0.1307827087
H  H9  1  0.52408000  0.82496000  0.79306000  1.0 0.1107881081
H  H10  1  0.51726000  0.61696000  0.78753000  1.0 0.0999179857
H  H11  1  0.60833000  0.60904000  0.68304000  1.0 0.0903590184
H  H12  1  0.61223000  0.81695000  0.68087000  1.0 0.1107881081
H  H13  1  0.59078000  0.73654000  0.44785000  1.0 0.1107881081
H  H14  1  0.59423000  0.84739000  0.37637000  1.0 0.1307827087
H  H15  1  0.57508000  0.53437000  0.29673000  1.0 0.1215200376
H  H16  1  0.56947000  0.43419000  0.36977000  1.0 0.0999179857
H  H17  1  0.60122000  0.10553000  0.31734000  1.0 0.1307827087
H  H18  1  0.62097000  0.30937000  0.32056000  1.0 0.0903590184
H  H19  1  0.64686000  0.30613000  0.18425000  1.0 0.0999179857
H  H20  1  0.62806000  0.10205000  0.17587000  1.0 0.1307827087
H  H21  1  0.61025000  0.84237000  0.10946000  1.0 0.1307827087
H  H22  1  0.60992000  0.72925000  0.03773000  1.0 0.1107881081
H  H23  1  0.60225000  0.42691000  0.11107000  1.0 0.0999179857
H  H24  1  0.60271000  0.53034000  0.18517000  1.0 0.1307827087
H  H25  1  0.52130000  0.88803000  0.53196000  1.0 0.1404314913
H  H26  1  0.55566000  0.85414000  0.58935000  1.0 0.1307827087
H  H27  1  0.66368000  0.73140000  0.59457000  1.0 0.1215200376
H  H28  1  0.75958000  0.75402000  0.57687000  1.0 0.1215200376
H  H29  1  0.68502000  0.01551000  0.47431000  1.0 0.1307827087
H  H30  1  0.58803000  0.98732000  0.48994000  1.0 0.1215200376
H  H31  1  0.49939000  0.80992000  0.89169000  1.0 0.1404314913
H  H32  1  0.49345000  0.88425000  0.93969000  1.0 0.1490157621
H  H33  1  0.58388000  0.98956000  0.98839000  1.0 0.1215200376
H  H34  1  0.69114000  0.02919000  0.01208000  1.0 0.1307827087
H  H35  1  0.71802000  0.74173000  0.92966000  1.0 0.1307827087
H  H36  1  0.61044000  0.70863000  0.90300000  1.0 0.1107881081
H  H37  1  0.60976000  0.82537000  0.81621000  1.0 0.1107881081
H  H38  1  0.61376000  0.61557000  0.81376000  1.0 0.1107881081
H  H39  1  0.54173000  0.61598000  0.66483000  1.0 0.0823568666
H  H40  1  0.54237000  0.81979000  0.66224000  1.0 0.1107881081
H  H41  1  0.92583000  0.99682000  0.39559000  1.0 0.0903590184
H  H42  1  0.92987000  0.89379000  0.32257000  1.0 0.1107881081
H  H43  1  0.90641000  0.58323000  0.39323000  1.0 0.1307827087
H  H44  1  0.90001000  0.69588000  0.46317000  1.0 0.1107881081
H  H45  1  0.93994000  0.89569000  0.20546000  1.0 0.1215200376
H  H46  1  0.93847000  0.99527000  0.13030000  1.0 0.0999179857
H  H47  1  0.92931000  0.68955000  0.05592000  1.0 0.1107881081
H  H48  1  0.93122000  0.57997000  0.12884000  1.0 0.1307827087
H  H49  1  0.97592000  0.32496000  0.20694000  1.0 0.1107881081
H  H50  1  0.98274000  0.11696000  0.21247000  1.0 0.0999179857
H  H51  1  0.89167000  0.10904000  0.31696000  1.0 0.0903590184
H  H52  1  0.88777000  0.31695000  0.31913000  1.0 0.1107881081
H  H53  1  0.90922000  0.23654000  0.55215000  1.0 0.1107881081
H  H54  1  0.90577000  0.34739000  0.62363000  1.0 0.1307827087
H  H55  1  0.92492000  0.03437000  0.70327000  1.0 0.1215200376
H  H56  1  0.93053000  0.93419000  0.63023000  1.0 0.0999179857
H  H57  1  0.89878000  0.60553000  0.68266000  1.0 0.1307827087
H  H58  1  0.87903000  0.80937000  0.67944000  1.0 0.0903590184
H  H59  1  0.85314000  0.80613000  0.81575000  1.0 0.0999179857
H  H60  1  0.87194000  0.60205000  0.82413000  1.0 0.1307827087
H  H61  1  0.88975000  0.34237000  0.89054000  1.0 0.1307827087
H  H62  1  0.89008000  0.22925000  0.96227000  1.0 0.1107881081
H  H63  1  0.89775000  0.92691000  0.88893000  1.0 0.0999179857
H  H64  1  0.89729000  0.03034000  0.81483000  1.0 0.1307827087
H  H65  1  0.97870000  0.38803000  0.46804000  1.0 0.1404314913
H  H66  1  0.94434000  0.35414000  0.41065000  1.0 0.1307827087
H  H67  1  0.83632000  0.23140000  0.40543000  1.0 0.1215200376
H  H68  1  0.74042000  0.25402000  0.42313000  1.0 0.1215200376
H  H69  1  0.81498000  0.51551000  0.52569000  1.0 0.1307827087
H  H70  1  0.91197000  0.48732000  0.51006000  1.0 0.1215200376
H  H71  1  0.00061000  0.30992000  0.10831000  1.0 0.1404314913
H  H72  1  0.00655000  0.38425000  0.06031000  1.0 0.1490157621
H  H73  1  0.91612000  0.48956000  0.01161000  1.0 0.1215200376
H  H74  1  0.80886000  0.52919000  0.98792000  1.0 0.1307827087
H  H75  1  0.78198000  0.24173000  0.07034000  1.0 0.1307827087
H  H76  1  0.88956000  0.20863000  0.09700000  1.0 0.1107881081
H  H77  1  0.89024000  0.32537000  0.18379000  1.0 0.1107881081
H  H78  1  0.88624000  0.11557000  0.18624000  1.0 0.1107881081
H  H79  1  0.95827000  0.11598000  0.33517000  1.0 0.0823568666
H  H80  1  0.95763000  0.31979000  0.33776000  1.0 0.1107881081
H  H81  1  0.42583000  0.50318000  0.39559000  1.0 0.0903590184
H  H82  1  0.42987000  0.60621000  0.32257000  1.0 0.1107881081
H  H83  1  0.40641000  0.91677000  0.39323000  1.0 0.1307827087
H  H84  1  0.40001000  0.80412000  0.46317000  1.0 0.1107881081
H  H85  1  0.43994000  0.60431000  0.20546000  1.0 0.1215200376
H  H86  1  0.43847000  0.50473000  0.13030000  1.0 0.0999179857
H  H87  1  0.42931000  0.81045000  0.05592000  1.0 0.1107881081
H  H88  1  0.43122000  0.92003000  0.12884000  1.0 0.1307827087
H  H89  1  0.47592000  0.17504000  0.20694000  1.0 0.1107881081
H  H90  1  0.48274000  0.38304000  0.21247000  1.0 0.0999179857
H  H91  1  0.39167000  0.39096000  0.31696000  1.0 0.0903590184
H  H92  1  0.38777000  0.18305000  0.31913000  1.0 0.1107881081
H  H93  1  0.40922000  0.26346000  0.55215000  1.0 0.1107881081
H  H94  1  0.40577000  0.15261000  0.62363000  1.0 0.1307827087
H  H95  1  0.42492000  0.46563000  0.70327000  1.0 0.1215200376
H  H96  1  0.43053000  0.56581000  0.63023000  1.0 0.0999179857
H  H97  1  0.39878000  0.89447000  0.68266000  1.0 0.1307827087
H  H98  1  0.37903000  0.69063000  0.67944000  1.0 0.0903590184
H  H99  1  0.35314000  0.69387000  0.81575000  1.0 0.0999179857
H  H100  1  0.37194000  0.89795000  0.82413000  1.0 0.1307827087
H  H101  1  0.38975000  0.15763000  0.89054000  1.0 0.1307827087
H  H102  1  0.39008000  0.27075000  0.96227000  1.0 0.1107881081
H  H103  1  0.39775000  0.57309000  0.88893000  1.0 0.0999179857
H  H104  1  0.39729000  0.46966000  0.81483000  1.0 0.1307827087
H  H105  1  0.47870000  0.11197000  0.46804000  1.0 0.1404314913
H  H106  1  0.44434000  0.14586000  0.41065000  1.0 0.1307827087
H  H107  1  0.33632000  0.26860000  0.40543000  1.0 0.1215200376
H  H108  1  0.24042000  0.24598000  0.42313000  1.0 0.1215200376
H  H109  1  0.31498000  0.98449000  0.52569000  1.0 0.1307827087
H  H110  1  0.41197000  0.01268000  0.51006000  1.0 0.1215200376
H  H111  1  0.50061000  0.19008000  0.10831000  1.0 0.1404314913
H  H112  1  0.50655000  0.11575000  0.06031000  1.0 0.1490157621
H  H113  1  0.41612000  0.01044000  0.01161000  1.0 0.1215200376
H  H114  1  0.30886000  0.97081000  0.98792000  1.0 0.1307827087
H  H115  1  0.28198000  0.25827000  0.07034000  1.0 0.1307827087
H  H116  1  0.38956000  0.29137000  0.09700000  1.0 0.1107881081
H  H117  1  0.39024000  0.17463000  0.18379000  1.0 0.1107881081
H  H118  1  0.38624000  0.38443000  0.18624000  1.0 0.1107881081
H  H119  1  0.45827000  0.38402000  0.33517000  1.0 0.0823568666
H  H120  1  0.45763000  0.18021000  0.33776000  1.0 0.1107881081
H  H121  1  0.07417000  0.00318000  0.60441000  1.0 0.0903590184
H  H122  1  0.07013000  0.10621000  0.67743000  1.0 0.1107881081
H  H123  1  0.09359000  0.41677000  0.60677000  1.0 0.1307827087
H  H124  1  0.09999000  0.30412000  0.53683000  1.0 0.1107881081
H  H125  1  0.06006000  0.10431000  0.79454000  1.0 0.1215200376
H  H126  1  0.06153000  0.00473000  0.86970000  1.0 0.0999179857
H  H127  1  0.07069000  0.31045000  0.94408000  1.0 0.1107881081
H  H128  1  0.06878000  0.42003000  0.87116000  1.0 0.1307827087
H  H129  1  0.02408000  0.67504000  0.79306000  1.0 0.1107881081
H  H130  1  0.01726000  0.88304000  0.78753000  1.0 0.0999179857
H  H131  1  0.10833000  0.89096000  0.68304000  1.0 0.0903590184
H  H132  1  0.11223000  0.68305000  0.68087000  1.0 0.1107881081
H  H133  1  0.09078000  0.76346000  0.44785000  1.0 0.1107881081
H  H134  1  0.09423000  0.65261000  0.37637000  1.0 0.1307827087
H  H135  1  0.07508000  0.96563000  0.29673000  1.0 0.1215200376
H  H136  1  0.06947000  0.06581000  0.36977000  1.0 0.0999179857
H  H137  1  0.10122000  0.39447000  0.31734000  1.0 0.1307827087
H  H138  1  0.12097000  0.19063000  0.32056000  1.0 0.0903590184
H  H139  1  0.14686000  0.19387000  0.18425000  1.0 0.0999179857
H  H140  1  0.12806000  0.39795000  0.17587000  1.0 0.1307827087
H  H141  1  0.11025000  0.65763000  0.10946000  1.0 0.1307827087
H  H142  1  0.10992000  0.77075000  0.03773000  1.0 0.1107881081
H  H143  1  0.10225000  0.07309000  0.11107000  1.0 0.0999179857
H  H144  1  0.10271000  0.96966000  0.18517000  1.0 0.1307827087
H  H145  1  0.02130000  0.61197000  0.53196000  1.0 0.1404314913
H  H146  1  0.05566000  0.64586000  0.58935000  1.0 0.1307827087
H  H147  1  0.16368000  0.76860000  0.59457000  1.0 0.1215200376
H  H148  1  0.25958000  0.74598000  0.57687000  1.0 0.1215200376
H  H149  1  0.18502000  0.48449000  0.47431000  1.0 0.1307827087
H  H150  1  0.08803000  0.51268000  0.48994000  1.0 0.1215200376
H  H151  1  0.99939000  0.69008000  0.89169000  1.0 0.1404314913
H  H152  1  0.99345000  0.61575000  0.93969000  1.0 0.1490157621
H  H153  1  0.08388000  0.51044000  0.98839000  1.0 0.1215200376
H  H154  1  0.19114000  0.47081000  0.01208000  1.0 0.1307827087
H  H155  1  0.21802000  0.75827000  0.92966000  1.0 0.1307827087
H  H156  1  0.11044000  0.79137000  0.90300000  1.0 0.1107881081
H  H157  1  0.10976000  0.67463000  0.81621000  1.0 0.1107881081
H  H158  1  0.11376000  0.88443000  0.81376000  1.0 0.1107881081
H  H159  1  0.04173000  0.88402000  0.66483000  1.0 0.0823568666
H  H160  1  0.04237000  0.68021000  0.66224000  1.0 0.1107881081
C  C1  1  0.57808000  0.41270000  0.60504000  1.0 0.0687109607
C  C2  1  0.57527000  0.35160000  0.64904000  1.0 -0.1690597868
C  C3  1  0.58027000  0.22580000  0.65004000  1.0 0.0687109607
C  C4  1  0.58960000  0.16730000  0.60714000  1.0 -0.1614399267
C  C5  1  0.59286000  0.23560000  0.56509000  1.0 0.0823568666
C  C6  1  0.57567000  0.15700000  0.69632000  1.0 0.368846141
C  C7  1  0.56730000  0.15810000  0.77743000  1.0 0.368846141
C  C8  1  0.57073000  0.98050000  0.73710000  1.0 0.3102876919
C  C9  1  0.56513000  0.22630000  0.82456000  1.0 0.0687109607
C  C10  1  0.56245000  0.35190000  0.82450000  1.0 -0.1690597868
C  C11  1  0.56339000  0.41090000  0.86988000  1.0 0.0687109607
C  C12  1  0.56868000  0.23110000  0.91365000  1.0 0.0903590184
C  C13  1  0.56772000  0.16440000  0.87010000  1.0 -0.1614399267
C  C14  1  0.57001000  0.84620000  0.73753000  1.0 0.0211348568
C  C15  1  0.54120000  0.78320000  0.77020000  1.0 -0.0811820103
C  C16  1  0.53890000  0.65800000  0.76761000  1.0 -0.0317157301
C  C17  1  0.59170000  0.65280000  0.70564000  1.0 0.0288329262
C  C18  1  0.59430000  0.77840000  0.70406000  1.0 -0.0617098657
C  C19  1  0.58730000  0.69600000  0.41694000  1.0 0.0903590184
C  C20  1  0.58995000  0.76340000  0.37435000  1.0 -0.1614399267
C  C21  1  0.58606000  0.70240000  0.32839000  1.0 0.0687109607
C  C22  1  0.57822000  0.57740000  0.32700000  1.0 -0.1791578753
C  C23  1  0.57515000  0.51790000  0.37109000  1.0 0.0603574948
C  C24  1  0.59209000  0.76960000  0.28241000  1.0 0.3519302708
C  C25  1  0.60337000  0.94580000  0.24342000  1.0 0.3519302708
C  C26  1  0.60178000  0.76840000  0.20158000  1.0 0.3519302708
C  C27  1  0.61180000  0.07930000  0.24585000  1.0 0.0603574948
C  C28  1  0.61021000  0.14420000  0.28959000  1.0 -0.1791578753
C  C29  1  0.62220000  0.26710000  0.29102000  1.0 0.0522145416
C  C30  1  0.63736000  0.26530000  0.21130000  1.0 0.0603574948
C  C31  1  0.62613000  0.14220000  0.20571000  1.0 -0.1791578753
C  C32  1  0.60438000  0.69910000  0.15507000  1.0 0.0687109607
C  C33  1  0.60777000  0.75810000  0.11043000  1.0 -0.1690597868
C  C34  1  0.60739000  0.68940000  0.06748000  1.0 0.0903590184
C  C35  1  0.60292000  0.51140000  0.11072000  1.0 0.0823568666
C  C36  1  0.60324000  0.57260000  0.15546000  1.0 -0.1690597868
C  C37  1  0.52867000  0.70350000  0.54349000  1.0 0.6217559504
C  C38  1  0.55234000  0.83390000  0.55371000  1.0 -0.401218208
C  C39  1  0.61552000  0.85600000  0.54384000  1.0 0.1490157621
C  C40  1  0.66765000  0.78760000  0.56995000  1.0 -0.1614399267
C  C41  1  0.72532000  0.80200000  0.55982000  1.0 -0.0872758663
C  C42  1  0.73221000  0.88840000  0.52406000  1.0 -0.0196465364
C  C43  1  0.68069000  0.95770000  0.49820000  1.0 -0.0960125214
C  C44  1  0.62261000  0.94110000  0.50780000  1.0 -0.1886205895
C  C45  1  0.79554000  0.90780000  0.51483000  1.0 0.5473955275
C  C46  1  0.50113000  0.69950000  0.95411000  1.0 0.6373125391
C  C47  1  0.51538000  0.81720000  0.92891000  1.0 -0.401218208
C  C48  1  0.58556000  0.84480000  0.94325000  1.0 0.1404314913
C  C49  1  0.61070000  0.94030000  0.97601000  1.0 -0.1886205895
C  C50  1  0.67520000  0.96360000  0.99066000  1.0 -0.0960125214
C  C51  1  0.71606000  0.88940000  0.97345000  1.0 -0.0196465364
C  C52  1  0.69110000  0.79290000  0.94105000  1.0 -0.0872758663
C  C53  1  0.62658000  0.77210000  0.92557000  1.0 -0.1614399267
C  C54  1  0.78613000  0.91320000  0.98836000  1.0 0.5473955275
C  C55  1  0.59450000  0.78350000  0.78530000  1.0 -0.0742066119
C  C56  1  0.59470000  0.65820000  0.78360000  1.0 -0.0196465364
C  C57  1  0.55310000  0.65700000  0.69620000  1.0 0.0288329262
C  C58  1  0.55360000  0.78070000  0.69410000  1.0 -0.0742066119
C  C59  1  0.92192000  0.91270000  0.39496000  1.0 0.0687109607
C  C60  1  0.92473000  0.85160000  0.35096000  1.0 -0.1690597868
C  C61  1  0.91973000  0.72580000  0.34996000  1.0 0.0687109607
C  C62  1  0.91040000  0.66730000  0.39286000  1.0 -0.1614399267
C  C63  1  0.90714000  0.73560000  0.43491000  1.0 0.0823568666
C  C64  1  0.92433000  0.65700000  0.30368000  1.0 0.368846141
C  C65  1  0.93270000  0.65810000  0.22257000  1.0 0.368846141
C  C66  1  0.92927000  0.48050000  0.26290000  1.0 0.3102876919
C  C67  1  0.93487000  0.72630000  0.17544000  1.0 0.0687109607
C  C68  1  0.93755000  0.85190000  0.17550000  1.0 -0.1690597868
C  C69  1  0.93661000  0.91090000  0.13012000  1.0 0.0687109607
C  C70  1  0.93132000  0.73110000  0.08635000  1.0 0.0903590184
C  C71  1  0.93228000  0.66440000  0.12990000  1.0 -0.1614399267
C  C72  1  0.92999000  0.34620000  0.26247000  1.0 0.0211348568
C  C73  1  0.95880000  0.28320000  0.22980000  1.0 -0.0811820103
C  C74  1  0.96110000  0.15800000  0.23239000  1.0 -0.0317157301
C  C75  1  0.90830000  0.15280000  0.29436000  1.0 0.0288329262
C  C76  1  0.90570000  0.27840000  0.29594000  1.0 -0.0617098657
C  C77  1  0.91270000  0.19600000  0.58306000  1.0 0.0903590184
C  C78  1  0.91005000  0.26340000  0.62565000  1.0 -0.1614399267
C  C79  1  0.91394000  0.20240000  0.67161000  1.0 0.0687109607
C  C80  1  0.92178000  0.07740000  0.67300000  1.0 -0.1791578753
C  C81  1  0.92485000  0.01790000  0.62891000  1.0 0.0603574948
C  C82  1  0.90791000  0.26960000  0.71759000  1.0 0.3519302708
C  C83  1  0.89663000  0.44580000  0.75658000  1.0 0.3519302708
C  C84  1  0.89822000  0.26840000  0.79842000  1.0 0.3519302708
C  C85  1  0.88820000  0.57930000  0.75415000  1.0 0.0603574948
C  C86  1  0.88979000  0.64420000  0.71041000  1.0 -0.1791578753
C  C87  1  0.87780000  0.76710000  0.70898000  1.0 0.0522145416
C  C88  1  0.86264000  0.76530000  0.78870000  1.0 0.0603574948
C  C89  1  0.87387000  0.64220000  0.79429000  1.0 -0.1791578753
C  C90  1  0.89562000  0.19910000  0.84493000  1.0 0.0687109607
C  C91  1  0.89223000  0.25810000  0.88957000  1.0 -0.1690597868
C  C92  1  0.89261000  0.18940000  0.93252000  1.0 0.0903590184
C  C93  1  0.89708000  0.01140000  0.88928000  1.0 0.0823568666
C  C94  1  0.89676000  0.07260000  0.84454000  1.0 -0.1690597868
C  C95  1  0.97133000  0.20350000  0.45651000  1.0 0.6217559504
C  C96  1  0.94766000  0.33390000  0.44629000  1.0 -0.401218208
C  C97  1  0.88448000  0.35600000  0.45616000  1.0 0.1490157621
C  C98  1  0.83235000  0.28760000  0.43005000  1.0 -0.1614399267
C  C99  1  0.77468000  0.30200000  0.44018000  1.0 -0.0872758663
C  C100  1  0.76779000  0.38840000  0.47594000  1.0 -0.0196465364
C  C101  1  0.81931000  0.45770000  0.50180000  1.0 -0.0960125214
C  C102  1  0.87739000  0.44110000  0.49220000  1.0 -0.1886205895
C  C103  1  0.70446000  0.40780000  0.48517000  1.0 0.5473955275
C  C104  1  0.99887000  0.19950000  0.04589000  1.0 0.6373125391
C  C105  1  0.98462000  0.31720000  0.07109000  1.0 -0.401218208
C  C106  1  0.91444000  0.34480000  0.05675000  1.0 0.1404314913
C  C107  1  0.88930000  0.44030000  0.02399000  1.0 -0.1886205895
C  C108  1  0.82480000  0.46360000  0.00934000  1.0 -0.0960125214
C  C109  1  0.78394000  0.38940000  0.02655000  1.0 -0.0196465364
C  C110  1  0.80890000  0.29290000  0.05895000  1.0 -0.0872758663
C  C111  1  0.87342000  0.27210000  0.07443000  1.0 -0.1614399267
C  C112  1  0.71387000  0.41320000  0.01164000  1.0 0.5473955275
C  C113  1  0.90550000  0.28350000  0.21470000  1.0 -0.0742066119
C  C114  1  0.90530000  0.15820000  0.21640000  1.0 -0.0196465364
C  C115  1  0.94690000  0.15700000  0.30380000  1.0 0.0288329262
C  C116  1  0.94640000  0.28070000  0.30590000  1.0 -0.0742066119
C  C117  1  0.42192000  0.58730000  0.39496000  1.0 0.0687109607
C  C118  1  0.42473000  0.64840000  0.35096000  1.0 -0.1690597868
C  C119  1  0.41973000  0.77420000  0.34996000  1.0 0.0687109607
C  C120  1  0.41040000  0.83270000  0.39286000  1.0 -0.1614399267
C  C121  1  0.40714000  0.76440000  0.43491000  1.0 0.0823568666
C  C122  1  0.42433000  0.84300000  0.30368000  1.0 0.368846141
C  C123  1  0.43270000  0.84190000  0.22257000  1.0 0.368846141
C  C124  1  0.42927000  0.01950000  0.26290000  1.0 0.3102876919
C  C125  1  0.43487000  0.77370000  0.17544000  1.0 0.0687109607
C  C126  1  0.43755000  0.64810000  0.17550000  1.0 -0.1690597868
C  C127  1  0.43661000  0.58910000  0.13012000  1.0 0.0687109607
C  C128  1  0.43132000  0.76890000  0.08635000  1.0 0.0903590184
C  C129  1  0.43228000  0.83560000  0.12990000  1.0 -0.1614399267
C  C130  1  0.42999000  0.15380000  0.26247000  1.0 0.0211348568
C  C131  1  0.45880000  0.21680000  0.22980000  1.0 -0.0811820103
C  C132  1  0.46110000  0.34200000  0.23239000  1.0 -0.0317157301
C  C133  1  0.40830000  0.34720000  0.29436000  1.0 0.0288329262
C  C134  1  0.40570000  0.22160000  0.29594000  1.0 -0.0617098657
C  C135  1  0.41270000  0.30400000  0.58306000  1.0 0.0903590184
C  C136  1  0.41005000  0.23660000  0.62565000  1.0 -0.1614399267
C  C137  1  0.41394000  0.29760000  0.67161000  1.0 0.0687109607
C  C138  1  0.42178000  0.42260000  0.67300000  1.0 -0.1791578753
C  C139  1  0.42485000  0.48210000  0.62891000  1.0 0.0603574948
C  C140  1  0.40791000  0.23040000  0.71759000  1.0 0.3519302708
C  C141  1  0.39663000  0.05420000  0.75658000  1.0 0.3519302708
C  C142  1  0.39822000  0.23160000  0.79842000  1.0 0.3519302708
C  C143  1  0.38820000  0.92070000  0.75415000  1.0 0.0603574948
C  C144  1  0.38979000  0.85580000  0.71041000  1.0 -0.1791578753
C  C145  1  0.37780000  0.73290000  0.70898000  1.0 0.0522145416
C  C146  1  0.36264000  0.73470000  0.78870000  1.0 0.0603574948
C  C147  1  0.37387000  0.85780000  0.79429000  1.0 -0.1791578753
C  C148  1  0.39562000  0.30090000  0.84493000  1.0 0.0687109607
C  C149  1  0.39223000  0.24190000  0.88957000  1.0 -0.1690597868
C  C150  1  0.39261000  0.31060000  0.93252000  1.0 0.0903590184
C  C151  1  0.39708000  0.48860000  0.88928000  1.0 0.0823568666
C  C152  1  0.39676000  0.42740000  0.84454000  1.0 -0.1690597868
C  C153  1  0.47133000  0.29650000  0.45651000  1.0 0.6217559504
C  C154  1  0.44766000  0.16610000  0.44629000  1.0 -0.401218208
C  C155  1  0.38448000  0.14400000  0.45616000  1.0 0.1490157621
C  C156  1  0.33235000  0.21240000  0.43005000  1.0 -0.1614399267
C  C157  1  0.27468000  0.19800000  0.44018000  1.0 -0.0872758663
C  C158  1  0.26779000  0.11160000  0.47594000  1.0 -0.0196465364
C  C159  1  0.31931000  0.04230000  0.50180000  1.0 -0.0960125214
C  C160  1  0.37739000  0.05890000  0.49220000  1.0 -0.1886205895
C  C161  1  0.20446000  0.09220000  0.48517000  1.0 0.5473955275
C  C162  1  0.49887000  0.30050000  0.04589000  1.0 0.6373125391
C  C163  1  0.48462000  0.18280000  0.07109000  1.0 -0.401218208
C  C164  1  0.41444000  0.15520000  0.05675000  1.0 0.1404314913
C  C165  1  0.38930000  0.05970000  0.02399000  1.0 -0.1886205895
C  C166  1  0.32480000  0.03640000  0.00934000  1.0 -0.0960125214
C  C167  1  0.28394000  0.11060000  0.02655000  1.0 -0.0196465364
C  C168  1  0.30890000  0.20710000  0.05895000  1.0 -0.0872758663
C  C169  1  0.37342000  0.22790000  0.07443000  1.0 -0.1614399267
C  C170  1  0.21387000  0.08680000  0.01164000  1.0 0.5473955275
C  C171  1  0.40550000  0.21650000  0.21470000  1.0 -0.0742066119
C  C172  1  0.40530000  0.34180000  0.21640000  1.0 -0.0196465364
C  C173  1  0.44690000  0.34300000  0.30380000  1.0 0.0288329262
C  C174  1  0.44640000  0.21930000  0.30590000  1.0 -0.0742066119
C  C175  1  0.07808000  0.08730000  0.60504000  1.0 0.0687109607
C  C176  1  0.07527000  0.14840000  0.64904000  1.0 -0.1690597868
C  C177  1  0.08027000  0.27420000  0.65004000  1.0 0.0687109607
C  C178  1  0.08960000  0.33270000  0.60714000  1.0 -0.1614399267
C  C179  1  0.09286000  0.26440000  0.56509000  1.0 0.0823568666
C  C180  1  0.07567000  0.34300000  0.69632000  1.0 0.368846141
C  C181  1  0.06730000  0.34190000  0.77743000  1.0 0.368846141
C  C182  1  0.07073000  0.51950000  0.73710000  1.0 0.3102876919
C  C183  1  0.06513000  0.27370000  0.82456000  1.0 0.0687109607
C  C184  1  0.06245000  0.14810000  0.82450000  1.0 -0.1690597868
C  C185  1  0.06339000  0.08910000  0.86988000  1.0 0.0687109607
C  C186  1  0.06868000  0.26890000  0.91365000  1.0 0.0903590184
C  C187  1  0.06772000  0.33560000  0.87010000  1.0 -0.1614399267
C  C188  1  0.07001000  0.65380000  0.73753000  1.0 0.0211348568
C  C189  1  0.04120000  0.71680000  0.77020000  1.0 -0.0811820103
C  C190  1  0.03890000  0.84200000  0.76761000  1.0 -0.0317157301
C  C191  1  0.09170000  0.84720000  0.70564000  1.0 0.0288329262
C  C192  1  0.09430000  0.72160000  0.70406000  1.0 -0.0617098657
C  C193  1  0.08730000  0.80400000  0.41694000  1.0 0.0903590184
C  C194  1  0.08995000  0.73660000  0.37435000  1.0 -0.1614399267
C  C195  1  0.08606000  0.79760000  0.32839000  1.0 0.0687109607
C  C196  1  0.07822000  0.92260000  0.32700000  1.0 -0.1791578753
C  C197  1  0.07515000  0.98210000  0.37109000  1.0 0.0603574948
C  C198  1  0.09209000  0.73040000  0.28241000  1.0 0.3519302708
C  C199  1  0.10337000  0.55420000  0.24342000  1.0 0.3519302708
C  C200  1  0.10178000  0.73160000  0.20158000  1.0 0.3519302708
C  C201  1  0.11180000  0.42070000  0.24585000  1.0 0.0603574948
C  C202  1  0.11021000  0.35580000  0.28959000  1.0 -0.1791578753
C  C203  1  0.12220000  0.23290000  0.29102000  1.0 0.0522145416
C  C204  1  0.13736000  0.23470000  0.21130000  1.0 0.0603574948
C  C205  1  0.12613000  0.35780000  0.20571000  1.0 -0.1791578753
C  C206  1  0.10438000  0.80090000  0.15507000  1.0 0.0687109607
C  C207  1  0.10777000  0.74190000  0.11043000  1.0 -0.1690597868
C  C208  1  0.10739000  0.81060000  0.06748000  1.0 0.0903590184
C  C209  1  0.10292000  0.98860000  0.11072000  1.0 0.0823568666
C  C210  1  0.10324000  0.92740000  0.15546000  1.0 -0.1690597868
C  C211  1  0.02867000  0.79650000  0.54349000  1.0 0.6217559504
C  C212  1  0.05234000  0.66610000  0.55371000  1.0 -0.401218208
C  C213  1  0.11552000  0.64400000  0.54384000  1.0 0.1490157621
C  C214  1  0.16765000  0.71240000  0.56995000  1.0 -0.1614399267
C  C215  1  0.22532000  0.69800000  0.55982000  1.0 -0.0872758663
C  C216  1  0.23221000  0.61160000  0.52406000  1.0 -0.0196465364
C  C217  1  0.18069000  0.54230000  0.49820000  1.0 -0.0960125214
C  C218  1  0.12261000  0.55890000  0.50780000  1.0 -0.1886205895
C  C219  1  0.29554000  0.59220000  0.51483000  1.0 0.5473955275
C  C220  1  0.00113000  0.80050000  0.95411000  1.0 0.6373125391
C  C221  1  0.01538000  0.68280000  0.92891000  1.0 -0.401218208
C  C222  1  0.08556000  0.65520000  0.94325000  1.0 0.1404314913
C  C223  1  0.11070000  0.55970000  0.97601000  1.0 -0.1886205895
C  C224  1  0.17520000  0.53640000  0.99066000  1.0 -0.0960125214
C  C225  1  0.21606000  0.61060000  0.97345000  1.0 -0.0196465364
C  C226  1  0.19110000  0.70710000  0.94105000  1.0 -0.0872758663
C  C227  1  0.12658000  0.72790000  0.92557000  1.0 -0.1614399267
C  C228  1  0.28613000  0.58680000  0.98836000  1.0 0.5473955275
C  C229  1  0.09450000  0.71650000  0.78530000  1.0 -0.0742066119
C  C230  1  0.09470000  0.84180000  0.78360000  1.0 -0.0196465364
C  C231  1  0.05310000  0.84300000  0.69620000  1.0 0.0288329262
C  C232  1  0.05360000  0.71930000  0.69410000  1.0 -0.0742066119
N  N1  1  0.58618000  0.35683000  0.56319000  1.0 -0.2312306412
N  N2  1  0.57104000  0.22264000  0.73660000  1.0 -0.4112351311
N  N3  1  0.56585000  0.03688000  0.77960000  1.0 -0.401218208
N  N4  1  0.57626000  0.03573000  0.69428000  1.0 -0.4112351311
N  N5  1  0.56684000  0.35243000  0.91422000  1.0 -0.2312306412
N  N6  1  0.56678000  0.59120000  0.73739000  1.0 -0.2184749579
N  N7  1  0.57996000  0.57515000  0.41576000  1.0 -0.2312306412
N  N8  1  0.59500000  0.70358000  0.24166000  1.0 -0.4179717034
N  N9  1  0.59500000  0.89050000  0.28527000  1.0 -0.4112351311
N  N10  1  0.60628000  0.88914000  0.20038000  1.0 -0.4179717034
N  N11  1  0.63562000  0.33050000  0.25282000  1.0 -0.2507088183
N  N12  1  0.60352000  0.56767000  0.06681000  1.0 -0.2408054879
N  N13  1  0.91382000  0.85683000  0.43681000  1.0 -0.2312306412
N  N14  1  0.92896000  0.72264000  0.26340000  1.0 -0.4112351311
N  N15  1  0.93415000  0.53688000  0.22040000  1.0 -0.401218208
N  N16  1  0.92374000  0.53573000  0.30572000  1.0 -0.4112351311
N  N17  1  0.93316000  0.85243000  0.08578000  1.0 -0.2312306412
N  N18  1  0.93322000  0.09120000  0.26261000  1.0 -0.2184749579
N  N19  1  0.92004000  0.07515000  0.58424000  1.0 -0.2312306412
N  N20  1  0.90500000  0.20358000  0.75834000  1.0 -0.4112351311
N  N21  1  0.90500000  0.39050000  0.71473000  1.0 -0.4112351311
N  N22  1  0.89372000  0.38914000  0.79962000  1.0 -0.4179717034
N  N23  1  0.86438000  0.83050000  0.74718000  1.0 -0.2507088183
N  N24  1  0.89648000  0.06767000  0.93319000  1.0 -0.2408054879
N  N25  1  0.41382000  0.64317000  0.43681000  1.0 -0.2312306412
N  N26  1  0.42896000  0.77736000  0.26340000  1.0 -0.4112351311
N  N27  1  0.43415000  0.96312000  0.22040000  1.0 -0.401218208
N  N28  1  0.42374000  0.96427000  0.30572000  1.0 -0.4112351311
N  N29  1  0.43316000  0.64757000  0.08578000  1.0 -0.2312306412
N  N30  1  0.43322000  0.40880000  0.26261000  1.0 -0.2184749579
N  N31  1  0.42004000  0.42485000  0.58424000  1.0 -0.2312306412
N  N32  1  0.40500000  0.29642000  0.75834000  1.0 -0.4179717034
N  N33  1  0.40500000  0.10950000  0.71473000  1.0 -0.4112351311
N  N34  1  0.39372000  0.11086000  0.79962000  1.0 -0.4179717034
N  N35  1  0.36438000  0.66950000  0.74718000  1.0 -0.2507088183
N  N36  1  0.39648000  0.43233000  0.93319000  1.0 -0.2408054879
N  N37  1  0.08618000  0.14317000  0.56319000  1.0 -0.2312306412
N  N38  1  0.07104000  0.27736000  0.73660000  1.0 -0.4112351311
N  N39  1  0.06585000  0.46312000  0.77960000  1.0 -0.401218208
N  N40  1  0.07626000  0.46427000  0.69428000  1.0 -0.4112351311
N  N41  1  0.06684000  0.14757000  0.91422000  1.0 -0.2312306412
N  N42  1  0.06678000  0.90880000  0.73739000  1.0 -0.2184749579
N  N43  1  0.07996000  0.92485000  0.41576000  1.0 -0.2312306412
N  N44  1  0.09500000  0.79642000  0.24166000  1.0 -0.4179717034
N  N45  1  0.09500000  0.60950000  0.28527000  1.0 -0.4112351311
N  N46  1  0.10628000  0.61086000  0.20038000  1.0 -0.4179717034
N  N47  1  0.13562000  0.16950000  0.25282000  1.0 -0.2507088183
N  N48  1  0.10352000  0.93233000  0.06681000  1.0 -0.2408054879
O  O1  1  0.48232000  0.67597000  0.55992000  1.0 -0.5662228736
O  O2  1  0.55408000  0.63487000  0.51871000  1.0 -0.5662228736
O  O3  1  0.83959000  0.83426000  0.53484000  1.0 -0.5586751574
O  O4  1  0.80344000  0.99765000  0.48851000  1.0 -0.5484796239
O  O5  1  0.46056000  0.70625000  0.97864000  1.0 -0.5662228736
O  O6  1  0.52970000  0.60547000  0.94737000  1.0 -0.5794558896
O  O7  1  0.80873000  0.00276000  0.01579000  1.0 -0.5586751574
O  O8  1  0.82054000  0.84049000  0.97193000  1.0 -0.5586751574
O  O9  1  0.01768000  0.17597000  0.44008000  1.0 -0.5662228736
O  O10  1  0.94592000  0.13487000  0.48129000  1.0 -0.5662228736
O  O11  1  0.66041000  0.33426000  0.46516000  1.0 -0.5586751574
O  O12  1  0.69656000  0.49765000  0.51149000  1.0 -0.5484796239
O  O13  1  0.03944000  0.20625000  0.02136000  1.0 -0.5662228736
O  O14  1  0.97030000  0.10547000  0.05263000  1.0 -0.5794558896
O  O15  1  0.69127000  0.50276000  0.98421000  1.0 -0.5586751574
O  O16  1  0.67946000  0.34049000  0.02807000  1.0 -0.5586751574
O  O17  1  0.51768000  0.32403000  0.44008000  1.0 -0.5662228736
O  O18  1  0.44592000  0.36513000  0.48129000  1.0 -0.5662228736
O  O19  1  0.16041000  0.16574000  0.46516000  1.0 -0.5586751574
O  O20  1  0.19656000  0.00235000  0.51149000  1.0 -0.5484796239
O  O21  1  0.53944000  0.29375000  0.02136000  1.0 -0.5662228736
O  O22  1  0.47030000  0.39453000  0.05263000  1.0 -0.5794558896
O  O23  1  0.19127000  0.99724000  0.98421000  1.0 -0.5586751574
O  O24  1  0.17946000  0.15951000  0.02807000  1.0 -0.5586751574
O  O25  1  0.98232000  0.82403000  0.55992000  1.0 -0.5662228736
O  O26  1  0.05408000  0.86513000  0.51871000  1.0 -0.5662228736
O  O27  1  0.33959000  0.66574000  0.53484000  1.0 -0.5586751574
O  O28  1  0.30344000  0.50235000  0.48851000  1.0 -0.5484796239
O  O29  1  0.96056000  0.79375000  0.97864000  1.0 -0.5662228736
O  O30  1  0.02970000  0.89453000  0.94737000  1.0 -0.5794558896
O  O31  1  0.30873000  0.49724000  0.01579000  1.0 -0.5586751574
O  O32  1  0.32054000  0.65951000  0.97193000  1.0 -0.5586751574
