# DDEC6 charges by PACMAN v1.1 (https://github.com/mtap-research/PACMAN-charge/)
data_KIYBIF_FSR_pacman
_symmetry_space_group_name_H-M   'P 1'
_cell_length_a   11.84200000
_cell_length_b   11.75900000
_cell_length_c   27.43200000
_cell_angle_alpha   90.00000000
_cell_angle_beta   102.48000000
_cell_angle_gamma   90.00000000
_symmetry_Int_Tables_number   1
_chemical_formula_structural   Co5H48C64(N2O13)2
_chemical_formula_sum   'Co10 H96 C128 N8 O52'
_cell_volume   3729.64943761
_cell_formula_units_Z   2
loop_
 _symmetry_equiv_pos_site_id
 _symmetry_equiv_pos_as_xyz
  1  'x, y, z'
loop_
 _atom_site_type_symbol
 _atom_site_label
 _atom_site_symmetry_multiplicity
 _atom_site_fract_x
 _atom_site_fract_y
 _atom_site_fract_z
 _atom_site_occupancy
 _atom_site_charge
Co  Co1  1  0.30502000  0.63502000  0.01834000  1.0 1.0108715942
Co  Co2  1  0.69498000  0.13502000  0.48166000  1.0 1.0108715942
Co  Co3  1  0.69498000  0.36498000  0.98166000  1.0 1.0108715942
Co  Co4  1  0.30502000  0.86498000  0.51834000  1.0 1.0108715942
Co  Co5  1  0.16901000  0.64869000  0.10302000  1.0 0.9974392852
Co  Co6  1  0.83099000  0.14869000  0.39698000  1.0 0.9974392852
Co  Co7  1  0.83099000  0.35131000  0.89698000  1.0 0.9974392852
Co  Co8  1  0.16901000  0.85131000  0.60302000  1.0 0.9974392852
Co  Co9  1  0.00000000  0.50000000  0.00000000  1.0 1.1612704745
Co  Co10  1  0.00000000  0.00000000  0.50000000  1.0 1.1654962054
H  H1  1  0.36500000  0.50360000  0.17990000  1.0 0.1302476073
H  H2  1  0.63500000  0.00360000  0.32010000  1.0 0.1302476073
H  H3  1  0.63500000  0.49640000  0.82010000  1.0 0.1302476073
H  H4  1  0.36500000  0.99640000  0.67990000  1.0 0.1302476073
H  H5  1  0.57790000  0.60090000  0.21360000  1.0 0.1207798933
H  H6  1  0.42210000  0.10090000  0.28640000  1.0 0.1207798933
H  H7  1  0.42210000  0.39910000  0.78640000  1.0 0.1207798933
H  H8  1  0.57790000  0.89910000  0.71360000  1.0 0.1207798933
H  H9  1  0.66160000  0.59930000  0.30090000  1.0 0.1391347049
H  H10  1  0.33840000  0.09930000  0.19910000  1.0 0.1391347049
H  H11  1  0.33840000  0.40070000  0.69910000  1.0 0.1391347049
H  H12  1  0.66160000  0.90070000  0.80090000  1.0 0.1391347049
H  H13  1  0.53210000  0.41150000  0.39800000  1.0 0.1302476073
H  H14  1  0.46790000  0.91150000  0.10200000  1.0 0.1302476073
H  H15  1  0.46790000  0.58850000  0.60200000  1.0 0.1302476073
H  H16  1  0.53210000  0.08850000  0.89800000  1.0 0.1302476073
H  H17  1  0.37830000  0.36090000  0.33390000  1.0 0.1207798933
H  H18  1  0.62170000  0.86090000  0.16610000  1.0 0.1207798933
H  H19  1  0.62170000  0.63910000  0.66610000  1.0 0.1207798933
H  H20  1  0.37830000  0.13910000  0.83390000  1.0 0.1207798933
H  H21  1  0.36620000  0.42580000  0.25400000  1.0 0.1207798933
H  H22  1  0.63380000  0.92580000  0.24600000  1.0 0.1207798933
H  H23  1  0.63380000  0.57420000  0.74600000  1.0 0.1207798933
H  H24  1  0.36620000  0.07420000  0.75400000  1.0 0.1207798933
H  H25  1  0.79230000  0.52610000  0.45970000  1.0 0.1391347049
H  H26  1  0.20770000  0.02610000  0.04030000  1.0 0.1391347049
H  H27  1  0.20770000  0.47390000  0.54030000  1.0 0.1391347049
H  H28  1  0.79230000  0.97390000  0.95970000  1.0 0.1391347049
H  H29  1  0.65840000  0.50780000  0.45100000  1.0 0.1302476073
H  H30  1  0.34160000  0.00780000  0.04900000  1.0 0.1302476073
H  H31  1  0.34160000  0.49220000  0.54900000  1.0 0.1302476073
H  H32  1  0.65840000  0.99220000  0.95100000  1.0 0.1302476073
H  H33  1  0.10320000  0.22250000  0.12580000  1.0 0.1391347049
H  H34  1  0.89680000  0.72250000  0.37420000  1.0 0.1391347049
H  H35  1  0.89680000  0.77750000  0.87420000  1.0 0.1391347049
H  H36  1  0.10320000  0.27750000  0.62580000  1.0 0.1391347049
H  H37  1  0.14820000  0.38830000  0.19660000  1.0 0.1207798933
H  H38  1  0.85180000  0.88830000  0.30340000  1.0 0.1207798933
H  H39  1  0.85180000  0.61170000  0.80340000  1.0 0.1207798933
H  H40  1  0.14820000  0.11170000  0.69660000  1.0 0.1207798933
H  H41  1  0.16620000  0.35330000  0.28110000  1.0 0.1391347049
H  H42  1  0.83380000  0.85330000  0.21890000  1.0 0.1391347049
H  H43  1  0.83380000  0.64670000  0.71890000  1.0 0.1391347049
H  H44  1  0.16620000  0.14670000  0.78110000  1.0 0.1391347049
H  H45  1  0.15780000  0.04110000  0.33830000  1.0 0.1302476073
H  H46  1  0.84220000  0.54110000  0.16170000  1.0 0.1302476073
H  H47  1  0.84220000  0.95890000  0.66170000  1.0 0.1302476073
H  H48  1  0.15780000  0.45890000  0.83830000  1.0 0.1302476073
H  H49  1  0.11920000  0.96750000  0.25860000  1.0 0.1105432263
H  H50  1  0.88080000  0.46750000  0.24140000  1.0 0.1105432263
H  H51  1  0.88080000  0.03250000  0.74140000  1.0 0.1105432263
H  H52  1  0.11920000  0.53250000  0.75860000  1.0 0.1105432263
H  H53  1  0.10890000  0.08330000  0.18950000  1.0 0.1302476073
H  H54  1  0.89110000  0.58330000  0.31050000  1.0 0.1302476073
H  H55  1  0.89110000  0.91670000  0.81050000  1.0 0.1302476073
H  H56  1  0.10890000  0.41670000  0.68950000  1.0 0.1302476073
H  H57  1  0.25430000  0.12800000  0.40340000  1.0 0.1207798933
H  H58  1  0.74570000  0.62800000  0.09660000  1.0 0.1207798933
H  H59  1  0.74570000  0.87200000  0.59660000  1.0 0.1207798933
H  H60  1  0.25430000  0.37200000  0.90340000  1.0 0.1207798933
H  H61  1  0.25000000  0.23840000  0.43480000  1.0 0.1302476073
H  H62  1  0.75000000  0.73840000  0.06520000  1.0 0.1302476073
H  H63  1  0.75000000  0.76160000  0.56520000  1.0 0.1302476073
H  H64  1  0.25000000  0.26160000  0.93480000  1.0 0.1302476073
H  H65  1  0.33350000  0.79860000  0.18510000  1.0 0.1045833616
H  H66  1  0.66650000  0.29860000  0.31490000  1.0 0.1045833616
H  H67  1  0.66650000  0.20140000  0.81490000  1.0 0.1045833616
H  H68  1  0.33350000  0.70140000  0.68510000  1.0 0.1045833616
H  H69  1  0.36870000  0.83940000  0.26850000  1.0 0.1302476073
H  H70  1  0.63130000  0.33940000  0.23150000  1.0 0.1302476073
H  H71  1  0.63130000  0.16060000  0.73150000  1.0 0.1302476073
H  H72  1  0.36870000  0.66060000  0.76850000  1.0 0.1302476073
H  H73  1  0.11600000  0.62420000  0.28110000  1.0 0.1207798933
H  H74  1  0.88400000  0.12420000  0.21890000  1.0 0.1207798933
H  H75  1  0.88400000  0.37580000  0.71890000  1.0 0.1207798933
H  H76  1  0.11600000  0.87580000  0.78110000  1.0 0.1207798933
H  H77  1  0.08980000  0.58740000  0.19790000  1.0 0.1105432263
H  H78  1  0.91020000  0.08740000  0.30210000  1.0 0.1105432263
H  H79  1  0.91020000  0.41260000  0.80210000  1.0 0.1105432263
H  H80  1  0.08980000  0.91260000  0.69790000  1.0 0.1105432263
H  H81  1  0.38970000  0.88030000  0.34500000  1.0 0.1302476073
H  H82  1  0.61030000  0.38030000  0.15500000  1.0 0.1302476073
H  H83  1  0.61030000  0.11970000  0.65500000  1.0 0.1302476073
H  H84  1  0.38970000  0.61970000  0.84500000  1.0 0.1302476073
H  H85  1  0.40400000  0.92640000  0.42630000  1.0 0.1105432263
H  H86  1  0.59600000  0.42640000  0.07370000  1.0 0.1105432263
H  H87  1  0.59600000  0.07360000  0.57370000  1.0 0.1105432263
H  H88  1  0.40400000  0.57360000  0.92630000  1.0 0.1105432263
H  H89  1  0.14960000  0.73010000  0.43520000  1.0 0.1207798933
H  H90  1  0.85040000  0.23010000  0.06480000  1.0 0.1207798933
H  H91  1  0.85040000  0.26990000  0.56480000  1.0 0.1207798933
H  H92  1  0.14960000  0.76990000  0.93520000  1.0 0.1207798933
H  H93  1  0.12760000  0.67880000  0.35400000  1.0 0.1302476073
H  H94  1  0.87240000  0.17880000  0.14600000  1.0 0.1302476073
H  H95  1  0.87240000  0.32120000  0.64600000  1.0 0.1302476073
H  H96  1  0.12760000  0.82120000  0.85400000  1.0 0.1302476073
C  C1  1  0.43730000  0.59400000  0.12836000  1.0 0.6110651096
C  C2  1  0.56270000  0.09400000  0.37164000  1.0 0.6110651096
C  C3  1  0.56270000  0.40600000  0.87164000  1.0 0.6110651096
C  C4  1  0.43730000  0.90600000  0.62836000  1.0 0.6110651096
C  C5  1  0.42990000  0.54580000  0.17738000  1.0 -0.2405740444
C  C6  1  0.57010000  0.04580000  0.32262000  1.0 -0.2405740444
C  C7  1  0.57010000  0.45420000  0.82262000  1.0 -0.2405740444
C  C8  1  0.42990000  0.95420000  0.67738000  1.0 -0.2405740444
C  C9  1  0.51290000  0.56080000  0.21775000  1.0 -0.1280772933
C  C10  1  0.48710000  0.06080000  0.28225000  1.0 -0.1280772933
C  C11  1  0.48710000  0.43920000  0.78225000  1.0 -0.1280772933
C  C12  1  0.51290000  0.93920000  0.71775000  1.0 -0.1280772933
C  C13  1  0.51280000  0.52040000  0.26855000  1.0 0.1391347049
C  C14  1  0.48720000  0.02040000  0.23145000  1.0 0.1391347049
C  C15  1  0.48720000  0.47960000  0.73145000  1.0 0.1391347049
C  C16  1  0.51280000  0.97960000  0.76855000  1.0 0.1391347049
C  C17  1  0.60490000  0.55020000  0.30727000  1.0 -0.2655285696
C  C18  1  0.39510000  0.05020000  0.19273000  1.0 -0.2655285696
C  C19  1  0.39510000  0.44980000  0.69273000  1.0 -0.2655285696
C  C20  1  0.60490000  0.94980000  0.80727000  1.0 -0.2655285696
C  C21  1  0.61350000  0.50840000  0.35492000  1.0 0.2493972233
C  C22  1  0.38650000  0.00840000  0.14508000  1.0 0.2493972233
C  C23  1  0.38650000  0.49160000  0.64508000  1.0 0.2493972233
C  C24  1  0.61350000  0.99160000  0.85492000  1.0 0.2493972233
C  C25  1  0.52790000  0.43800000  0.36576000  1.0 -0.221861214
C  C26  1  0.47210000  0.93800000  0.13424000  1.0 -0.221861214
C  C27  1  0.47210000  0.56200000  0.63424000  1.0 -0.221861214
C  C28  1  0.52790000  0.06200000  0.86576000  1.0 -0.221861214
C  C29  1  0.43590000  0.40840000  0.32718000  1.0 -0.0561903367
C  C30  1  0.56410000  0.90840000  0.17282000  1.0 -0.0561903367
C  C31  1  0.56410000  0.59160000  0.67282000  1.0 -0.0561903367
C  C32  1  0.43590000  0.09160000  0.82718000  1.0 -0.0561903367
C  C33  1  0.42810000  0.44770000  0.27927000  1.0 -0.1887949943
C  C34  1  0.57190000  0.94770000  0.22073000  1.0 -0.1887949943
C  C35  1  0.57190000  0.55230000  0.72073000  1.0 -0.1887949943
C  C36  1  0.42810000  0.05230000  0.77927000  1.0 -0.1887949943
C  C37  1  0.72630000  0.49060000  0.43791000  1.0 -0.1809708426
C  C38  1  0.27370000  0.99060000  0.06209000  1.0 -0.1809708426
C  C39  1  0.27370000  0.50940000  0.56209000  1.0 -0.1809708426
C  C40  1  0.72630000  0.00940000  0.93791000  1.0 -0.1809708426
C  C41  1  0.74430000  0.36330000  0.43924000  1.0 0.6110651096
C  C42  1  0.25570000  0.86330000  0.06076000  1.0 0.6110651096
C  C43  1  0.25570000  0.63670000  0.56076000  1.0 0.6110651096
C  C44  1  0.74430000  0.13670000  0.93924000  1.0 0.6110651096
C  C45  1  0.10840000  0.39410000  0.10318000  1.0 0.6317611089
C  C46  1  0.89160000  0.89410000  0.39682000  1.0 0.6317611089
C  C47  1  0.89160000  0.60590000  0.89682000  1.0 0.6317611089
C  C48  1  0.10840000  0.10590000  0.60318000  1.0 0.6317611089
C  C49  1  0.11410000  0.29610000  0.13833000  1.0 -0.2145311894
C  C50  1  0.88590000  0.79610000  0.36167000  1.0 -0.2145311894
C  C51  1  0.88590000  0.70390000  0.86167000  1.0 -0.2145311894
C  C52  1  0.11410000  0.20390000  0.63833000  1.0 -0.2145311894
C  C53  1  0.13420000  0.31300000  0.18682000  1.0 -0.1218566291
C  C54  1  0.86580000  0.81300000  0.31318000  1.0 -0.1218566291
C  C55  1  0.86580000  0.68700000  0.81318000  1.0 -0.1218566291
C  C56  1  0.13420000  0.18700000  0.68682000  1.0 -0.1218566291
C  C57  1  0.13830000  0.23190000  0.22819000  1.0 0.1302476073
C  C58  1  0.86170000  0.73190000  0.27181000  1.0 0.1302476073
C  C59  1  0.86170000  0.76810000  0.77181000  1.0 0.1302476073
C  C60  1  0.13830000  0.26810000  0.72819000  1.0 0.1302476073
C  C61  1  0.15820000  0.27510000  0.27638000  1.0 -0.2655285696
C  C62  1  0.84180000  0.77510000  0.22362000  1.0 -0.2655285696
C  C63  1  0.84180000  0.72490000  0.72362000  1.0 -0.2655285696
C  C64  1  0.15820000  0.22490000  0.77638000  1.0 -0.2655285696
C  C65  1  0.16660000  0.20500000  0.31764000  1.0 0.2605553618
C  C66  1  0.83340000  0.70500000  0.18236000  1.0 0.2605553618
C  C67  1  0.83340000  0.79500000  0.68236000  1.0 0.2605553618
C  C68  1  0.16660000  0.29500000  0.81764000  1.0 0.2605553618
C  C69  1  0.15240000  0.08910000  0.31097000  1.0 -0.221861214
C  C70  1  0.84760000  0.58910000  0.18903000  1.0 -0.221861214
C  C71  1  0.84760000  0.91090000  0.68903000  1.0 -0.221861214
C  C72  1  0.15240000  0.41090000  0.81097000  1.0 -0.221861214
C  C73  1  0.13000000  0.04550000  0.26311000  1.0 -0.0732461164
C  C74  1  0.87000000  0.54550000  0.23689000  1.0 -0.0732461164
C  C75  1  0.87000000  0.95450000  0.73689000  1.0 -0.0732461164
C  C76  1  0.13000000  0.45450000  0.76311000  1.0 -0.0732461164
C  C77  1  0.12320000  0.11460000  0.22139000  1.0 -0.1887949943
C  C78  1  0.87680000  0.61460000  0.27861000  1.0 -0.1887949943
C  C79  1  0.87680000  0.88540000  0.77861000  1.0 -0.1887949943
C  C80  1  0.12320000  0.38540000  0.72139000  1.0 -0.1887949943
C  C81  1  0.20720000  0.19340000  0.40733000  1.0 -0.1645831267
C  C82  1  0.79280000  0.69340000  0.09267000  1.0 -0.1645831267
C  C83  1  0.79280000  0.80660000  0.59267000  1.0 -0.1645831267
C  C84  1  0.20720000  0.30660000  0.90733000  1.0 -0.1645831267
C  C85  1  0.09470000  0.15160000  0.42079000  1.0 0.5974396219
C  C86  1  0.90530000  0.65160000  0.07921000  1.0 0.5974396219
C  C87  1  0.90530000  0.84840000  0.57921000  1.0 0.5974396219
C  C88  1  0.09470000  0.34840000  0.92079000  1.0 0.5974396219
C  C89  1  0.28860000  0.76310000  0.20459000  1.0 0.1045833616
C  C90  1  0.71140000  0.26310000  0.29541000  1.0 0.1045833616
C  C91  1  0.71140000  0.23690000  0.79541000  1.0 0.1045833616
C  C92  1  0.28860000  0.73690000  0.70459000  1.0 0.1045833616
C  C93  1  0.31000000  0.78880000  0.25497000  1.0 -0.1887949943
C  C94  1  0.69000000  0.28880000  0.24503000  1.0 -0.1887949943
C  C95  1  0.69000000  0.21120000  0.74503000  1.0 -0.1887949943
C  C96  1  0.31000000  0.71120000  0.75497000  1.0 -0.1887949943
C  C97  1  0.24410000  0.73940000  0.28528000  1.0 0.1207798933
C  C98  1  0.75590000  0.23940000  0.21472000  1.0 0.1207798933
C  C99  1  0.75590000  0.26060000  0.71472000  1.0 0.1207798933
C  C100  1  0.24410000  0.76060000  0.78528000  1.0 0.1207798933
C  C101  1  0.16130000  0.66180000  0.26240000  1.0 -0.2003406292
C  C102  1  0.83870000  0.16180000  0.23760000  1.0 -0.2003406292
C  C103  1  0.83870000  0.33820000  0.73760000  1.0 -0.2003406292
C  C104  1  0.16130000  0.83820000  0.76240000  1.0 -0.2003406292
C  C105  1  0.14600000  0.64000000  0.21211000  1.0 0.0889742444
C  C106  1  0.85400000  0.14000000  0.28789000  1.0 0.0889742444
C  C107  1  0.85400000  0.36000000  0.78789000  1.0 0.0889742444
C  C108  1  0.14600000  0.86000000  0.71211000  1.0 0.0889742444
C  C109  1  0.25850000  0.77030000  0.33885000  1.0 0.0889742444
C  C110  1  0.74150000  0.27030000  0.16115000  1.0 0.0889742444
C  C111  1  0.74150000  0.22970000  0.66115000  1.0 0.0889742444
C  C112  1  0.25850000  0.72970000  0.83885000  1.0 0.0889742444
C  C113  1  0.33930000  0.84690000  0.36250000  1.0 -0.1887949943
C  C114  1  0.66070000  0.34690000  0.13750000  1.0 -0.1887949943
C  C115  1  0.66070000  0.15310000  0.63750000  1.0 -0.1887949943
C  C116  1  0.33930000  0.65310000  0.86250000  1.0 -0.1887949943
C  C117  1  0.34700000  0.87490000  0.41174000  1.0 0.0821717879
C  C118  1  0.65300000  0.37490000  0.08826000  1.0 0.0821717879
C  C119  1  0.65300000  0.12510000  0.58826000  1.0 0.0821717879
C  C120  1  0.34700000  0.62510000  0.91174000  1.0 0.0821717879
C  C121  1  0.19950000  0.76120000  0.41693000  1.0 0.0889742444
C  C122  1  0.80050000  0.26120000  0.08307000  1.0 0.0889742444
C  C123  1  0.80050000  0.23880000  0.58307000  1.0 0.0889742444
C  C124  1  0.19950000  0.73880000  0.91693000  1.0 0.0889742444
C  C125  1  0.18630000  0.72920000  0.36788000  1.0 -0.2003406292
C  C126  1  0.81370000  0.22920000  0.13212000  1.0 -0.2003406292
C  C127  1  0.81370000  0.27080000  0.63212000  1.0 -0.2003406292
C  C128  1  0.18630000  0.77080000  0.86788000  1.0 -0.2003406292
N  N1  1  0.20720000  0.69030000  0.18249000  1.0 -0.2405740444
N  N2  1  0.79280000  0.19030000  0.31751000  1.0 -0.2405740444
N  N3  1  0.79280000  0.30970000  0.81751000  1.0 -0.2405740444
N  N4  1  0.20720000  0.80970000  0.68249000  1.0 -0.2405740444
N  N5  1  0.27900000  0.83370000  0.43971000  1.0 -0.2405740444
N  N6  1  0.72100000  0.33370000  0.06029000  1.0 -0.2405740444
N  N7  1  0.72100000  0.16630000  0.56029000  1.0 -0.2405740444
N  N8  1  0.27900000  0.66630000  0.93971000  1.0 -0.2405740444
O  O1  1  0.13300000  0.61810000  0.02483000  1.0 -0.7836944559
O  O2  1  0.86700000  0.11810000  0.47517000  1.0 -0.7836944559
O  O3  1  0.86700000  0.38190000  0.97517000  1.0 -0.7836944559
O  O4  1  0.13300000  0.88190000  0.52483000  1.0 -0.7836944559
O  O5  1  0.34100000  0.61010000  0.09704000  1.0 -0.5801833073
O  O6  1  0.65900000  0.11010000  0.40296000  1.0 -0.5801833073
O  O7  1  0.65900000  0.38990000  0.90296000  1.0 -0.5801833073
O  O8  1  0.34100000  0.88990000  0.59704000  1.0 -0.5801833073
O  O9  1  0.53290000  0.61640000  0.11908000  1.0 -0.4752904722
O  O10  1  0.46710000  0.11640000  0.38092000  1.0 -0.4752904722
O  O11  1  0.46710000  0.38360000  0.88092000  1.0 -0.4752904722
O  O12  1  0.53290000  0.88360000  0.61908000  1.0 -0.4752904722
O  O13  1  0.79510000  0.32020000  0.40790000  1.0 -0.5382564688
O  O14  1  0.20490000  0.82020000  0.09210000  1.0 -0.5382564688
O  O15  1  0.20490000  0.67980000  0.59210000  1.0 -0.5382564688
O  O16  1  0.79510000  0.17980000  0.90790000  1.0 -0.5382564688
O  O17  1  0.70750000  0.31090000  0.47295000  1.0 -0.5639982024
O  O18  1  0.29250000  0.81090000  0.02705000  1.0 -0.5639982024
O  O19  1  0.29250000  0.68910000  0.52705000  1.0 -0.5639982024
O  O20  1  0.70750000  0.18910000  0.97295000  1.0 -0.5639982024
O  O21  1  0.13980000  0.48740000  0.12289000  1.0 -0.5382564688
O  O22  1  0.86020000  0.98740000  0.37711000  1.0 -0.5382564688
O  O23  1  0.86020000  0.51260000  0.87711000  1.0 -0.5382564688
O  O24  1  0.13980000  0.01260000  0.62289000  1.0 -0.5382564688
O  O25  1  0.07020000  0.37740000  0.05690000  1.0 -0.500701641
O  O26  1  0.92980000  0.87740000  0.44310000  1.0 -0.4949966023
O  O27  1  0.92980000  0.62260000  0.94310000  1.0 -0.4949966023
O  O28  1  0.07020000  0.12260000  0.55690000  1.0 -0.500701641
O  O29  1  0.10830000  0.08550000  0.45733000  1.0 -0.500701641
O  O30  1  0.89170000  0.58550000  0.04267000  1.0 -0.500701641
O  O31  1  0.89170000  0.91450000  0.54267000  1.0 -0.500701641
O  O32  1  0.10830000  0.41450000  0.95733000  1.0 -0.500701641
O  O33  1  0.00260000  0.19110000  0.39602000  1.0 -0.5207796196
O  O34  1  0.99740000  0.69110000  0.10398000  1.0 -0.5207796196
O  O35  1  0.99740000  0.80890000  0.60398000  1.0 -0.5207796196
O  O36  1  0.00260000  0.30890000  0.89602000  1.0 -0.5207796196
O  O37  1  0.32110000  0.45680000  0.01092000  1.0 -0.1218566291
O  O38  1  0.67890000  0.95680000  0.48908000  1.0 -0.1218566291
O  O39  1  0.67890000  0.54320000  0.98908000  1.0 -0.1218566291
O  O40  1  0.32110000  0.04320000  0.51092000  1.0 -0.1143485555
O  O41  1  0.48860000  0.65300000  0.02400000  1.0 -0.1702731909
O  O42  1  0.51140000  0.15300000  0.47600000  1.0 -0.1702731909
O  O43  1  0.51140000  0.34700000  0.97600000  1.0 -0.1702731909
O  O44  1  0.48860000  0.84700000  0.52400000  1.0 -0.1702731909
O  O45  1  0.71190000  0.53940000  0.38915000  1.0 -0.1702731909
O  O46  1  0.28810000  0.03940000  0.11085000  1.0 -0.1702731909
O  O47  1  0.28810000  0.46060000  0.61085000  1.0 -0.1702731909
O  O48  1  0.71190000  0.96060000  0.88915000  1.0 -0.1702731909
O  O49  1  0.18950000  0.25990000  0.36290000  1.0 -0.154211531
O  O50  1  0.81050000  0.75990000  0.13710000  1.0 -0.154211531
O  O51  1  0.81050000  0.74010000  0.63710000  1.0 -0.154211531
O  O52  1  0.18950000  0.24010000  0.86290000  1.0 -0.154211531
