# DDEC6 charges by PACMAN v1.1 (https://github.com/mtap-research/PACMAN-charge/)
data_KIYJAF_FSR_pacman
_symmetry_space_group_name_H-M   'P 1'
_cell_length_a   17.20610000
_cell_length_b   16.20990000
_cell_length_c   37.66280000
_cell_angle_alpha   90.00000000
_cell_angle_beta   112.48500000
_cell_angle_gamma   90.00000000
_symmetry_Int_Tables_number   1
_chemical_formula_structural   Co5H76C95N18O23
_chemical_formula_sum   'Co20 H304 C380 N72 O92'
_cell_volume   9705.94455510
_cell_formula_units_Z   4
loop_
 _symmetry_equiv_pos_site_id
 _symmetry_equiv_pos_as_xyz
  1  'x, y, z'
loop_
 _atom_site_type_symbol
 _atom_site_label
 _atom_site_symmetry_multiplicity
 _atom_site_fract_x
 _atom_site_fract_y
 _atom_site_fract_z
 _atom_site_occupancy
 _atom_site_charge
Co  Co1  1  0.10186000  0.21872000  0.98817000  1.0 0.839222358
Co  Co2  1  0.89814000  0.71872000  0.51183000  1.0 0.839222358
Co  Co3  1  0.89814000  0.78128000  0.01183000  1.0 0.839222358
Co  Co4  1  0.10186000  0.28128000  0.48817000  1.0 0.839222358
Co  Co5  1  0.87909000  0.26384000  0.98892000  1.0 0.8296550973
Co  Co6  1  0.12091000  0.76384000  0.51108000  1.0 0.8296550973
Co  Co7  1  0.12091000  0.73616000  0.01108000  1.0 0.8296550973
Co  Co8  1  0.87909000  0.23616000  0.48892000  1.0 0.8296550973
Co  Co9  1  0.73179000  0.56911000  0.14667000  1.0 0.7811712636
Co  Co10  1  0.26821000  0.06911000  0.35333000  1.0 0.7811712636
Co  Co11  1  0.26821000  0.43089000  0.85333000  1.0 0.7811712636
Co  Co12  1  0.73179000  0.93089000  0.64667000  1.0 0.7811712636
Co  Co13  1  0.28825000  0.52725000  0.33625000  1.0 0.8082691146
Co  Co14  1  0.71175000  0.02725000  0.16375000  1.0 0.8082691146
Co  Co15  1  0.71175000  0.47275000  0.66375000  1.0 0.8082691146
Co  Co16  1  0.28825000  0.97275000  0.83625000  1.0 0.8082691146
Co  Co17  1  0.48474000  0.24426000  0.20507000  1.0 1.0171628459
Co  Co18  1  0.51526000  0.74426000  0.29493000  1.0 1.0171628459
Co  Co19  1  0.51526000  0.75574000  0.79493000  1.0 1.0171628459
Co  Co20  1  0.48474000  0.25574000  0.70507000  1.0 1.0171628459
H  H1  1  0.98650000  0.32930000  0.86790000  1.0 0.1203736452
H  H2  1  0.01350000  0.82930000  0.63210000  1.0 0.1203736452
H  H3  1  0.01350000  0.67070000  0.13210000  1.0 0.1203736452
H  H4  1  0.98650000  0.17070000  0.36790000  1.0 0.1203736452
H  H5  1  0.89790000  0.31000000  0.80470000  1.0 0.1203736452
H  H6  1  0.10210000  0.81000000  0.69530000  1.0 0.1203736452
H  H7  1  0.10210000  0.69000000  0.19530000  1.0 0.1203736452
H  H8  1  0.89790000  0.19000000  0.30470000  1.0 0.1203736452
H  H9  1  0.71270000  0.41440000  0.82600000  1.0 0.1298320856
H  H10  1  0.28730000  0.91440000  0.67400000  1.0 0.1298320856
H  H11  1  0.28730000  0.58560000  0.17400000  1.0 0.1298320856
H  H12  1  0.71270000  0.08560000  0.32600000  1.0 0.1298320856
H  H13  1  0.79990000  0.43440000  0.88880000  1.0 0.1203736452
H  H14  1  0.20010000  0.93440000  0.61120000  1.0 0.1203736452
H  H15  1  0.20010000  0.56560000  0.11120000  1.0 0.1203736452
H  H16  1  0.79990000  0.06560000  0.38880000  1.0 0.1203736452
H  H17  1  0.92870000  0.43060000  0.93970000  1.0 0.1500520353
H  H18  1  0.07130000  0.93060000  0.56030000  1.0 0.1500520353
H  H19  1  0.07130000  0.56940000  0.06030000  1.0 0.1500520353
H  H20  1  0.92870000  0.06940000  0.43970000  1.0 0.1500520353
H  H21  1  0.00210000  0.44800000  0.92590000  1.0 0.1500520353
H  H22  1  0.99790000  0.94800000  0.57410000  1.0 0.1500520353
H  H23  1  0.99790000  0.55200000  0.07410000  1.0 0.1500520353
H  H24  1  0.00210000  0.05200000  0.42590000  1.0 0.1500520353
H  H25  1  0.76780000  0.32450000  0.75350000  1.0 0.1298320856
H  H26  1  0.23220000  0.82450000  0.74650000  1.0 0.1298320856
H  H27  1  0.23220000  0.67550000  0.24650000  1.0 0.1298320856
H  H28  1  0.76780000  0.17550000  0.25350000  1.0 0.1298320856
H  H29  1  0.71570000  0.40060000  0.75700000  1.0 0.1298320856
H  H30  1  0.28430000  0.90060000  0.74300000  1.0 0.1298320856
H  H31  1  0.28430000  0.59940000  0.24300000  1.0 0.1298320856
H  H32  1  0.71570000  0.09940000  0.25700000  1.0 0.1298320856
H  H33  1  0.02900000  0.14970000  0.11020000  1.0 0.1203736452
H  H34  1  0.97100000  0.64970000  0.38980000  1.0 0.1203736452
H  H35  1  0.97100000  0.85030000  0.88980000  1.0 0.1203736452
H  H36  1  0.02900000  0.35030000  0.61020000  1.0 0.1203736452
H  H37  1  0.13260000  0.17220000  0.16850000  1.0 0.1122164636
H  H38  1  0.86740000  0.67220000  0.33150000  1.0 0.1122164636
H  H39  1  0.86740000  0.82780000  0.83150000  1.0 0.1122164636
H  H40  1  0.13260000  0.32780000  0.66850000  1.0 0.1122164636
H  H41  1  0.28330000  0.02410000  0.14230000  1.0 0.1298320856
H  H42  1  0.71670000  0.52410000  0.35770000  1.0 0.1298320856
H  H43  1  0.71670000  0.97590000  0.85770000  1.0 0.1298320856
H  H44  1  0.28330000  0.47590000  0.64230000  1.0 0.1298320856
H  H45  1  0.18170000  0.00330000  0.08240000  1.0 0.1203736452
H  H46  1  0.81830000  0.50330000  0.41760000  1.0 0.1203736452
H  H47  1  0.81830000  0.99670000  0.91760000  1.0 0.1203736452
H  H48  1  0.18170000  0.49670000  0.58240000  1.0 0.1203736452
H  H49  1  0.03650000  0.00520000  0.04090000  1.0 0.1500520353
H  H50  1  0.96350000  0.50520000  0.45910000  1.0 0.1500520353
H  H51  1  0.96350000  0.99480000  0.95910000  1.0 0.1500520353
H  H52  1  0.03650000  0.49480000  0.54090000  1.0 0.1500520353
H  H53  1  0.97080000  0.04030000  0.05650000  1.0 0.1500520353
H  H54  1  0.02920000  0.54030000  0.44350000  1.0 0.1500520353
H  H55  1  0.02920000  0.95970000  0.94350000  1.0 0.1500520353
H  H56  1  0.97080000  0.45970000  0.55650000  1.0 0.1500520353
H  H57  1  0.25910000  0.13910000  0.21820000  1.0 0.1400704878
H  H58  1  0.74090000  0.63910000  0.28180000  1.0 0.1400704878
H  H59  1  0.74090000  0.86090000  0.78180000  1.0 0.1400704878
H  H60  1  0.25910000  0.36090000  0.71820000  1.0 0.1400704878
H  H61  1  0.30400000  0.05760000  0.21400000  1.0 0.1400704878
H  H62  1  0.69600000  0.55760000  0.28600000  1.0 0.1400704878
H  H63  1  0.69600000  0.94240000  0.78600000  1.0 0.1400704878
H  H64  1  0.30400000  0.44240000  0.71400000  1.0 0.1400704878
H  H65  1  0.24520000  0.42320000  0.05910000  1.0 0.1122164636
H  H66  1  0.75480000  0.92320000  0.44090000  1.0 0.1122164636
H  H67  1  0.75480000  0.57680000  0.94090000  1.0 0.1122164636
H  H68  1  0.24520000  0.07680000  0.55910000  1.0 0.1122164636
H  H69  1  0.38790000  0.39820000  0.09080000  1.0 0.1203736452
H  H70  1  0.61210000  0.89820000  0.40920000  1.0 0.1203736452
H  H71  1  0.61210000  0.60180000  0.90920000  1.0 0.1203736452
H  H72  1  0.38790000  0.10180000  0.59080000  1.0 0.1203736452
H  H73  1  0.43120000  0.49690000  0.00440000  1.0 0.1122164636
H  H74  1  0.56880000  0.99690000  0.49560000  1.0 0.1122164636
H  H75  1  0.56880000  0.50310000  0.99560000  1.0 0.1122164636
H  H76  1  0.43120000  0.00310000  0.50440000  1.0 0.1122164636
H  H77  1  0.29000000  0.51860000  0.97200000  1.0 0.1122164636
H  H78  1  0.71000000  0.01860000  0.52800000  1.0 0.1122164636
H  H79  1  0.71000000  0.48140000  0.02800000  1.0 0.1122164636
H  H80  1  0.29000000  0.98140000  0.47200000  1.0 0.1122164636
H  H81  1  0.12870000  0.46230000  0.00250000  1.0 0.1500520353
H  H82  1  0.87130000  0.96230000  0.49750000  1.0 0.1500520353
H  H83  1  0.87130000  0.53770000  0.99750000  1.0 0.1500520353
H  H84  1  0.12870000  0.03770000  0.50250000  1.0 0.1500520353
H  H85  1  0.14440000  0.48930000  0.96580000  1.0 0.1400704878
H  H86  1  0.85560000  0.98930000  0.53420000  1.0 0.1400704878
H  H87  1  0.85560000  0.51070000  0.03420000  1.0 0.1400704878
H  H88  1  0.14440000  0.01070000  0.46580000  1.0 0.1400704878
H  H89  1  0.54460000  0.43360000  0.05310000  1.0 0.1298320856
H  H90  1  0.45540000  0.93360000  0.44690000  1.0 0.1298320856
H  H91  1  0.45540000  0.56640000  0.94690000  1.0 0.1298320856
H  H92  1  0.54460000  0.06640000  0.55310000  1.0 0.1298320856
H  H93  1  0.52840000  0.38000000  0.08410000  1.0 0.1298320856
H  H94  1  0.47160000  0.88000000  0.41590000  1.0 0.1298320856
H  H95  1  0.47160000  0.62000000  0.91590000  1.0 0.1298320856
H  H96  1  0.52840000  0.12000000  0.58410000  1.0 0.1298320856
H  H97  1  0.89360000  0.71360000  0.29010000  1.0 0.1203736452
H  H98  1  0.10640000  0.21360000  0.20990000  1.0 0.1203736452
H  H99  1  0.10640000  0.28640000  0.70990000  1.0 0.1203736452
H  H100  1  0.89360000  0.78640000  0.79010000  1.0 0.1203736452
H  H101  1  0.02750000  0.70730000  0.33310000  1.0 0.1203736452
H  H102  1  0.97250000  0.20730000  0.16690000  1.0 0.1203736452
H  H103  1  0.97250000  0.29270000  0.66690000  1.0 0.1203736452
H  H104  1  0.02750000  0.79270000  0.83310000  1.0 0.1203736452
H  H105  1  0.10660000  0.79960000  0.25790000  1.0 0.1203736452
H  H106  1  0.89340000  0.29960000  0.24210000  1.0 0.1203736452
H  H107  1  0.89340000  0.20040000  0.74210000  1.0 0.1203736452
H  H108  1  0.10660000  0.70040000  0.75790000  1.0 0.1203736452
H  H109  1  0.97170000  0.80610000  0.21450000  1.0 0.1122164636
H  H110  1  0.02830000  0.30610000  0.28550000  1.0 0.1122164636
H  H111  1  0.02830000  0.19390000  0.78550000  1.0 0.1122164636
H  H112  1  0.97170000  0.69390000  0.71450000  1.0 0.1122164636
H  H113  1  0.79040000  0.76810000  0.23280000  1.0 0.1400704878
H  H114  1  0.20960000  0.26810000  0.26720000  1.0 0.1400704878
H  H115  1  0.20960000  0.23190000  0.76720000  1.0 0.1400704878
H  H116  1  0.79040000  0.73190000  0.73280000  1.0 0.1400704878
H  H117  1  0.81990000  0.81210000  0.20320000  1.0 0.1400704878
H  H118  1  0.18010000  0.31210000  0.29680000  1.0 0.1400704878
H  H119  1  0.18010000  0.18790000  0.79680000  1.0 0.1400704878
H  H120  1  0.81990000  0.68790000  0.70320000  1.0 0.1400704878
H  H121  1  0.20590000  0.78670000  0.32270000  1.0 0.1500520353
H  H122  1  0.79410000  0.28670000  0.17730000  1.0 0.1500520353
H  H123  1  0.79410000  0.21330000  0.67730000  1.0 0.1500520353
H  H124  1  0.20590000  0.71330000  0.82270000  1.0 0.1500520353
H  H125  1  0.17410000  0.76040000  0.35480000  1.0 0.1298320856
H  H126  1  0.82590000  0.26040000  0.14520000  1.0 0.1298320856
H  H127  1  0.82590000  0.23960000  0.64520000  1.0 0.1298320856
H  H128  1  0.17410000  0.73960000  0.85480000  1.0 0.1298320856
H  H129  1  0.22970000  0.97270000  0.02710000  1.0 0.1298320856
H  H130  1  0.77030000  0.47270000  0.47290000  1.0 0.1298320856
H  H131  1  0.77030000  0.02730000  0.97290000  1.0 0.1298320856
H  H132  1  0.22970000  0.52730000  0.52710000  1.0 0.1298320856
H  H133  1  0.33740000  0.90990000  0.07640000  1.0 0.1203736452
H  H134  1  0.66260000  0.40990000  0.42360000  1.0 0.1203736452
H  H135  1  0.66260000  0.09010000  0.92360000  1.0 0.1203736452
H  H136  1  0.33740000  0.59010000  0.57640000  1.0 0.1203736452
H  H137  1  0.49160000  0.95770000  0.02570000  1.0 0.1203736452
H  H138  1  0.50840000  0.45770000  0.47430000  1.0 0.1203736452
H  H139  1  0.50840000  0.04230000  0.97430000  1.0 0.1203736452
H  H140  1  0.49160000  0.54230000  0.52570000  1.0 0.1203736452
H  H141  1  0.38560000  0.01510000  0.97490000  1.0 0.1203736452
H  H142  1  0.61440000  0.51510000  0.52510000  1.0 0.1203736452
H  H143  1  0.61440000  0.98490000  0.02510000  1.0 0.1203736452
H  H144  1  0.38560000  0.48490000  0.47490000  1.0 0.1203736452
H  H145  1  0.18320000  0.99320000  0.95010000  1.0 0.1400704878
H  H146  1  0.81680000  0.49320000  0.54990000  1.0 0.1400704878
H  H147  1  0.81680000  0.00680000  0.04990000  1.0 0.1400704878
H  H148  1  0.18320000  0.50680000  0.45010000  1.0 0.1400704878
H  H149  1  0.24560000  0.05320000  0.94210000  1.0 0.1400704878
H  H150  1  0.75440000  0.55320000  0.55790000  1.0 0.1400704878
H  H151  1  0.75440000  0.94680000  0.05790000  1.0 0.1400704878
H  H152  1  0.24560000  0.44680000  0.44210000  1.0 0.1400704878
H  H153  1  0.47700000  0.84060000  0.09850000  1.0 0.1298320856
H  H154  1  0.52300000  0.34060000  0.40150000  1.0 0.1298320856
H  H155  1  0.52300000  0.15940000  0.90150000  1.0 0.1298320856
H  H156  1  0.47700000  0.65940000  0.59850000  1.0 0.1298320856
H  H157  1  0.53640000  0.85930000  0.07660000  1.0 0.1203736452
H  H158  1  0.46360000  0.35930000  0.42340000  1.0 0.1203736452
H  H159  1  0.46360000  0.14070000  0.92340000  1.0 0.1203736452
H  H160  1  0.53640000  0.64070000  0.57660000  1.0 0.1203736452
H  H161  1  0.00340000  0.37470000  0.08920000  1.0 0.1500520353
H  H162  1  0.99660000  0.87470000  0.41080000  1.0 0.1500520353
H  H163  1  0.99660000  0.62530000  0.91080000  1.0 0.1500520353
H  H164  1  0.00340000  0.12530000  0.58920000  1.0 0.1500520353
H  H165  1  0.05690000  0.45440000  0.19670000  1.0 0.1400704878
H  H166  1  0.94310000  0.95440000  0.30330000  1.0 0.1400704878
H  H167  1  0.94310000  0.54560000  0.80330000  1.0 0.1400704878
H  H168  1  0.05690000  0.04560000  0.69670000  1.0 0.1400704878
H  H169  1  0.24050000  0.36020000  0.16690000  1.0 0.1500520353
H  H170  1  0.75950000  0.86020000  0.33310000  1.0 0.1500520353
H  H171  1  0.75950000  0.63980000  0.83310000  1.0 0.1500520353
H  H172  1  0.24050000  0.13980000  0.66690000  1.0 0.1500520353
H  H173  1  0.05540000  0.34400000  0.04500000  1.0 0.1298320856
H  H174  1  0.94460000  0.84400000  0.45500000  1.0 0.1298320856
H  H175  1  0.94460000  0.65600000  0.95500000  1.0 0.1298320856
H  H176  1  0.05540000  0.15600000  0.54500000  1.0 0.1298320856
H  H177  1  0.26760000  0.27250000  0.12760000  1.0 0.1400704878
H  H178  1  0.73240000  0.77250000  0.37240000  1.0 0.1400704878
H  H179  1  0.73240000  0.72750000  0.87240000  1.0 0.1400704878
H  H180  1  0.26760000  0.22750000  0.62760000  1.0 0.1400704878
H  H181  1  0.26090000  0.21500000  0.06650000  1.0 0.1203736452
H  H182  1  0.73910000  0.71500000  0.43350000  1.0 0.1203736452
H  H183  1  0.73910000  0.78500000  0.93350000  1.0 0.1203736452
H  H184  1  0.26090000  0.28500000  0.56650000  1.0 0.1203736452
H  H185  1  0.93240000  0.53280000  0.16650000  1.0 0.1203736452
H  H186  1  0.06760000  0.03280000  0.33350000  1.0 0.1203736452
H  H187  1  0.06760000  0.46720000  0.83350000  1.0 0.1203736452
H  H188  1  0.93240000  0.96720000  0.66650000  1.0 0.1203736452
H  H189  1  0.86530000  0.35530000  0.08860000  1.0 0.1400704878
H  H190  1  0.13470000  0.85530000  0.41140000  1.0 0.1400704878
H  H191  1  0.13470000  0.64470000  0.91140000  1.0 0.1400704878
H  H192  1  0.86530000  0.14470000  0.58860000  1.0 0.1400704878
H  H193  1  0.74070000  0.42080000  0.09070000  1.0 0.1298320856
H  H194  1  0.25930000  0.92080000  0.40930000  1.0 0.1298320856
H  H195  1  0.25930000  0.57920000  0.90930000  1.0 0.1298320856
H  H196  1  0.74070000  0.07920000  0.59070000  1.0 0.1298320856
H  H197  1  0.15580000  0.48860000  0.25200000  1.0 0.1203736452
H  H198  1  0.84420000  0.98860000  0.24800000  1.0 0.1203736452
H  H199  1  0.84420000  0.51140000  0.74800000  1.0 0.1203736452
H  H200  1  0.15580000  0.01140000  0.75200000  1.0 0.1203736452
H  H201  1  0.32590000  0.35920000  0.22820000  1.0 0.1400704878
H  H202  1  0.67410000  0.85920000  0.27180000  1.0 0.1400704878
H  H203  1  0.67410000  0.64080000  0.77180000  1.0 0.1400704878
H  H204  1  0.32590000  0.14080000  0.72820000  1.0 0.1400704878
H  H205  1  0.38640000  0.40430000  0.29510000  1.0 0.1298320856
H  H206  1  0.61360000  0.90430000  0.20490000  1.0 0.1298320856
H  H207  1  0.61360000  0.59570000  0.70490000  1.0 0.1298320856
H  H208  1  0.38640000  0.09570000  0.79510000  1.0 0.1298320856
H  H209  1  0.53570000  0.27610000  0.97150000  1.0 0.1500520353
H  H210  1  0.46430000  0.77610000  0.52850000  1.0 0.1500520353
H  H211  1  0.46430000  0.72390000  0.02850000  1.0 0.1500520353
H  H212  1  0.53570000  0.22390000  0.47150000  1.0 0.1500520353
H  H213  1  0.37380000  0.24520000  0.02380000  1.0 0.1400704878
H  H214  1  0.62620000  0.74520000  0.47620000  1.0 0.1400704878
H  H215  1  0.62620000  0.75480000  0.97620000  1.0 0.1400704878
H  H216  1  0.37380000  0.25480000  0.52380000  1.0 0.1400704878
H  H217  1  0.61960000  0.19860000  0.08150000  1.0 0.1586536331
H  H218  1  0.38040000  0.69860000  0.41850000  1.0 0.1586536331
H  H219  1  0.38040000  0.80140000  0.91850000  1.0 0.1586536331
H  H220  1  0.61960000  0.30140000  0.58150000  1.0 0.1586536331
H  H221  1  0.67480000  0.28110000  0.97910000  1.0 0.1203736452
H  H222  1  0.32520000  0.78110000  0.52090000  1.0 0.1203736452
H  H223  1  0.32520000  0.71890000  0.02090000  1.0 0.1203736452
H  H224  1  0.67480000  0.21890000  0.47910000  1.0 0.1203736452
H  H225  1  0.74020000  0.16790000  0.07910000  1.0 0.1400704878
H  H226  1  0.25980000  0.66790000  0.42090000  1.0 0.1400704878
H  H227  1  0.25980000  0.83210000  0.92090000  1.0 0.1400704878
H  H228  1  0.74020000  0.33210000  0.57910000  1.0 0.1400704878
H  H229  1  0.85950000  0.17530000  0.06120000  1.0 0.1298320856
H  H230  1  0.14050000  0.67530000  0.43880000  1.0 0.1298320856
H  H231  1  0.14050000  0.82470000  0.93880000  1.0 0.1298320856
H  H232  1  0.85950000  0.32470000  0.56120000  1.0 0.1298320856
H  H233  1  0.42720000  0.34580000  0.92500000  1.0 0.1203736452
H  H234  1  0.57280000  0.84580000  0.57500000  1.0 0.1203736452
H  H235  1  0.57280000  0.65420000  0.07500000  1.0 0.1203736452
H  H236  1  0.42720000  0.15420000  0.42500000  1.0 0.1203736452
H  H237  1  0.26730000  0.26140000  0.96870000  1.0 0.1400704878
H  H238  1  0.73270000  0.76140000  0.53130000  1.0 0.1400704878
H  H239  1  0.73270000  0.73860000  0.03130000  1.0 0.1400704878
H  H240  1  0.26730000  0.23860000  0.46870000  1.0 0.1400704878
H  H241  1  0.19030000  0.33350000  0.90910000  1.0 0.1298320856
H  H242  1  0.80970000  0.83350000  0.59090000  1.0 0.1298320856
H  H243  1  0.80970000  0.66650000  0.09090000  1.0 0.1298320856
H  H244  1  0.19030000  0.16650000  0.40910000  1.0 0.1298320856
H  H245  1  0.55010000  0.27770000  0.13280000  1.0 0.1203736452
H  H246  1  0.44990000  0.77770000  0.36720000  1.0 0.1203736452
H  H247  1  0.44990000  0.72230000  0.86720000  1.0 0.1203736452
H  H248  1  0.55010000  0.22230000  0.63280000  1.0 0.1203736452
H  H249  1  0.38090000  0.11620000  0.07080000  1.0 0.1298320856
H  H250  1  0.61910000  0.61620000  0.42920000  1.0 0.1298320856
H  H251  1  0.61910000  0.88380000  0.92920000  1.0 0.1298320856
H  H252  1  0.38090000  0.38380000  0.57080000  1.0 0.1298320856
H  H253  1  0.37420000  0.12670000  0.13380000  1.0 0.1203736452
H  H254  1  0.62580000  0.62670000  0.36620000  1.0 0.1203736452
H  H255  1  0.62580000  0.87330000  0.86620000  1.0 0.1203736452
H  H256  1  0.37420000  0.37330000  0.63380000  1.0 0.1203736452
H  H257  1  0.95400000  0.45410000  0.28450000  1.0 0.1400704878
H  H258  1  0.04600000  0.95410000  0.21550000  1.0 0.1400704878
H  H259  1  0.04600000  0.54590000  0.71550000  1.0 0.1400704878
H  H260  1  0.95400000  0.04590000  0.78450000  1.0 0.1400704878
H  H261  1  0.99490000  0.36280000  0.38960000  1.0 0.1586536331
H  H262  1  0.00510000  0.86280000  0.11040000  1.0 0.1586536331
H  H263  1  0.00510000  0.63720000  0.61040000  1.0 0.1586536331
H  H264  1  0.99490000  0.13720000  0.88960000  1.0 0.1586536331
H  H265  1  0.75970000  0.38630000  0.31130000  1.0 0.1500520353
H  H266  1  0.24030000  0.88630000  0.18870000  1.0 0.1500520353
H  H267  1  0.24030000  0.61370000  0.68870000  1.0 0.1500520353
H  H268  1  0.75970000  0.11370000  0.81130000  1.0 0.1500520353
H  H269  1  0.85840000  0.52290000  0.23480000  1.0 0.1122164636
H  H270  1  0.14160000  0.02290000  0.26520000  1.0 0.1122164636
H  H271  1  0.14160000  0.47710000  0.76520000  1.0 0.1122164636
H  H272  1  0.85840000  0.97710000  0.73480000  1.0 0.1122164636
H  H273  1  0.68310000  0.38050000  0.24590000  1.0 0.1400704878
H  H274  1  0.31690000  0.88050000  0.25410000  1.0 0.1400704878
H  H275  1  0.31690000  0.61950000  0.75410000  1.0 0.1400704878
H  H276  1  0.68310000  0.11950000  0.74590000  1.0 0.1400704878
H  H277  1  0.63210000  0.44040000  0.18140000  1.0 0.1298320856
H  H278  1  0.36790000  0.94040000  0.31860000  1.0 0.1298320856
H  H279  1  0.36790000  0.55960000  0.81860000  1.0 0.1298320856
H  H280  1  0.63210000  0.05960000  0.68140000  1.0 0.1298320856
H  H281  1  0.09070000  0.52050000  0.32280000  1.0 0.1203736452
H  H282  1  0.90930000  0.02050000  0.17720000  1.0 0.1203736452
H  H283  1  0.90930000  0.47950000  0.67720000  1.0 0.1203736452
H  H284  1  0.09070000  0.97950000  0.82280000  1.0 0.1203736452
H  H285  1  0.12740000  0.31000000  0.38040000  1.0 0.1400704878
H  H286  1  0.87260000  0.81000000  0.11960000  1.0 0.1400704878
H  H287  1  0.87260000  0.69000000  0.61960000  1.0 0.1400704878
H  H288  1  0.12740000  0.19000000  0.88040000  1.0 0.1400704878
H  H289  1  0.26130000  0.35740000  0.37960000  1.0 0.1400704878
H  H290  1  0.73870000  0.85740000  0.12040000  1.0 0.1400704878
H  H291  1  0.73870000  0.64260000  0.62040000  1.0 0.1400704878
H  H292  1  0.26130000  0.14260000  0.87960000  1.0 0.1400704878
H  H293  1  0.93800000  0.34590000  0.43280000  1.0 0.1203736452
H  H294  1  0.06200000  0.84590000  0.06720000  1.0 0.1203736452
H  H295  1  0.06200000  0.65410000  0.56720000  1.0 0.1203736452
H  H296  1  0.93800000  0.15410000  0.93280000  1.0 0.1203736452
H  H297  1  0.72000000  0.29990000  0.34930000  1.0 0.1500520353
H  H298  1  0.28000000  0.79990000  0.15070000  1.0 0.1500520353
H  H299  1  0.28000000  0.70010000  0.65070000  1.0 0.1500520353
H  H300  1  0.72000000  0.20010000  0.84930000  1.0 0.1500520353
H  H301  1  0.71520000  0.25340000  0.41000000  1.0 0.1298320856
H  H302  1  0.28480000  0.75340000  0.09000000  1.0 0.1298320856
H  H303  1  0.28480000  0.74660000  0.59000000  1.0 0.1298320856
H  H304  1  0.71520000  0.24660000  0.91000000  1.0 0.1298320856
C  C1  1  0.90385000  0.38660000  0.88545000  1.0 0.1400704878
C  C2  1  0.09615000  0.88660000  0.61455000  1.0 0.1400704878
C  C3  1  0.09615000  0.61340000  0.11455000  1.0 0.1400704878
C  C4  1  0.90385000  0.11340000  0.38545000  1.0 0.1400704878
C  C5  1  0.93120000  0.34740000  0.85970000  1.0 -0.1699625892
C  C6  1  0.06880000  0.84740000  0.64030000  1.0 -0.1699625892
C  C7  1  0.06880000  0.65260000  0.14030000  1.0 -0.1699625892
C  C8  1  0.93120000  0.15260000  0.35970000  1.0 -0.1699625892
C  C9  1  0.87750000  0.33470000  0.82170000  1.0 -0.1699625892
C  C10  1  0.12250000  0.83470000  0.67830000  1.0 -0.1699625892
C  C11  1  0.12250000  0.66530000  0.17830000  1.0 -0.1699625892
C  C12  1  0.87750000  0.16530000  0.32170000  1.0 -0.1699625892
C  C13  1  0.79500000  0.35790000  0.80900000  1.0 0.1298320856
C  C14  1  0.20500000  0.85790000  0.69100000  1.0 0.1298320856
C  C15  1  0.20500000  0.64210000  0.19100000  1.0 0.1298320856
C  C16  1  0.79500000  0.14210000  0.30900000  1.0 0.1298320856
C  C17  1  0.76820000  0.39640000  0.83440000  1.0 -0.1424647258
C  C18  1  0.23180000  0.89640000  0.66560000  1.0 -0.1424647258
C  C19  1  0.23180000  0.60360000  0.16560000  1.0 -0.1424647258
C  C20  1  0.76820000  0.10360000  0.33440000  1.0 -0.1424647258
C  C21  1  0.82100000  0.40950000  0.87210000  1.0 -0.1603678559
C  C22  1  0.17900000  0.90950000  0.62790000  1.0 -0.1603678559
C  C23  1  0.17900000  0.59050000  0.12790000  1.0 -0.1603678559
C  C24  1  0.82100000  0.09050000  0.37210000  1.0 -0.1603678559
C  C25  1  0.96197000  0.40660000  0.92657000  1.0 -0.4098799886
C  C26  1  0.03803000  0.90660000  0.57343000  1.0 -0.4098799886
C  C27  1  0.03803000  0.59340000  0.07343000  1.0 -0.4098799886
C  C28  1  0.96197000  0.09340000  0.42657000  1.0 -0.4098799886
C  C29  1  0.00953000  0.33470000  0.94953000  1.0 0.6205972818
C  C30  1  0.99047000  0.83470000  0.55047000  1.0 0.6205972818
C  C31  1  0.99047000  0.66530000  0.05047000  1.0 0.6205972818
C  C32  1  0.00953000  0.16530000  0.44953000  1.0 0.6205972818
C  C33  1  0.73570000  0.34660000  0.76760000  1.0 -0.4000471892
C  C34  1  0.26430000  0.84660000  0.73240000  1.0 -0.4000471892
C  C35  1  0.26430000  0.65340000  0.23240000  1.0 -0.4000471892
C  C36  1  0.73570000  0.15340000  0.26760000  1.0 -0.4000471892
C  C37  1  0.66064000  0.29240000  0.75984000  1.0 0.6102721913
C  C38  1  0.33936000  0.79240000  0.74016000  1.0 0.6102721913
C  C39  1  0.33936000  0.70760000  0.24016000  1.0 0.6102721913
C  C40  1  0.66064000  0.20760000  0.25984000  1.0 0.6102721913
C  C41  1  0.09141000  0.07030000  0.09051000  1.0 0.1400704878
C  C42  1  0.90859000  0.57030000  0.40949000  1.0 0.1400704878
C  C43  1  0.90859000  0.92970000  0.90949000  1.0 0.1400704878
C  C44  1  0.09141000  0.42970000  0.59051000  1.0 0.1400704878
C  C45  1  0.08020000  0.12260000  0.11650000  1.0 -0.1507296276
C  C46  1  0.91980000  0.62260000  0.38350000  1.0 -0.1507296276
C  C47  1  0.91980000  0.87740000  0.88350000  1.0 -0.1507296276
C  C48  1  0.08020000  0.37740000  0.61650000  1.0 -0.1507296276
C  C49  1  0.14240000  0.13590000  0.15160000  1.0 -0.1603678559
C  C50  1  0.85760000  0.63590000  0.34840000  1.0 -0.1603678559
C  C51  1  0.85760000  0.86410000  0.84840000  1.0 -0.1603678559
C  C52  1  0.14240000  0.36410000  0.65160000  1.0 -0.1603678559
C  C53  1  0.21750000  0.09840000  0.16240000  1.0 0.1298320856
C  C54  1  0.78250000  0.59840000  0.33760000  1.0 0.1298320856
C  C55  1  0.78250000  0.90160000  0.83760000  1.0 0.1298320856
C  C56  1  0.21750000  0.40160000  0.66240000  1.0 0.1298320856
C  C57  1  0.23110000  0.04920000  0.13590000  1.0 -0.1603678559
C  C58  1  0.76890000  0.54920000  0.36410000  1.0 -0.1603678559
C  C59  1  0.76890000  0.95080000  0.86410000  1.0 -0.1603678559
C  C60  1  0.23110000  0.45080000  0.63590000  1.0 -0.1603678559
C  C61  1  0.17000000  0.03570000  0.10010000  1.0 -0.1603678559
C  C62  1  0.83000000  0.53570000  0.39990000  1.0 -0.1603678559
C  C63  1  0.83000000  0.96430000  0.89990000  1.0 -0.1603678559
C  C64  1  0.17000000  0.46430000  0.60010000  1.0 -0.1603678559
C  C65  1  0.02175000  0.05320000  0.05235000  1.0 -0.4000471892
C  C66  1  0.97825000  0.55320000  0.44765000  1.0 -0.4000471892
C  C67  1  0.97825000  0.94680000  0.94765000  1.0 -0.4000471892
C  C68  1  0.02175000  0.44680000  0.55235000  1.0 -0.4000471892
C  C69  1  0.00453000  0.12480000  0.02473000  1.0 0.6491813524
C  C70  1  0.99547000  0.62480000  0.47527000  1.0 0.6491813524
C  C71  1  0.99547000  0.87520000  0.97527000  1.0 0.6491813524
C  C72  1  0.00453000  0.37520000  0.52473000  1.0 0.6491813524
C  C73  1  0.28430000  0.11110000  0.20250000  1.0 -0.3891009191
C  C74  1  0.71570000  0.61110000  0.29750000  1.0 -0.3891009191
C  C75  1  0.71570000  0.88890000  0.79750000  1.0 -0.3891009191
C  C76  1  0.28430000  0.38890000  0.70250000  1.0 -0.3891009191
C  C77  1  0.35897000  0.16120000  0.20237000  1.0 0.5894211395
C  C78  1  0.64103000  0.66120000  0.29763000  1.0 0.5894211395
C  C79  1  0.64103000  0.83880000  0.79763000  1.0 0.5894211395
C  C80  1  0.35897000  0.33880000  0.70237000  1.0 0.5894211395
C  C81  1  0.25400000  0.47610000  0.01300000  1.0 0.1500520353
C  C82  1  0.74600000  0.97610000  0.48700000  1.0 0.1500520353
C  C83  1  0.74600000  0.52390000  0.98700000  1.0 0.1500520353
C  C84  1  0.25400000  0.02390000  0.51300000  1.0 0.1500520353
C  C85  1  0.28260000  0.43860000  0.04790000  1.0 -0.1340738075
C  C86  1  0.71740000  0.93860000  0.45210000  1.0 -0.1340738075
C  C87  1  0.71740000  0.56140000  0.95210000  1.0 -0.1340738075
C  C88  1  0.28260000  0.06140000  0.54790000  1.0 -0.1340738075
C  C89  1  0.36840000  0.42310000  0.06670000  1.0 -0.1424647258
C  C90  1  0.63160000  0.92310000  0.43330000  1.0 -0.1424647258
C  C91  1  0.63160000  0.57690000  0.93330000  1.0 -0.1424647258
C  C92  1  0.36840000  0.07690000  0.56670000  1.0 -0.1424647258
C  C93  1  0.42450000  0.44380000  0.05040000  1.0 0.1400704878
C  C94  1  0.57550000  0.94380000  0.44960000  1.0 0.1400704878
C  C95  1  0.57550000  0.55620000  0.94960000  1.0 0.1400704878
C  C96  1  0.42450000  0.05620000  0.55040000  1.0 0.1400704878
C  C97  1  0.39400000  0.48080000  0.01570000  1.0 -0.1603678559
C  C98  1  0.60600000  0.98080000  0.48430000  1.0 -0.1603678559
C  C99  1  0.60600000  0.51920000  0.98430000  1.0 -0.1603678559
C  C100  1  0.39400000  0.01920000  0.51570000  1.0 -0.1603678559
C  C101  1  0.30940000  0.49540000  0.99640000  1.0 -0.1507296276
C  C102  1  0.69060000  0.99540000  0.50360000  1.0 -0.1507296276
C  C103  1  0.69060000  0.50460000  0.00360000  1.0 -0.1507296276
C  C104  1  0.30940000  0.00460000  0.49640000  1.0 -0.1507296276
C  C105  1  0.16190000  0.49830000  0.99320000  1.0 -0.3891009191
C  C106  1  0.83810000  0.99830000  0.50680000  1.0 -0.3891009191
C  C107  1  0.83810000  0.50170000  0.00680000  1.0 -0.3891009191
C  C108  1  0.16190000  0.00170000  0.49320000  1.0 -0.3891009191
C  C109  1  0.14541000  0.58700000  0.00041000  1.0 0.6102721913
C  C110  1  0.85459000  0.08700000  0.49959000  1.0 0.6102721913
C  C111  1  0.85459000  0.41300000  0.99959000  1.0 0.6102721913
C  C112  1  0.14541000  0.91300000  0.50041000  1.0 0.6102721913
C  C113  1  0.51820000  0.43360000  0.07170000  1.0 -0.4000471892
C  C114  1  0.48180000  0.93360000  0.42830000  1.0 -0.4000471892
C  C115  1  0.48180000  0.56640000  0.92830000  1.0 -0.4000471892
C  C116  1  0.51820000  0.06640000  0.57170000  1.0 -0.4000471892
C  C117  1  0.56090000  0.49800000  0.10170000  1.0 0.6205972818
C  C118  1  0.43910000  0.99800000  0.39830000  1.0 0.6205972818
C  C119  1  0.43910000  0.50200000  0.89830000  1.0 0.6205972818
C  C120  1  0.56090000  0.00200000  0.60170000  1.0 0.6205972818
C  C121  1  0.91580000  0.76170000  0.24740000  1.0 0.1400704878
C  C122  1  0.08420000  0.26170000  0.25260000  1.0 0.1400704878
C  C123  1  0.08420000  0.23830000  0.75260000  1.0 0.1400704878
C  C124  1  0.91580000  0.73830000  0.74740000  1.0 0.1400704878
C  C125  1  0.93640000  0.73250000  0.28280000  1.0 -0.1699625892
C  C126  1  0.06360000  0.23250000  0.21720000  1.0 -0.1699625892
C  C127  1  0.06360000  0.26750000  0.71720000  1.0 -0.1699625892
C  C128  1  0.93640000  0.76750000  0.78280000  1.0 -0.1699625892
C  C129  1  0.01730000  0.72900000  0.30880000  1.0 -0.1603678559
C  C130  1  0.98270000  0.22900000  0.19120000  1.0 -0.1603678559
C  C131  1  0.98270000  0.27100000  0.69120000  1.0 -0.1603678559
C  C132  1  0.01730000  0.77100000  0.80880000  1.0 -0.1603678559
C  C133  1  0.08170000  0.75520000  0.30120000  1.0 0.1400704878
C  C134  1  0.91830000  0.25520000  0.19880000  1.0 0.1400704878
C  C135  1  0.91830000  0.24480000  0.69880000  1.0 0.1400704878
C  C136  1  0.08170000  0.74480000  0.80120000  1.0 0.1400704878
C  C137  1  0.06320000  0.78270000  0.26520000  1.0 -0.1603678559
C  C138  1  0.93680000  0.28270000  0.23480000  1.0 -0.1603678559
C  C139  1  0.93680000  0.21730000  0.73480000  1.0 -0.1603678559
C  C140  1  0.06320000  0.71730000  0.76520000  1.0 -0.1603678559
C  C141  1  0.98190000  0.78610000  0.23910000  1.0 -0.1699625892
C  C142  1  0.01810000  0.28610000  0.26090000  1.0 -0.1699625892
C  C143  1  0.01810000  0.21390000  0.76090000  1.0 -0.1699625892
C  C144  1  0.98190000  0.71390000  0.73910000  1.0 -0.1699625892
C  C145  1  0.82730000  0.76290000  0.21890000  1.0 -0.3825752946
C  C146  1  0.17270000  0.26290000  0.28110000  1.0 -0.3825752946
C  C147  1  0.17270000  0.23710000  0.78110000  1.0 -0.3825752946
C  C148  1  0.82730000  0.73710000  0.71890000  1.0 -0.3825752946
C  C149  1  0.79850000  0.68970000  0.19230000  1.0 0.6102721913
C  C150  1  0.20150000  0.18970000  0.30770000  1.0 0.6102721913
C  C151  1  0.20150000  0.31030000  0.80770000  1.0 0.6102721913
C  C152  1  0.79850000  0.81030000  0.69230000  1.0 0.6102721913
C  C153  1  0.17160000  0.74670000  0.32930000  1.0 -0.3891009191
C  C154  1  0.82840000  0.24670000  0.17070000  1.0 -0.3891009191
C  C155  1  0.82840000  0.25330000  0.67070000  1.0 -0.3891009191
C  C156  1  0.17160000  0.75330000  0.82930000  1.0 -0.3891009191
C  C157  1  0.20990000  0.66200000  0.33080000  1.0 0.5894211395
C  C158  1  0.79010000  0.16200000  0.16920000  1.0 0.5894211395
C  C159  1  0.79010000  0.33800000  0.66920000  1.0 0.5894211395
C  C160  1  0.20990000  0.83800000  0.83080000  1.0 0.5894211395
C  C161  1  0.29595000  0.00080000  0.99525000  1.0 0.1400704878
C  C162  1  0.70405000  0.50080000  0.50475000  1.0 0.1400704878
C  C163  1  0.70405000  0.99920000  0.00475000  1.0 0.1400704878
C  C164  1  0.29595000  0.49920000  0.49525000  1.0 0.1400704878
C  C165  1  0.28280000  0.96910000  0.02610000  1.0 -0.1507296276
C  C166  1  0.71720000  0.46910000  0.47390000  1.0 -0.1507296276
C  C167  1  0.71720000  0.03090000  0.97390000  1.0 -0.1507296276
C  C168  1  0.28280000  0.53090000  0.52610000  1.0 -0.1507296276
C  C169  1  0.34770000  0.93170000  0.05580000  1.0 -0.1699625892
C  C170  1  0.65230000  0.43170000  0.44420000  1.0 -0.1699625892
C  C171  1  0.65230000  0.06830000  0.94420000  1.0 -0.1699625892
C  C172  1  0.34770000  0.56830000  0.55580000  1.0 -0.1699625892
C  C173  1  0.42680000  0.92620000  0.05560000  1.0 0.1203736452
C  C174  1  0.57320000  0.42620000  0.44440000  1.0 0.1203736452
C  C175  1  0.57320000  0.07380000  0.94440000  1.0 0.1203736452
C  C176  1  0.42680000  0.57380000  0.55560000  1.0 0.1203736452
C  C177  1  0.43780000  0.95890000  0.02600000  1.0 -0.1603678559
C  C178  1  0.56220000  0.45890000  0.47400000  1.0 -0.1603678559
C  C179  1  0.56220000  0.04110000  0.97400000  1.0 -0.1603678559
C  C180  1  0.43780000  0.54110000  0.52600000  1.0 -0.1603678559
C  C181  1  0.37440000  0.99480000  0.99560000  1.0 -0.1699625892
C  C182  1  0.62560000  0.49480000  0.50440000  1.0 -0.1699625892
C  C183  1  0.62560000  0.00520000  0.00440000  1.0 -0.1699625892
C  C184  1  0.37440000  0.50520000  0.49560000  1.0 -0.1699625892
C  C185  1  0.22370000  0.03690000  0.96130000  1.0 -0.4000471892
C  C186  1  0.77630000  0.53690000  0.53870000  1.0 -0.4000471892
C  C187  1  0.77630000  0.96310000  0.03870000  1.0 -0.4000471892
C  C188  1  0.22370000  0.46310000  0.46130000  1.0 -0.4000471892
C  C189  1  0.17769000  0.10870000  0.96849000  1.0 0.6102721913
C  C190  1  0.82231000  0.60870000  0.53151000  1.0 0.6102721913
C  C191  1  0.82231000  0.89130000  0.03151000  1.0 0.6102721913
C  C192  1  0.17769000  0.39130000  0.46849000  1.0 0.6102721913
C  C193  1  0.49910000  0.88430000  0.08740000  1.0 -0.3891009191
C  C194  1  0.50090000  0.38430000  0.41260000  1.0 -0.3891009191
C  C195  1  0.50090000  0.11570000  0.91260000  1.0 -0.3891009191
C  C196  1  0.49910000  0.61570000  0.58740000  1.0 -0.3891009191
C  C197  1  0.54940000  0.94410000  0.11910000  1.0 0.6102721913
C  C198  1  0.45060000  0.44410000  0.38090000  1.0 0.6102721913
C  C199  1  0.45060000  0.05590000  0.88090000  1.0 0.6102721913
C  C200  1  0.54940000  0.55590000  0.61910000  1.0 0.6102721913
C  C201  1  0.12577000  0.36190000  0.12387000  1.0 0.2007131078
C  C202  1  0.87423000  0.86190000  0.37613000  1.0 0.2007131078
C  C203  1  0.87423000  0.63810000  0.87613000  1.0 0.2007131078
C  C204  1  0.12577000  0.13810000  0.62387000  1.0 0.2007131078
C  C205  1  0.04267000  0.38380000  0.11397000  1.0 -0.2722701103
C  C206  1  0.95733000  0.88380000  0.38603000  1.0 -0.2722701103
C  C207  1  0.95733000  0.61620000  0.88603000  1.0 -0.2722701103
C  C208  1  0.04267000  0.11620000  0.61397000  1.0 -0.2722701103
C  C209  1  0.01915000  0.41940000  0.14135000  1.0 0.1938425673
C  C210  1  0.98085000  0.91940000  0.35865000  1.0 0.2007131078
C  C211  1  0.98085000  0.58060000  0.85865000  1.0 0.2007131078
C  C212  1  0.01915000  0.08060000  0.64135000  1.0 0.2007131078
C  C213  1  0.07473000  0.43220000  0.17833000  1.0 -0.2802472753
C  C214  1  0.92527000  0.93220000  0.32167000  1.0 -0.2802472753
C  C215  1  0.92527000  0.56780000  0.82167000  1.0 -0.2802472753
C  C216  1  0.07473000  0.06780000  0.67833000  1.0 -0.2722701103
C  C217  1  0.15818000  0.41120000  0.18768000  1.0 0.212013231
C  C218  1  0.84182000  0.91120000  0.31232000  1.0 0.212013231
C  C219  1  0.84182000  0.58880000  0.81232000  1.0 0.212013231
C  C220  1  0.15818000  0.08880000  0.68768000  1.0 0.212013231
C  C221  1  0.18453000  0.37500000  0.16043000  1.0 -0.2619088825
C  C222  1  0.81547000  0.87500000  0.33957000  1.0 -0.2619088825
C  C223  1  0.81547000  0.62500000  0.83957000  1.0 -0.2619088825
C  C224  1  0.18453000  0.12500000  0.66043000  1.0 -0.2619088825
C  C225  1  0.10720000  0.31880000  0.05780000  1.0 0.0999960994
C  C226  1  0.89280000  0.81880000  0.44220000  1.0 0.0999960994
C  C227  1  0.89280000  0.68120000  0.94220000  1.0 0.0999960994
C  C228  1  0.10720000  0.18120000  0.55780000  1.0 0.0999960994
C  C229  1  0.22413000  0.27960000  0.10383000  1.0 -0.0795829767
C  C230  1  0.77587000  0.77960000  0.39617000  1.0 -0.0795829767
C  C231  1  0.77587000  0.72040000  0.89617000  1.0 -0.0795829767
C  C232  1  0.22413000  0.22040000  0.60383000  1.0 -0.0795829767
C  C233  1  0.22027000  0.24850000  0.06987000  1.0 -0.0235616526
C  C234  1  0.77973000  0.74850000  0.43013000  1.0 -0.0235616526
C  C235  1  0.77973000  0.75150000  0.93013000  1.0 -0.0235616526
C  C236  1  0.22027000  0.25150000  0.56987000  1.0 -0.0235616526
C  C237  1  0.89988000  0.49730000  0.14708000  1.0 0.1122164636
C  C238  1  0.10012000  0.99730000  0.35292000  1.0 0.1122164636
C  C239  1  0.10012000  0.50270000  0.85292000  1.0 0.1122164636
C  C240  1  0.89988000  0.00270000  0.64708000  1.0 0.1122164636
C  C241  1  0.86384000  0.39910000  0.10434000  1.0 -0.098768775
C  C242  1  0.13616000  0.89910000  0.39566000  1.0 -0.098768775
C  C243  1  0.13616000  0.60090000  0.89566000  1.0 -0.098768775
C  C244  1  0.86384000  0.10090000  0.60434000  1.0 -0.098768775
C  C245  1  0.79563000  0.43570000  0.10573000  1.0 -0.0282901911
C  C246  1  0.20437000  0.93570000  0.39427000  1.0 -0.0282901911
C  C247  1  0.20437000  0.56430000  0.89427000  1.0 -0.0282901911
C  C248  1  0.79563000  0.06430000  0.60573000  1.0 -0.0282901911
C  C249  1  0.20587000  0.46230000  0.25467000  1.0 0.0885730111
C  C250  1  0.79413000  0.96230000  0.24533000  1.0 0.0885730111
C  C251  1  0.79413000  0.53770000  0.74533000  1.0 0.0885730111
C  C252  1  0.20587000  0.03770000  0.75467000  1.0 0.0885730111
C  C253  1  0.29937000  0.39060000  0.24097000  1.0 -0.098768775
C  C254  1  0.70063000  0.89060000  0.25903000  1.0 -0.098768775
C  C255  1  0.70063000  0.60940000  0.75903000  1.0 -0.098768775
C  C256  1  0.29937000  0.10940000  0.74097000  1.0 -0.098768775
C  C257  1  0.33198000  0.41550000  0.27788000  1.0 -0.0235616526
C  C258  1  0.66802000  0.91550000  0.22212000  1.0 -0.0235616526
C  C259  1  0.66802000  0.58450000  0.72212000  1.0 -0.0235616526
C  C260  1  0.33198000  0.08450000  0.77788000  1.0 -0.0235616526
C  C261  1  0.59086000  0.23510000  0.02606000  1.0 0.212013231
C  C262  1  0.40914000  0.73510000  0.47394000  1.0 0.212013231
C  C263  1  0.40914000  0.76490000  0.97394000  1.0 0.212013231
C  C264  1  0.59086000  0.26490000  0.52606000  1.0 0.212013231
C  C265  1  0.52529000  0.26080000  0.99309000  1.0 -0.2802472753
C  C266  1  0.47471000  0.76080000  0.50691000  1.0 -0.2802472753
C  C267  1  0.47471000  0.73920000  0.00691000  1.0 -0.2802472753
C  C268  1  0.52529000  0.23920000  0.49309000  1.0 -0.2802472753
C  C269  1  0.44430000  0.26380000  0.99220000  1.0 0.2007131078
C  C270  1  0.55570000  0.76380000  0.50780000  1.0 0.2007131078
C  C271  1  0.55570000  0.73620000  0.00780000  1.0 0.2007131078
C  C272  1  0.44430000  0.23620000  0.49220000  1.0 0.2007131078
C  C273  1  0.42836000  0.24320000  0.02436000  1.0 -0.2619088825
C  C274  1  0.57164000  0.74320000  0.47564000  1.0 -0.2619088825
C  C275  1  0.57164000  0.75680000  0.97564000  1.0 -0.2619088825
C  C276  1  0.42836000  0.25680000  0.52436000  1.0 -0.2619088825
C  C277  1  0.49531000  0.21930000  0.05761000  1.0 0.2007131078
C  C278  1  0.50469000  0.71930000  0.44239000  1.0 0.2007131078
C  C279  1  0.50469000  0.78070000  0.94239000  1.0 0.2007131078
C  C280  1  0.49531000  0.28070000  0.55761000  1.0 0.2007131078
C  C281  1  0.57577000  0.21480000  0.05907000  1.0 -0.2722701103
C  C282  1  0.42423000  0.71480000  0.44093000  1.0 -0.2722701103
C  C283  1  0.42423000  0.78520000  0.94093000  1.0 -0.2722701103
C  C284  1  0.57577000  0.28520000  0.55907000  1.0 -0.2722701103
C  C285  1  0.70605000  0.25350000  0.00165000  1.0 0.0999960994
C  C286  1  0.29395000  0.75350000  0.49835000  1.0 0.0999960994
C  C287  1  0.29395000  0.74650000  0.99835000  1.0 0.0999960994
C  C288  1  0.70605000  0.24650000  0.50165000  1.0 0.0999960994
C  C289  1  0.74114000  0.19130000  0.05674000  1.0 -0.098768775
C  C290  1  0.25886000  0.69130000  0.44326000  1.0 -0.098768775
C  C291  1  0.25886000  0.80870000  0.94326000  1.0 -0.098768775
C  C292  1  0.74114000  0.30870000  0.55674000  1.0 -0.098768775
C  C293  1  0.80634000  0.19590000  0.04664000  1.0 -0.0282901911
C  C294  1  0.19366000  0.69590000  0.45336000  1.0 -0.0282901911
C  C295  1  0.19366000  0.80410000  0.95336000  1.0 -0.0282901911
C  C296  1  0.80634000  0.30410000  0.54664000  1.0 -0.0282901911
C  C297  1  0.37776000  0.33360000  0.92846000  1.0 0.1122164636
C  C298  1  0.62224000  0.83360000  0.57154000  1.0 0.1122164636
C  C299  1  0.62224000  0.66640000  0.07154000  1.0 0.1122164636
C  C300  1  0.37776000  0.16640000  0.42846000  1.0 0.1122164636
C  C301  1  0.29022000  0.28690000  0.95282000  1.0 -0.098768775
C  C302  1  0.70978000  0.78690000  0.54718000  1.0 -0.098768775
C  C303  1  0.70978000  0.71310000  0.04718000  1.0 -0.098768775
C  C304  1  0.29022000  0.21310000  0.45282000  1.0 -0.098768775
C  C305  1  0.24840000  0.32670000  0.91990000  1.0 -0.0235616526
C  C306  1  0.75160000  0.82670000  0.58010000  1.0 -0.0235616526
C  C307  1  0.75160000  0.67330000  0.08010000  1.0 -0.0235616526
C  C308  1  0.24840000  0.17330000  0.41990000  1.0 -0.0235616526
C  C309  1  0.50718000  0.23870000  0.12548000  1.0 0.0999960994
C  C310  1  0.49282000  0.73870000  0.37452000  1.0 0.0999960994
C  C311  1  0.49282000  0.76130000  0.87452000  1.0 0.0999960994
C  C312  1  0.50718000  0.26130000  0.62548000  1.0 0.0999960994
C  C313  1  0.41449000  0.14970000  0.09089000  1.0 -0.098768775
C  C314  1  0.58551000  0.64970000  0.40911000  1.0 -0.098768775
C  C315  1  0.58551000  0.85030000  0.90911000  1.0 -0.098768775
C  C316  1  0.41449000  0.35030000  0.59089000  1.0 -0.098768775
C  C317  1  0.41067000  0.15630000  0.12567000  1.0 -0.0282901911
C  C318  1  0.58933000  0.65630000  0.37433000  1.0 -0.0282901911
C  C319  1  0.58933000  0.84370000  0.87433000  1.0 -0.0282901911
C  C320  1  0.41067000  0.34370000  0.62567000  1.0 -0.0282901911
C  C321  1  0.84972000  0.42430000  0.29282000  1.0 0.1938425673
C  C322  1  0.15028000  0.92430000  0.20718000  1.0 0.1938425673
C  C323  1  0.15028000  0.57570000  0.70718000  1.0 0.1938425673
C  C324  1  0.84972000  0.07570000  0.79282000  1.0 0.1938425673
C  C325  1  0.93351000  0.43270000  0.30211000  1.0 -0.2890450494
C  C326  1  0.06649000  0.93270000  0.19789000  1.0 -0.2890450494
C  C327  1  0.06649000  0.56730000  0.69789000  1.0 -0.2890450494
C  C328  1  0.93351000  0.06730000  0.80211000  1.0 -0.2890450494
C  C329  1  0.98809000  0.40880000  0.33849000  1.0 0.2007131078
C  C330  1  0.01191000  0.90880000  0.16151000  1.0 0.2007131078
C  C331  1  0.01191000  0.59120000  0.66151000  1.0 0.2007131078
C  C332  1  0.98809000  0.09120000  0.83849000  1.0 0.2007131078
C  C333  1  0.95799000  0.37760000  0.36509000  1.0 -0.2619088825
C  C334  1  0.04201000  0.87760000  0.13491000  1.0 -0.2619088825
C  C335  1  0.04201000  0.62240000  0.63491000  1.0 -0.2619088825
C  C336  1  0.95799000  0.12240000  0.86509000  1.0 -0.2619088825
C  C337  1  0.87235000  0.36890000  0.35445000  1.0 0.2007131078
C  C338  1  0.12765000  0.86890000  0.14555000  1.0 0.2007131078
C  C339  1  0.12765000  0.63110000  0.64555000  1.0 0.2007131078
C  C340  1  0.87235000  0.13110000  0.85445000  1.0 0.2007131078
C  C341  1  0.81747000  0.39220000  0.31837000  1.0 -0.2416030752
C  C342  1  0.18253000  0.89220000  0.18163000  1.0 -0.2416030752
C  C343  1  0.18253000  0.60780000  0.68163000  1.0 -0.2416030752
C  C344  1  0.81747000  0.10780000  0.81837000  1.0 -0.2416030752
C  C345  1  0.80798000  0.49490000  0.22928000  1.0 0.0999960994
C  C346  1  0.19202000  0.99490000  0.27072000  1.0 0.0999960994
C  C347  1  0.19202000  0.50510000  0.77072000  1.0 0.0999960994
C  C348  1  0.80798000  0.00510000  0.72928000  1.0 0.0999960994
C  C349  1  0.71250000  0.41590000  0.23610000  1.0 -0.0795829767
C  C350  1  0.28750000  0.91590000  0.26390000  1.0 -0.0795829767
C  C351  1  0.28750000  0.58410000  0.76390000  1.0 -0.0795829767
C  C352  1  0.71250000  0.08410000  0.73610000  1.0 -0.0795829767
C  C353  1  0.68490000  0.44990000  0.20060000  1.0 0.001871761
C  C354  1  0.31510000  0.94990000  0.29940000  1.0 0.001871761
C  C355  1  0.31510000  0.55010000  0.79940000  1.0 0.001871761
C  C356  1  0.68490000  0.05010000  0.70060000  1.0 0.001871761
C  C357  1  0.11696000  0.47450000  0.33706000  1.0 0.0999960994
C  C358  1  0.88304000  0.97450000  0.16294000  1.0 0.0999960994
C  C359  1  0.88304000  0.52550000  0.66294000  1.0 0.0999960994
C  C360  1  0.11696000  0.02550000  0.83706000  1.0 0.0999960994
C  C361  1  0.13636000  0.35760000  0.36876000  1.0 -0.0795829767
C  C362  1  0.86364000  0.85760000  0.13124000  1.0 -0.0795829767
C  C363  1  0.86364000  0.64240000  0.63124000  1.0 -0.0795829767
C  C364  1  0.13636000  0.14240000  0.86876000  1.0 -0.0795829767
C  C365  1  0.21002000  0.38460000  0.36842000  1.0 -0.0235616526
C  C366  1  0.78998000  0.88460000  0.13158000  1.0 -0.0235616526
C  C367  1  0.78998000  0.61540000  0.63158000  1.0 -0.0235616526
C  C368  1  0.21002000  0.11540000  0.86842000  1.0 -0.0235616526
C  C369  1  0.88272000  0.32880000  0.41962000  1.0 0.1122164636
C  C370  1  0.11728000  0.82880000  0.08038000  1.0 0.1122164636
C  C371  1  0.11728000  0.67120000  0.58038000  1.0 0.1122164636
C  C372  1  0.88272000  0.17120000  0.91962000  1.0 0.1122164636
C  C373  1  0.76332000  0.30400000  0.37332000  1.0 -0.0747947605
C  C374  1  0.23668000  0.80400000  0.12668000  1.0 -0.0747947605
C  C375  1  0.23668000  0.69600000  0.62668000  1.0 -0.0747947605
C  C376  1  0.76332000  0.19600000  0.87332000  1.0 -0.0747947605
C  C377  1  0.76113000  0.27820000  0.40703000  1.0 -0.0282901911
C  C378  1  0.23887000  0.77820000  0.09297000  1.0 -0.0282901911
C  C379  1  0.23887000  0.72180000  0.59297000  1.0 -0.0282901911
C  C380  1  0.76113000  0.22180000  0.90703000  1.0 -0.0282901911
N  N1  1  0.14693000  0.27410000  0.04113000  1.0 -0.3069931535
N  N2  1  0.85307000  0.77410000  0.45887000  1.0 -0.3069931535
N  N3  1  0.85307000  0.72590000  0.95887000  1.0 -0.3069931535
N  N4  1  0.14693000  0.22590000  0.54113000  1.0 -0.3069931535
N  N5  1  0.15208000  0.32340000  0.09658000  1.0 0.0087962453
N  N6  1  0.84792000  0.82340000  0.40342000  1.0 0.0087962453
N  N7  1  0.84792000  0.67660000  0.90342000  1.0 0.0087962453
N  N8  1  0.15208000  0.17660000  0.59658000  1.0 0.0087962453
N  N9  1  0.81701000  0.49800000  0.13221000  1.0 -0.2802472753
N  N10  1  0.18299000  0.99800000  0.36779000  1.0 -0.2802472753
N  N11  1  0.18299000  0.50200000  0.86779000  1.0 -0.2802472753
N  N12  1  0.81701000  0.00200000  0.63221000  1.0 -0.2802472753
N  N13  1  0.93209000  0.43960000  0.13109000  1.0 0.001871761
N  N14  1  0.06791000  0.93960000  0.36891000  1.0 0.001871761
N  N15  1  0.06791000  0.56040000  0.86891000  1.0 0.001871761
N  N16  1  0.93209000  0.06040000  0.63109000  1.0 0.001871761
N  N17  1  0.27294000  0.46030000  0.28664000  1.0 -0.3069931535
N  N18  1  0.72706000  0.96030000  0.21336000  1.0 -0.3069931535
N  N19  1  0.72706000  0.53970000  0.71336000  1.0 -0.3069931535
N  N20  1  0.27294000  0.03970000  0.78664000  1.0 -0.3069931535
N  N21  1  0.21827000  0.42150000  0.22607000  1.0 -0.0114459406
N  N22  1  0.78173000  0.92150000  0.27393000  1.0 -0.0114459406
N  N23  1  0.78173000  0.57850000  0.77393000  1.0 -0.0114459406
N  N24  1  0.21827000  0.07850000  0.72607000  1.0 -0.0114459406
N  N25  1  0.78630000  0.23480000  0.01210000  1.0 -0.2999948697
N  N26  1  0.21370000  0.73480000  0.48790000  1.0 -0.2999948697
N  N27  1  0.21370000  0.76520000  0.98790000  1.0 -0.2999948697
N  N28  1  0.78630000  0.26520000  0.51210000  1.0 -0.2999948697
N  N29  1  0.67444000  0.22760000  0.02784000  1.0 0.001871761
N  N30  1  0.32556000  0.72760000  0.47216000  1.0 0.001871761
N  N31  1  0.32556000  0.77240000  0.97216000  1.0 0.001871761
N  N32  1  0.67444000  0.27240000  0.52784000  1.0 0.001871761
N  N33  1  0.30247000  0.35600000  0.90447000  1.0 -0.2802472753
N  N34  1  0.69753000  0.85600000  0.59553000  1.0 -0.2802472753
N  N35  1  0.69753000  0.64400000  0.09553000  1.0 -0.2802472753
N  N36  1  0.30247000  0.14400000  0.40447000  1.0 -0.2802472753
N  N37  1  0.37480000  0.29100000  0.95860000  1.0 -0.001864094
N  N38  1  0.62520000  0.79100000  0.54140000  1.0 -0.001864094
N  N39  1  0.62520000  0.70900000  0.04140000  1.0 -0.001864094
N  N40  1  0.37480000  0.20900000  0.45860000  1.0 -0.001864094
N  N41  1  0.46809000  0.21300000  0.14759000  1.0 -0.2999948697
N  N42  1  0.53191000  0.71300000  0.35241000  1.0 -0.2999948697
N  N43  1  0.53191000  0.78700000  0.85241000  1.0 -0.2999948697
N  N44  1  0.46809000  0.28700000  0.64759000  1.0 -0.2999948697
N  N45  1  0.47621000  0.20070000  0.09041000  1.0 -0.0114459406
N  N46  1  0.52379000  0.70070000  0.40959000  1.0 -0.0114459406
N  N47  1  0.52379000  0.79930000  0.90959000  1.0 -0.0114459406
N  N48  1  0.47621000  0.29930000  0.59041000  1.0 -0.0114459406
N  N49  1  0.74474000  0.49980000  0.19654000  1.0 -0.2802472753
N  N50  1  0.25526000  0.99980000  0.30346000  1.0 -0.2802472753
N  N51  1  0.25526000  0.50020000  0.80346000  1.0 -0.2802472753
N  N52  1  0.74474000  0.00020000  0.69654000  1.0 -0.2802472753
N  N53  1  0.79249000  0.44470000  0.25449000  1.0 -0.0114459406
N  N54  1  0.20751000  0.94470000  0.24551000  1.0 -0.0114459406
N  N55  1  0.20751000  0.55530000  0.74551000  1.0 -0.0114459406
N  N56  1  0.79249000  0.05530000  0.75449000  1.0 -0.0114459406
N  N57  1  0.19818000  0.45920000  0.34888000  1.0 -0.3069931535
N  N58  1  0.80182000  0.95920000  0.15112000  1.0 -0.3069931535
N  N59  1  0.80182000  0.54080000  0.65112000  1.0 -0.3069931535
N  N60  1  0.19818000  0.04080000  0.84888000  1.0 -0.3069931535
N  N61  1  0.07711000  0.41500000  0.34831000  1.0 0.001871761
N  N62  1  0.92289000  0.91500000  0.15169000  1.0 0.001871761
N  N63  1  0.92289000  0.58500000  0.65169000  1.0 0.001871761
N  N64  1  0.07711000  0.08500000  0.84831000  1.0 0.001871761
N  N65  1  0.83668000  0.29410000  0.43608000  1.0 -0.3069931535
N  N66  1  0.16332000  0.79410000  0.06392000  1.0 -0.3069931535
N  N67  1  0.16332000  0.70590000  0.56392000  1.0 -0.3069931535
N  N68  1  0.83668000  0.20590000  0.93608000  1.0 -0.3069931535
N  N69  1  0.84098000  0.33710000  0.38108000  1.0 -0.001864094
N  N70  1  0.15902000  0.83710000  0.11892000  1.0 -0.001864094
N  N71  1  0.15902000  0.66290000  0.61892000  1.0 -0.001864094
N  N72  1  0.84098000  0.16290000  0.88108000  1.0 -0.001864094
O  O1  1  0.07488000  0.30960000  0.94518000  1.0 -0.5289462186
O  O2  1  0.92512000  0.80960000  0.55482000  1.0 -0.5289462186
O  O3  1  0.92512000  0.69040000  0.05482000  1.0 -0.5289462186
O  O4  1  0.07488000  0.19040000  0.44518000  1.0 -0.5289462186
O  O5  1  0.98738000  0.30050000  0.97368000  1.0 -0.5514541404
O  O6  1  0.01262000  0.80050000  0.52632000  1.0 -0.5514541404
O  O7  1  0.01262000  0.69950000  0.02632000  1.0 -0.5514541404
O  O8  1  0.98738000  0.19950000  0.47368000  1.0 -0.5514541404
O  O9  1  0.60699000  0.29380000  0.72579000  1.0 -0.5588810729
O  O10  1  0.39301000  0.79380000  0.77421000  1.0 -0.5588810729
O  O11  1  0.39301000  0.70620000  0.27421000  1.0 -0.5588810729
O  O12  1  0.60699000  0.20620000  0.22579000  1.0 -0.5588810729
O  O13  1  0.65644000  0.24640000  0.78534000  1.0 -0.5246103304
O  O14  1  0.34356000  0.74640000  0.71466000  1.0 -0.5246103304
O  O15  1  0.34356000  0.75360000  0.21466000  1.0 -0.5246103304
O  O16  1  0.65644000  0.25360000  0.28534000  1.0 -0.5246103304
O  O17  1  0.04380000  0.12510000  0.00290000  1.0 -0.5402776258
O  O18  1  0.95620000  0.62510000  0.49710000  1.0 -0.5402776258
O  O19  1  0.95620000  0.87490000  0.99710000  1.0 -0.5402776258
O  O20  1  0.04380000  0.37490000  0.50290000  1.0 -0.5402776258
O  O21  1  0.95345000  0.17920000  0.02545000  1.0 -0.5588810729
O  O22  1  0.04655000  0.67920000  0.47455000  1.0 -0.5588810729
O  O23  1  0.04655000  0.82080000  0.97455000  1.0 -0.5588810729
O  O24  1  0.95345000  0.32080000  0.52545000  1.0 -0.5588810729
O  O25  1  0.43116000  0.12930000  0.21326000  1.0 -0.5402776258
O  O26  1  0.56884000  0.62930000  0.28674000  1.0 -0.5402776258
O  O27  1  0.56884000  0.87070000  0.78674000  1.0 -0.5402776258
O  O28  1  0.43116000  0.37070000  0.71326000  1.0 -0.5402776258
O  O29  1  0.34932000  0.23500000  0.19132000  1.0 -0.5588810729
O  O30  1  0.65068000  0.73500000  0.30868000  1.0 -0.5588810729
O  O31  1  0.65068000  0.76500000  0.80868000  1.0 -0.5588810729
O  O32  1  0.34932000  0.26500000  0.69132000  1.0 -0.5588810729
O  O33  1  0.18940000  0.62160000  0.03190000  1.0 -0.5402776258
O  O34  1  0.81060000  0.12160000  0.46810000  1.0 -0.5402776258
O  O35  1  0.81060000  0.37840000  0.96810000  1.0 -0.5402776258
O  O36  1  0.18940000  0.87840000  0.53190000  1.0 -0.5402776258
O  O37  1  0.08827000  0.62710000  0.97517000  1.0 -0.5588810729
O  O38  1  0.91173000  0.12710000  0.52483000  1.0 -0.5588810729
O  O39  1  0.91173000  0.37290000  0.02483000  1.0 -0.5588810729
O  O40  1  0.08827000  0.87290000  0.47517000  1.0 -0.5588810729
O  O41  1  0.63838000  0.49300000  0.11618000  1.0 -0.5514541404
O  O42  1  0.36162000  0.99300000  0.38382000  1.0 -0.5514541404
O  O43  1  0.36162000  0.50700000  0.88382000  1.0 -0.5514541404
O  O44  1  0.63838000  0.00700000  0.61618000  1.0 -0.5514541404
O  O45  1  0.51976000  0.55360000  0.10876000  1.0 -0.5289462186
O  O46  1  0.48024000  0.05360000  0.39124000  1.0 -0.5289462186
O  O47  1  0.48024000  0.44640000  0.89124000  1.0 -0.5289462186
O  O48  1  0.51976000  0.94640000  0.60876000  1.0 -0.5289462186
O  O49  1  0.85094000  0.64380000  0.18704000  1.0 -0.5588810729
O  O50  1  0.14906000  0.14380000  0.31296000  1.0 -0.5588810729
O  O51  1  0.14906000  0.35620000  0.81296000  1.0 -0.5588810729
O  O52  1  0.85094000  0.85620000  0.68704000  1.0 -0.5588810729
O  O53  1  0.72069000  0.67680000  0.17589000  1.0 -0.5289462186
O  O54  1  0.27931000  0.17680000  0.32411000  1.0 -0.5289462186
O  O55  1  0.27931000  0.32320000  0.82411000  1.0 -0.5289462186
O  O56  1  0.72069000  0.82320000  0.67589000  1.0 -0.5289462186
O  O57  1  0.26921000  0.63950000  0.36141000  1.0 -0.5588810729
O  O58  1  0.73079000  0.13950000  0.13859000  1.0 -0.5588810729
O  O59  1  0.73079000  0.36050000  0.63859000  1.0 -0.5588810729
O  O60  1  0.26921000  0.86050000  0.86141000  1.0 -0.5588810729
O  O61  1  0.18322000  0.61590000  0.30212000  1.0 -0.5514541404
O  O62  1  0.81678000  0.11590000  0.19788000  1.0 -0.5514541404
O  O63  1  0.81678000  0.38410000  0.69788000  1.0 -0.5514541404
O  O64  1  0.18322000  0.88410000  0.80212000  1.0 -0.5514541404
O  O65  1  0.21277000  0.15580000  0.99717000  1.0 -0.5402776258
O  O66  1  0.78723000  0.65580000  0.50283000  1.0 -0.5402776258
O  O67  1  0.78723000  0.84420000  0.00283000  1.0 -0.5402776258
O  O68  1  0.21277000  0.34420000  0.49717000  1.0 -0.5402776258
O  O69  1  0.10532000  0.12400000  0.94522000  1.0 -0.5402776258
O  O70  1  0.89468000  0.62400000  0.55478000  1.0 -0.5402776258
O  O71  1  0.89468000  0.87600000  0.05478000  1.0 -0.5402776258
O  O72  1  0.10532000  0.37600000  0.44522000  1.0 -0.5402776258
O  O73  1  0.62123000  0.96080000  0.12273000  1.0 -0.5514541404
O  O74  1  0.37877000  0.46080000  0.37727000  1.0 -0.5514541404
O  O75  1  0.37877000  0.03920000  0.87727000  1.0 -0.5514541404
O  O76  1  0.62123000  0.53920000  0.62273000  1.0 -0.5514541404
O  O77  1  0.51302000  0.97200000  0.13992000  1.0 -0.5289462186
O  O78  1  0.48698000  0.47200000  0.36008000  1.0 -0.5289462186
O  O79  1  0.48698000  0.02800000  0.86008000  1.0 -0.5246103304
O  O80  1  0.51302000  0.52800000  0.63992000  1.0 -0.5289462186
O  O81  1  0.38393000  0.59380000  0.32673000  1.0 0.0885730111
O  O82  1  0.61607000  0.09380000  0.17327000  1.0 0.0999960994
O  O83  1  0.61607000  0.40620000  0.67327000  1.0 0.0885730111
O  O84  1  0.38393000  0.90620000  0.82673000  1.0 0.0885730111
O  O85  1  0.49245000  0.27760000  0.26195000  1.0 0.0152505724
O  O86  1  0.50755000  0.77760000  0.23805000  1.0 0.0087962453
O  O87  1  0.50755000  0.72240000  0.73805000  1.0 0.0087962453
O  O88  1  0.49245000  0.22240000  0.76195000  1.0 0.0152505724
O  O89  1  0.49678000  0.36900000  0.19908000  1.0 -0.4841856645
O  O90  1  0.50322000  0.86900000  0.30092000  1.0 -0.4878401594
O  O91  1  0.50322000  0.63100000  0.80092000  1.0 -0.4878401594
O  O92  1  0.49678000  0.13100000  0.69908000  1.0 -0.4841856645
