# DDEC6 charges by PACMAN v1.1 (https://github.com/mtap-research/PACMAN-charge/)
data_KIYMEM01_ASR_pacman
_symmetry_space_group_name_H-M   'P 1'
_cell_length_a   7.13950000
_cell_length_b   14.67800000
_cell_length_c   15.01400000
_cell_angle_alpha   90.00000000
_cell_angle_beta   90.00000000
_cell_angle_gamma   90.00000000
_symmetry_Int_Tables_number   1
_chemical_formula_structural   BaH6(C3O)4
_chemical_formula_sum   'Ba4 H24 C48 O16'
_cell_volume   1573.37082513
_cell_formula_units_Z   4
loop_
 _symmetry_equiv_pos_site_id
 _symmetry_equiv_pos_as_xyz
  1  'x, y, z'
loop_
 _atom_site_type_symbol
 _atom_site_label
 _atom_site_symmetry_multiplicity
 _atom_site_fract_x
 _atom_site_fract_y
 _atom_site_fract_z
 _atom_site_occupancy
 _atom_site_charge
Ba  Ba1  1  0.92802000  0.19409000  0.43891000  1.0 1.4356127977
Ba  Ba2  1  0.57198000  0.80591000  0.93891000  1.0 1.4356127977
Ba  Ba3  1  0.07198000  0.69409000  0.06109000  1.0 1.4356127977
Ba  Ba4  1  0.42802000  0.30591000  0.56109000  1.0 1.4356127977
H  H1  1  0.92630000  0.49820000  0.59750000  1.0 0.1112470608
H  H2  1  0.57370000  0.50180000  0.09750000  1.0 0.1112470608
H  H3  1  0.07370000  0.99820000  0.90250000  1.0 0.1112470608
H  H4  1  0.42630000  0.00180000  0.40250000  1.0 0.1112470608
H  H5  1  0.86790000  0.23060000  0.76110000  1.0 0.1208721101
H  H6  1  0.63210000  0.76940000  0.26110000  1.0 0.1208721101
H  H7  1  0.13210000  0.73060000  0.73890000  1.0 0.1208721101
H  H8  1  0.36790000  0.26940000  0.23890000  1.0 0.1208721101
H  H9  1  0.83040000  0.19750000  0.90750000  1.0 0.1112470608
H  H10  1  0.66960000  0.80250000  0.40750000  1.0 0.1112470608
H  H11  1  0.16960000  0.69750000  0.59250000  1.0 0.1112470608
H  H12  1  0.33040000  0.30250000  0.09250000  1.0 0.1112470608
H  H13  1  0.79910000  0.31230000  0.01190000  1.0 0.1112470608
H  H14  1  0.70090000  0.68770000  0.51190000  1.0 0.1112470608
H  H15  1  0.20090000  0.81230000  0.48810000  1.0 0.1112470608
H  H16  1  0.29910000  0.18770000  0.98810000  1.0 0.1112470608
H  H17  1  0.79450000  0.46110000  0.96920000  1.0 0.1208721101
H  H18  1  0.70550000  0.53890000  0.46920000  1.0 0.1208721101
H  H19  1  0.20550000  0.96110000  0.53080000  1.0 0.1208721101
H  H20  1  0.29450000  0.03890000  0.03080000  1.0 0.1208721101
H  H21  1  0.85570000  0.61250000  0.69790000  1.0 0.1112470608
H  H22  1  0.64430000  0.38750000  0.19790000  1.0 0.1112470608
H  H23  1  0.14430000  0.11250000  0.80210000  1.0 0.1112470608
H  H24  1  0.35570000  0.88750000  0.30210000  1.0 0.1112470608
C  C1  1  0.91720000  0.32280000  0.60950000  1.0 0.5986171365
C  C2  1  0.58280000  0.67720000  0.10950000  1.0 0.5986171365
C  C3  1  0.08280000  0.82280000  0.89050000  1.0 0.5986171365
C  C4  1  0.41720000  0.17720000  0.39050000  1.0 0.5986171365
C  C5  1  0.78010000  0.61400000  0.86520000  1.0 0.594099462
C  C6  1  0.71990000  0.38600000  0.36520000  1.0 0.594099462
C  C7  1  0.21990000  0.11400000  0.63480000  1.0 0.594099462
C  C8  1  0.28010000  0.88600000  0.13480000  1.0 0.594099462
C  C9  1  0.89830000  0.48310000  0.65620000  1.0 -0.1296213679
C  C10  1  0.60170000  0.51690000  0.15620000  1.0 -0.1296213679
C  C11  1  0.10170000  0.98310000  0.84380000  1.0 -0.1296213679
C  C12  1  0.39830000  0.01690000  0.34380000  1.0 -0.1296213679
C  C13  1  0.89580000  0.39420000  0.68080000  1.0 -0.0902420431
C  C14  1  0.60420000  0.60580000  0.18080000  1.0 -0.0902420431
C  C15  1  0.10420000  0.89420000  0.81920000  1.0 -0.0902420431
C  C16  1  0.39580000  0.10580000  0.31920000  1.0 -0.0902420431
C  C17  1  0.85670000  0.37010000  0.77170000  1.0 0.0530241206
C  C18  1  0.64330000  0.62990000  0.27170000  1.0 0.0530241206
C  C19  1  0.14330000  0.87010000  0.72830000  1.0 0.0530241206
C  C20  1  0.35670000  0.12990000  0.22830000  1.0 0.0530241206
C  C21  1  0.85420000  0.27770000  0.80200000  1.0 -0.1296213679
C  C22  1  0.64580000  0.72230000  0.30200000  1.0 -0.1296213679
C  C23  1  0.14580000  0.77770000  0.69800000  1.0 -0.1296213679
C  C24  1  0.35420000  0.22230000  0.19800000  1.0 -0.1296213679
C  C25  1  0.83210000  0.25800000  0.88910000  1.0 -0.0996663868
C  C26  1  0.66790000  0.74200000  0.38910000  1.0 -0.0996663868
C  C27  1  0.16790000  0.75800000  0.61090000  1.0 -0.0996663868
C  C28  1  0.33210000  0.24200000  0.11090000  1.0 -0.0996663868
C  C29  1  0.81180000  0.32710000  0.95190000  1.0 -0.1114298031
C  C30  1  0.68820000  0.67290000  0.45190000  1.0 -0.1114298031
C  C31  1  0.18820000  0.82710000  0.54810000  1.0 -0.1114298031
C  C32  1  0.31180000  0.17290000  0.04810000  1.0 -0.1114298031
C  C33  1  0.81030000  0.41590000  0.92640000  1.0 -0.1391415596
C  C34  1  0.68970000  0.58410000  0.42640000  1.0 -0.1391415596
C  C35  1  0.18970000  0.91590000  0.57360000  1.0 -0.1391415596
C  C36  1  0.31030000  0.08410000  0.07360000  1.0 -0.1391415596
C  C37  1  0.83240000  0.44080000  0.83560000  1.0 0.0577502698
C  C38  1  0.66760000  0.55920000  0.33560000  1.0 0.0577502698
C  C39  1  0.16760000  0.94080000  0.66440000  1.0 0.0577502698
C  C40  1  0.33240000  0.05920000  0.16440000  1.0 0.0577502698
C  C41  1  0.82670000  0.53420000  0.80510000  1.0 -0.0571495965
C  C42  1  0.67330000  0.46580000  0.30510000  1.0 -0.0571495965
C  C43  1  0.17330000  0.03420000  0.69490000  1.0 -0.0571495965
C  C44  1  0.32670000  0.96580000  0.19490000  1.0 -0.0571495965
C  C45  1  0.85930000  0.55240000  0.71750000  1.0 -0.1114298031
C  C46  1  0.64070000  0.44760000  0.21750000  1.0 -0.1114298031
C  C47  1  0.14070000  0.05240000  0.78250000  1.0 -0.1114298031
C  C48  1  0.35930000  0.94760000  0.28250000  1.0 -0.1114298031
O  O1  1  0.79430000  0.26080000  0.60272000  1.0 -0.6450661884
O  O2  1  0.70570000  0.73920000  0.10272000  1.0 -0.6450661884
O  O3  1  0.20570000  0.76080000  0.89728000  1.0 -0.6450661884
O  O4  1  0.29430000  0.23920000  0.39728000  1.0 -0.6450661884
O  O5  1  0.05340000  0.33141000  0.55707000  1.0 -0.6450661884
O  O6  1  0.44660000  0.66859000  0.05707000  1.0 -0.6450661884
O  O7  1  0.94660000  0.83141000  0.94293000  1.0 -0.6450661884
O  O8  1  0.55340000  0.16859000  0.44293000  1.0 -0.6450661884
O  O9  1  0.84440000  0.61570000  0.94260000  1.0 -0.6450661884
O  O10  1  0.65560000  0.38430000  0.44260000  1.0 -0.6443353891
O  O11  1  0.15560000  0.11570000  0.55740000  1.0 -0.6443353891
O  O12  1  0.34440000  0.88430000  0.05740000  1.0 -0.6443353891
O  O13  1  0.68340000  0.67530000  0.83000000  1.0 -0.6228838563
O  O14  1  0.81660000  0.32470000  0.33000000  1.0 -0.6228838563
O  O15  1  0.31660000  0.17530000  0.67000000  1.0 -0.6228838563
O  O16  1  0.18340000  0.82470000  0.17000000  1.0 -0.6228838563
