# DDEC6 charges by PACMAN v1.1 (https://github.com/mtap-research/PACMAN-charge/)
data_KIYTOD_ASR_pacman
_symmetry_space_group_name_H-M   'P 1'
_cell_length_a   28.55000000
_cell_length_b   28.55000000
_cell_length_c   27.05940000
_cell_angle_alpha   90.00000000
_cell_angle_beta   90.00000000
_cell_angle_gamma   90.00000000
_symmetry_Int_Tables_number   1
_chemical_formula_structural   Cu4NiH21C56(NO4)4
_chemical_formula_sum   'Cu32 Ni8 H168 C448 N32 O128'
_cell_volume   22056.18458850
_cell_formula_units_Z   8
loop_
 _symmetry_equiv_pos_site_id
 _symmetry_equiv_pos_as_xyz
  1  'x, y, z'
loop_
 _atom_site_type_symbol
 _atom_site_label
 _atom_site_symmetry_multiplicity
 _atom_site_fract_x
 _atom_site_fract_y
 _atom_site_fract_z
 _atom_site_occupancy
 _atom_site_charge
Cu  Cu1  1  0.26338000  0.03505000  0.21372000  1.0 0.8585278201
Cu  Cu2  1  0.73662000  0.96495000  0.21372000  1.0 0.8585278201
Cu  Cu3  1  0.03505000  0.73662000  0.21372000  1.0 0.8585278201
Cu  Cu4  1  0.96495000  0.26338000  0.21372000  1.0 0.8585278201
Cu  Cu5  1  0.76338000  0.46495000  0.78628000  1.0 0.8585278201
Cu  Cu6  1  0.23662000  0.53505000  0.78628000  1.0 0.8585278201
Cu  Cu7  1  0.53505000  0.76338000  0.78628000  1.0 0.8585278201
Cu  Cu8  1  0.46495000  0.23662000  0.78628000  1.0 0.8585278201
Cu  Cu9  1  0.73662000  0.96495000  0.78628000  1.0 0.8585278201
Cu  Cu10  1  0.26338000  0.03505000  0.78628000  1.0 0.8585278201
Cu  Cu11  1  0.96495000  0.26338000  0.78628000  1.0 0.8585278201
Cu  Cu12  1  0.03505000  0.73662000  0.78628000  1.0 0.8585278201
Cu  Cu13  1  0.23662000  0.53505000  0.21372000  1.0 0.8585278201
Cu  Cu14  1  0.76338000  0.46495000  0.21372000  1.0 0.8585278201
Cu  Cu15  1  0.46495000  0.23662000  0.21372000  1.0 0.8585278201
Cu  Cu16  1  0.53505000  0.76338000  0.21372000  1.0 0.8585278201
Cu  Cu17  1  0.20507000  0.02790000  0.29091000  1.0 0.8884436819
Cu  Cu18  1  0.79493000  0.97210000  0.29091000  1.0 0.8884436819
Cu  Cu19  1  0.02790000  0.79493000  0.29091000  1.0 0.8884436819
Cu  Cu20  1  0.97210000  0.20507000  0.29091000  1.0 0.8884436819
Cu  Cu21  1  0.70507000  0.47210000  0.70909000  1.0 0.8884436819
Cu  Cu22  1  0.29493000  0.52790000  0.70909000  1.0 0.8884436819
Cu  Cu23  1  0.52790000  0.70507000  0.70909000  1.0 0.8884436819
Cu  Cu24  1  0.47210000  0.29493000  0.70909000  1.0 0.8884436819
Cu  Cu25  1  0.79493000  0.97210000  0.70909000  1.0 0.8884436819
Cu  Cu26  1  0.20507000  0.02790000  0.70909000  1.0 0.8884436819
Cu  Cu27  1  0.97210000  0.20507000  0.70909000  1.0 0.8884436819
Cu  Cu28  1  0.02790000  0.79493000  0.70909000  1.0 0.8884436819
Cu  Cu29  1  0.29493000  0.52790000  0.29091000  1.0 0.8884436819
Cu  Cu30  1  0.70507000  0.47210000  0.29091000  1.0 0.8884436819
Cu  Cu31  1  0.47210000  0.29493000  0.29091000  1.0 0.8884436819
Cu  Cu32  1  0.52790000  0.70507000  0.29091000  1.0 0.8884436819
Ni  Ni1  1  0.27413000  0.77413000  0.00000000  1.0 0.482103351
Ni  Ni2  1  0.72587000  0.22587000  0.00000000  1.0 0.482103351
Ni  Ni3  1  0.77413000  0.72587000  0.00000000  1.0 0.482103351
Ni  Ni4  1  0.22587000  0.27413000  0.00000000  1.0 0.482103351
Ni  Ni5  1  0.29353000  0.79353000  0.50000000  1.0 0.4180535409
Ni  Ni6  1  0.70647000  0.20647000  0.50000000  1.0 0.4180535409
Ni  Ni7  1  0.79353000  0.70647000  0.50000000  1.0 0.4180535409
Ni  Ni8  1  0.20647000  0.29353000  0.50000000  1.0 0.4180535409
H  H1  1  0.24390000  0.80470000  0.18190000  1.0 0.1305854511
H  H2  1  0.75610000  0.19530000  0.18190000  1.0 0.1305854511
H  H3  1  0.80470000  0.75610000  0.18190000  1.0 0.1305854511
H  H4  1  0.19530000  0.24390000  0.18190000  1.0 0.1305854511
H  H5  1  0.74390000  0.69530000  0.81810000  1.0 0.1305854511
H  H6  1  0.25610000  0.30470000  0.81810000  1.0 0.1305854511
H  H7  1  0.30470000  0.74390000  0.81810000  1.0 0.1305854511
H  H8  1  0.69530000  0.25610000  0.81810000  1.0 0.1305854511
H  H9  1  0.75610000  0.19530000  0.81810000  1.0 0.1305854511
H  H10  1  0.24390000  0.80470000  0.81810000  1.0 0.1305854511
H  H11  1  0.19530000  0.24390000  0.81810000  1.0 0.1305854511
H  H12  1  0.80470000  0.75610000  0.81810000  1.0 0.1305854511
H  H13  1  0.25610000  0.30470000  0.18190000  1.0 0.1305854511
H  H14  1  0.74390000  0.69530000  0.18190000  1.0 0.1305854511
H  H15  1  0.69530000  0.25610000  0.18190000  1.0 0.1305854511
H  H16  1  0.30470000  0.74390000  0.18190000  1.0 0.1305854511
H  H17  1  0.14940000  0.89360000  0.04470000  1.0 0.1305854511
H  H18  1  0.85060000  0.10640000  0.04470000  1.0 0.1305854511
H  H19  1  0.89360000  0.85060000  0.04470000  1.0 0.1305854511
H  H20  1  0.10640000  0.14940000  0.04470000  1.0 0.1305854511
H  H21  1  0.64940000  0.60640000  0.95530000  1.0 0.1305854511
H  H22  1  0.35060000  0.39360000  0.95530000  1.0 0.1305854511
H  H23  1  0.39360000  0.64940000  0.95530000  1.0 0.1305854511
H  H24  1  0.60640000  0.35060000  0.95530000  1.0 0.1305854511
H  H25  1  0.85060000  0.10640000  0.95530000  1.0 0.1305854511
H  H26  1  0.14940000  0.89360000  0.95530000  1.0 0.1305854511
H  H27  1  0.10640000  0.14940000  0.95530000  1.0 0.1305854511
H  H28  1  0.89360000  0.85060000  0.95530000  1.0 0.1305854511
H  H29  1  0.35060000  0.39360000  0.04470000  1.0 0.1305854511
H  H30  1  0.64940000  0.60640000  0.04470000  1.0 0.1305854511
H  H31  1  0.60640000  0.35060000  0.04470000  1.0 0.1305854511
H  H32  1  0.39360000  0.64940000  0.04470000  1.0 0.1305854511
H  H33  1  0.22800000  0.91170000  0.13830000  1.0 0.1305854511
H  H34  1  0.77200000  0.08830000  0.13830000  1.0 0.1305854511
H  H35  1  0.91170000  0.77200000  0.13830000  1.0 0.1305854511
H  H36  1  0.08830000  0.22800000  0.13830000  1.0 0.1305854511
H  H37  1  0.72800000  0.58830000  0.86170000  1.0 0.1305854511
H  H38  1  0.27200000  0.41170000  0.86170000  1.0 0.1305854511
H  H39  1  0.41170000  0.72800000  0.86170000  1.0 0.1305854511
H  H40  1  0.58830000  0.27200000  0.86170000  1.0 0.1305854511
H  H41  1  0.77200000  0.08830000  0.86170000  1.0 0.1305854511
H  H42  1  0.22800000  0.91170000  0.86170000  1.0 0.1305854511
H  H43  1  0.08830000  0.22800000  0.86170000  1.0 0.1305854511
H  H44  1  0.91170000  0.77200000  0.86170000  1.0 0.1305854511
H  H45  1  0.27200000  0.41170000  0.13830000  1.0 0.1305854511
H  H46  1  0.72800000  0.58830000  0.13830000  1.0 0.1305854511
H  H47  1  0.58830000  0.27200000  0.13830000  1.0 0.1305854511
H  H48  1  0.41170000  0.72800000  0.13830000  1.0 0.1305854511
H  H49  1  0.12550000  0.90450000  0.24000000  1.0 0.1378632109
H  H50  1  0.87450000  0.09550000  0.24000000  1.0 0.1378632109
H  H51  1  0.90450000  0.87450000  0.24000000  1.0 0.1378632109
H  H52  1  0.09550000  0.12550000  0.24000000  1.0 0.1378632109
H  H53  1  0.62550000  0.59550000  0.76000000  1.0 0.1378632109
H  H54  1  0.37450000  0.40450000  0.76000000  1.0 0.1378632109
H  H55  1  0.40450000  0.62550000  0.76000000  1.0 0.1378632109
H  H56  1  0.59550000  0.37450000  0.76000000  1.0 0.1378632109
H  H57  1  0.87450000  0.09550000  0.76000000  1.0 0.1378632109
H  H58  1  0.12550000  0.90450000  0.76000000  1.0 0.1378632109
H  H59  1  0.09550000  0.12550000  0.76000000  1.0 0.1378632109
H  H60  1  0.90450000  0.87450000  0.76000000  1.0 0.1378632109
H  H61  1  0.37450000  0.40450000  0.24000000  1.0 0.1378632109
H  H62  1  0.62550000  0.59550000  0.24000000  1.0 0.1378632109
H  H63  1  0.59550000  0.37450000  0.24000000  1.0 0.1378632109
H  H64  1  0.40450000  0.62550000  0.24000000  1.0 0.1378632109
H  H65  1  0.13670000  0.80650000  0.13370000  1.0 0.1305854511
H  H66  1  0.86330000  0.19350000  0.13370000  1.0 0.1305854511
H  H67  1  0.80650000  0.86330000  0.13370000  1.0 0.1305854511
H  H68  1  0.19350000  0.13670000  0.13370000  1.0 0.1305854511
H  H69  1  0.63670000  0.69350000  0.86630000  1.0 0.1305854511
H  H70  1  0.36330000  0.30650000  0.86630000  1.0 0.1305854511
H  H71  1  0.30650000  0.63670000  0.86630000  1.0 0.1305854511
H  H72  1  0.69350000  0.36330000  0.86630000  1.0 0.1305854511
H  H73  1  0.86330000  0.19350000  0.86630000  1.0 0.1305854511
H  H74  1  0.13670000  0.80650000  0.86630000  1.0 0.1305854511
H  H75  1  0.19350000  0.13670000  0.86630000  1.0 0.1305854511
H  H76  1  0.80650000  0.86330000  0.86630000  1.0 0.1305854511
H  H77  1  0.36330000  0.30650000  0.13370000  1.0 0.1305854511
H  H78  1  0.63670000  0.69350000  0.13370000  1.0 0.1305854511
H  H79  1  0.69350000  0.36330000  0.13370000  1.0 0.1305854511
H  H80  1  0.30650000  0.63670000  0.13370000  1.0 0.1305854511
H  H81  1  0.17130000  0.67130000  0.45550000  1.0 0.1305854511
H  H82  1  0.82870000  0.32870000  0.45550000  1.0 0.1305854511
H  H83  1  0.67130000  0.82870000  0.45550000  1.0 0.1305854511
H  H84  1  0.32870000  0.17130000  0.45550000  1.0 0.1305854511
H  H85  1  0.67130000  0.82870000  0.54450000  1.0 0.1305854511
H  H86  1  0.32870000  0.17130000  0.54450000  1.0 0.1305854511
H  H87  1  0.17130000  0.67130000  0.54450000  1.0 0.1305854511
H  H88  1  0.82870000  0.32870000  0.54450000  1.0 0.1305854511
H  H89  1  0.26260000  0.76260000  0.32010000  1.0 0.1305854511
H  H90  1  0.73740000  0.23740000  0.32010000  1.0 0.1305854511
H  H91  1  0.76260000  0.73740000  0.32010000  1.0 0.1305854511
H  H92  1  0.23740000  0.26260000  0.32010000  1.0 0.1305854511
H  H93  1  0.76260000  0.73740000  0.67990000  1.0 0.1305854511
H  H94  1  0.23740000  0.26260000  0.67990000  1.0 0.1305854511
H  H95  1  0.26260000  0.76260000  0.67990000  1.0 0.1305854511
H  H96  1  0.73740000  0.23740000  0.67990000  1.0 0.1305854511
H  H97  1  0.32160000  0.82160000  0.31930000  1.0 0.1378632109
H  H98  1  0.67840000  0.17840000  0.31930000  1.0 0.1378632109
H  H99  1  0.82160000  0.67840000  0.31930000  1.0 0.1378632109
H  H100  1  0.17840000  0.32160000  0.31930000  1.0 0.1378632109
H  H101  1  0.82160000  0.67840000  0.68070000  1.0 0.1378632109
H  H102  1  0.17840000  0.32160000  0.68070000  1.0 0.1378632109
H  H103  1  0.32160000  0.82160000  0.68070000  1.0 0.1378632109
H  H104  1  0.67840000  0.17840000  0.68070000  1.0 0.1378632109
H  H105  1  0.41400000  0.91400000  0.45400000  1.0 0.1305854511
H  H106  1  0.58600000  0.08600000  0.45400000  1.0 0.1305854511
H  H107  1  0.91400000  0.58600000  0.45400000  1.0 0.1305854511
H  H108  1  0.08600000  0.41400000  0.45400000  1.0 0.1305854511
H  H109  1  0.91400000  0.58600000  0.54600000  1.0 0.1305854511
H  H110  1  0.08600000  0.41400000  0.54600000  1.0 0.1305854511
H  H111  1  0.41400000  0.91400000  0.54600000  1.0 0.1305854511
H  H112  1  0.58600000  0.08600000  0.54600000  1.0 0.1305854511
H  H113  1  0.15410000  0.75590000  0.36370000  1.0 0.1305854511
H  H114  1  0.84590000  0.24410000  0.36370000  1.0 0.1305854511
H  H115  1  0.75590000  0.84590000  0.36370000  1.0 0.1305854511
H  H116  1  0.24410000  0.15410000  0.36370000  1.0 0.1305854511
H  H117  1  0.65410000  0.74410000  0.63630000  1.0 0.1305854511
H  H118  1  0.34590000  0.25590000  0.63630000  1.0 0.1305854511
H  H119  1  0.25590000  0.65410000  0.63630000  1.0 0.1305854511
H  H120  1  0.74410000  0.34590000  0.63630000  1.0 0.1305854511
H  H121  1  0.84590000  0.24410000  0.63630000  1.0 0.1305854511
H  H122  1  0.15410000  0.75590000  0.63630000  1.0 0.1305854511
H  H123  1  0.24410000  0.15410000  0.63630000  1.0 0.1305854511
H  H124  1  0.75590000  0.84590000  0.63630000  1.0 0.1305854511
H  H125  1  0.34590000  0.25590000  0.36370000  1.0 0.1305854511
H  H126  1  0.65410000  0.74410000  0.36370000  1.0 0.1305854511
H  H127  1  0.74410000  0.34590000  0.36370000  1.0 0.1305854511
H  H128  1  0.25590000  0.65410000  0.36370000  1.0 0.1305854511
H  H129  1  0.15550000  0.65550000  0.25730000  1.0 0.1305854511
H  H130  1  0.84450000  0.34450000  0.25730000  1.0 0.1305854511
H  H131  1  0.65550000  0.84450000  0.25730000  1.0 0.1305854511
H  H132  1  0.34450000  0.15550000  0.25730000  1.0 0.1305854511
H  H133  1  0.65550000  0.84450000  0.74270000  1.0 0.1305854511
H  H134  1  0.34450000  0.15550000  0.74270000  1.0 0.1305854511
H  H135  1  0.15550000  0.65550000  0.74270000  1.0 0.1305854511
H  H136  1  0.84450000  0.34450000  0.74270000  1.0 0.1305854511
H  H137  1  0.39390000  0.99550000  0.29080000  1.0 0.1453690003
H  H138  1  0.60610000  0.00450000  0.29080000  1.0 0.1453690003
H  H139  1  0.99550000  0.60610000  0.29080000  1.0 0.1453690003
H  H140  1  0.00450000  0.39390000  0.29080000  1.0 0.1453690003
H  H141  1  0.89390000  0.50450000  0.70920000  1.0 0.1453690003
H  H142  1  0.10610000  0.49550000  0.70920000  1.0 0.1453690003
H  H143  1  0.49550000  0.89390000  0.70920000  1.0 0.1453690003
H  H144  1  0.50450000  0.10610000  0.70920000  1.0 0.1453690003
H  H145  1  0.60610000  0.00450000  0.70920000  1.0 0.1453690003
H  H146  1  0.39390000  0.99550000  0.70920000  1.0 0.1453690003
H  H147  1  0.00450000  0.39390000  0.70920000  1.0 0.1453690003
H  H148  1  0.99550000  0.60610000  0.70920000  1.0 0.1453690003
H  H149  1  0.10610000  0.49550000  0.29080000  1.0 0.1453690003
H  H150  1  0.89390000  0.50450000  0.29080000  1.0 0.1453690003
H  H151  1  0.50450000  0.10610000  0.29080000  1.0 0.1453690003
H  H152  1  0.49550000  0.89390000  0.29080000  1.0 0.1453690003
H  H153  1  0.29120000  0.92680000  0.36400000  1.0 0.1565445266
H  H154  1  0.70880000  0.07320000  0.36400000  1.0 0.1565445266
H  H155  1  0.92680000  0.70880000  0.36400000  1.0 0.1565445266
H  H156  1  0.07320000  0.29120000  0.36400000  1.0 0.1565445266
H  H157  1  0.79120000  0.57320000  0.63600000  1.0 0.1565445266
H  H158  1  0.20880000  0.42680000  0.63600000  1.0 0.1565445266
H  H159  1  0.42680000  0.79120000  0.63600000  1.0 0.1565445266
H  H160  1  0.57320000  0.20880000  0.63600000  1.0 0.1565445266
H  H161  1  0.70880000  0.07320000  0.63600000  1.0 0.1565445266
H  H162  1  0.29120000  0.92680000  0.63600000  1.0 0.1565445266
H  H163  1  0.07320000  0.29120000  0.63600000  1.0 0.1565445266
H  H164  1  0.92680000  0.70880000  0.63600000  1.0 0.1565445266
H  H165  1  0.20880000  0.42680000  0.36400000  1.0 0.1565445266
H  H166  1  0.79120000  0.57320000  0.36400000  1.0 0.1565445266
H  H167  1  0.57320000  0.20880000  0.36400000  1.0 0.1565445266
H  H168  1  0.42680000  0.79120000  0.36400000  1.0 0.1565445266
C  C1  1  0.25710000  0.79040000  0.15430000  1.0 -0.1776919195
C  C2  1  0.74290000  0.20960000  0.15430000  1.0 -0.1776919195
C  C3  1  0.79040000  0.74290000  0.15430000  1.0 -0.1776919195
C  C4  1  0.20960000  0.25710000  0.15430000  1.0 -0.1776919195
C  C5  1  0.75710000  0.70960000  0.84570000  1.0 -0.1776919195
C  C6  1  0.24290000  0.29040000  0.84570000  1.0 -0.1776919195
C  C7  1  0.29040000  0.75710000  0.84570000  1.0 -0.1776919195
C  C8  1  0.70960000  0.24290000  0.84570000  1.0 -0.1776919195
C  C9  1  0.74290000  0.20960000  0.84570000  1.0 -0.1776919195
C  C10  1  0.25710000  0.79040000  0.84570000  1.0 -0.1776919195
C  C11  1  0.20960000  0.25710000  0.84570000  1.0 -0.1776919195
C  C12  1  0.79040000  0.74290000  0.84570000  1.0 -0.1776919195
C  C13  1  0.24290000  0.29040000  0.15430000  1.0 -0.1776919195
C  C14  1  0.75710000  0.70960000  0.15430000  1.0 -0.1776919195
C  C15  1  0.70960000  0.24290000  0.15430000  1.0 -0.1776919195
C  C16  1  0.29040000  0.75710000  0.15430000  1.0 -0.1776919195
C  C17  1  0.24580000  0.79980000  0.10310000  1.0 0.1682524248
C  C18  1  0.75420000  0.20020000  0.10310000  1.0 0.1682524248
C  C19  1  0.79980000  0.75420000  0.10310000  1.0 0.1682524248
C  C20  1  0.20020000  0.24580000  0.10310000  1.0 0.1682524248
C  C21  1  0.74580000  0.70020000  0.89690000  1.0 0.1682524248
C  C22  1  0.25420000  0.29980000  0.89690000  1.0 0.1682524248
C  C23  1  0.29980000  0.74580000  0.89690000  1.0 0.1682524248
C  C24  1  0.70020000  0.25420000  0.89690000  1.0 0.1682524248
C  C25  1  0.75420000  0.20020000  0.89690000  1.0 0.1682524248
C  C26  1  0.24580000  0.79980000  0.89690000  1.0 0.1682524248
C  C27  1  0.20020000  0.24580000  0.89690000  1.0 0.1682524248
C  C28  1  0.79980000  0.75420000  0.89690000  1.0 0.1682524248
C  C29  1  0.25420000  0.29980000  0.10310000  1.0 0.1682524248
C  C30  1  0.74580000  0.70020000  0.10310000  1.0 0.1682524248
C  C31  1  0.70020000  0.25420000  0.10310000  1.0 0.1682524248
C  C32  1  0.29980000  0.74580000  0.10310000  1.0 0.1682524248
C  C33  1  0.21360000  0.83180000  0.08850000  1.0 -0.0894633753
C  C34  1  0.78640000  0.16820000  0.08850000  1.0 -0.0894633753
C  C35  1  0.83180000  0.78640000  0.08850000  1.0 -0.0894633753
C  C36  1  0.16820000  0.21360000  0.08850000  1.0 -0.0894633753
C  C37  1  0.71360000  0.66820000  0.91150000  1.0 -0.0894633753
C  C38  1  0.28640000  0.33180000  0.91150000  1.0 -0.0894633753
C  C39  1  0.33180000  0.71360000  0.91150000  1.0 -0.0894633753
C  C40  1  0.66820000  0.28640000  0.91150000  1.0 -0.0894633753
C  C41  1  0.78640000  0.16820000  0.91150000  1.0 -0.0894633753
C  C42  1  0.21360000  0.83180000  0.91150000  1.0 -0.0894633753
C  C43  1  0.16820000  0.21360000  0.91150000  1.0 -0.0894633753
C  C44  1  0.83180000  0.78640000  0.91150000  1.0 -0.0894633753
C  C45  1  0.28640000  0.33180000  0.08850000  1.0 -0.0894633753
C  C46  1  0.71360000  0.66820000  0.08850000  1.0 -0.0894633753
C  C47  1  0.66820000  0.28640000  0.08850000  1.0 -0.0894633753
C  C48  1  0.33180000  0.71360000  0.08850000  1.0 -0.0894633753
C  C49  1  0.20490000  0.84320000  0.03990000  1.0 0.1682524248
C  C50  1  0.79510000  0.15680000  0.03990000  1.0 0.1682524248
C  C51  1  0.84320000  0.79510000  0.03990000  1.0 0.1682524248
C  C52  1  0.15680000  0.20490000  0.03990000  1.0 0.1682524248
C  C53  1  0.70490000  0.65680000  0.96010000  1.0 0.1682524248
C  C54  1  0.29510000  0.34320000  0.96010000  1.0 0.1682524248
C  C55  1  0.34320000  0.70490000  0.96010000  1.0 0.1682524248
C  C56  1  0.65680000  0.29510000  0.96010000  1.0 0.1682524248
C  C57  1  0.79510000  0.15680000  0.96010000  1.0 0.1682524248
C  C58  1  0.20490000  0.84320000  0.96010000  1.0 0.1682524248
C  C59  1  0.15680000  0.20490000  0.96010000  1.0 0.1682524248
C  C60  1  0.84320000  0.79510000  0.96010000  1.0 0.1682524248
C  C61  1  0.29510000  0.34320000  0.03990000  1.0 0.1682524248
C  C62  1  0.70490000  0.65680000  0.03990000  1.0 0.1682524248
C  C63  1  0.65680000  0.29510000  0.03990000  1.0 0.1682524248
C  C64  1  0.34320000  0.70490000  0.03990000  1.0 0.1682524248
C  C65  1  0.16880000  0.87600000  0.02420000  1.0 -0.1776919195
C  C66  1  0.83120000  0.12400000  0.02420000  1.0 -0.1776919195
C  C67  1  0.87600000  0.83120000  0.02420000  1.0 -0.1776919195
C  C68  1  0.12400000  0.16880000  0.02420000  1.0 -0.1776919195
C  C69  1  0.66880000  0.62400000  0.97580000  1.0 -0.1776919195
C  C70  1  0.33120000  0.37600000  0.97580000  1.0 -0.1776919195
C  C71  1  0.37600000  0.66880000  0.97580000  1.0 -0.1776919195
C  C72  1  0.62400000  0.33120000  0.97580000  1.0 -0.1776919195
C  C73  1  0.83120000  0.12400000  0.97580000  1.0 -0.1776919195
C  C74  1  0.16880000  0.87600000  0.97580000  1.0 -0.1776919195
C  C75  1  0.12400000  0.16880000  0.97580000  1.0 -0.1776919195
C  C76  1  0.87600000  0.83120000  0.97580000  1.0 -0.1776919195
C  C77  1  0.33120000  0.37600000  0.02420000  1.0 -0.1776919195
C  C78  1  0.66880000  0.62400000  0.02420000  1.0 -0.1776919195
C  C79  1  0.62400000  0.33120000  0.02420000  1.0 -0.1776919195
C  C80  1  0.37600000  0.66880000  0.02420000  1.0 -0.1776919195
C  C81  1  0.18580000  0.85590000  0.13100000  1.0 0.0669380385
C  C82  1  0.81420000  0.14410000  0.13100000  1.0 0.0669380385
C  C83  1  0.85590000  0.81420000  0.13100000  1.0 0.0669380385
C  C84  1  0.14410000  0.18580000  0.13100000  1.0 0.0669380385
C  C85  1  0.68580000  0.64410000  0.86900000  1.0 0.0669380385
C  C86  1  0.31420000  0.35590000  0.86900000  1.0 0.0669380385
C  C87  1  0.35590000  0.68580000  0.86900000  1.0 0.0669380385
C  C88  1  0.64410000  0.31420000  0.86900000  1.0 0.0669380385
C  C89  1  0.81420000  0.14410000  0.86900000  1.0 0.0669380385
C  C90  1  0.18580000  0.85590000  0.86900000  1.0 0.0669380385
C  C91  1  0.14410000  0.18580000  0.86900000  1.0 0.0669380385
C  C92  1  0.85590000  0.81420000  0.86900000  1.0 0.0669380385
C  C93  1  0.31420000  0.35590000  0.13100000  1.0 0.0669380385
C  C94  1  0.68580000  0.64410000  0.13100000  1.0 0.0669380385
C  C95  1  0.64410000  0.31420000  0.13100000  1.0 0.0669380385
C  C96  1  0.35590000  0.68580000  0.13100000  1.0 0.0669380385
C  C97  1  0.20180000  0.89690000  0.15160000  1.0 -0.1287503123
C  C98  1  0.79820000  0.10310000  0.15160000  1.0 -0.1287503123
C  C99  1  0.89690000  0.79820000  0.15160000  1.0 -0.1287503123
C  C100  1  0.10310000  0.20180000  0.15160000  1.0 -0.1287503123
C  C101  1  0.70180000  0.60310000  0.84840000  1.0 -0.1287503123
C  C102  1  0.29820000  0.39690000  0.84840000  1.0 -0.1287503123
C  C103  1  0.39690000  0.70180000  0.84840000  1.0 -0.1287503123
C  C104  1  0.60310000  0.29820000  0.84840000  1.0 -0.1287503123
C  C105  1  0.79820000  0.10310000  0.84840000  1.0 -0.1287503123
C  C106  1  0.20180000  0.89690000  0.84840000  1.0 -0.1287503123
C  C107  1  0.10310000  0.20180000  0.84840000  1.0 -0.1287503123
C  C108  1  0.89690000  0.79820000  0.84840000  1.0 -0.1287503123
C  C109  1  0.29820000  0.39690000  0.15160000  1.0 -0.1287503123
C  C110  1  0.70180000  0.60310000  0.15160000  1.0 -0.1287503123
C  C111  1  0.60310000  0.29820000  0.15160000  1.0 -0.1287503123
C  C112  1  0.39690000  0.70180000  0.15160000  1.0 -0.1287503123
C  C113  1  0.17900000  0.91650000  0.19210000  1.0 -0.0425322607
C  C114  1  0.82100000  0.08350000  0.19210000  1.0 -0.0425322607
C  C115  1  0.91650000  0.82100000  0.19210000  1.0 -0.0425322607
C  C116  1  0.08350000  0.17900000  0.19210000  1.0 -0.0425322607
C  C117  1  0.67900000  0.58350000  0.80790000  1.0 -0.0425322607
C  C118  1  0.32100000  0.41650000  0.80790000  1.0 -0.0425322607
C  C119  1  0.41650000  0.67900000  0.80790000  1.0 -0.0425322607
C  C120  1  0.58350000  0.32100000  0.80790000  1.0 -0.0425322607
C  C121  1  0.82100000  0.08350000  0.80790000  1.0 -0.0425322607
C  C122  1  0.17900000  0.91650000  0.80790000  1.0 -0.0425322607
C  C123  1  0.08350000  0.17900000  0.80790000  1.0 -0.0425322607
C  C124  1  0.91650000  0.82100000  0.80790000  1.0 -0.0425322607
C  C125  1  0.32100000  0.41650000  0.19210000  1.0 -0.0425322607
C  C126  1  0.67900000  0.58350000  0.19210000  1.0 -0.0425322607
C  C127  1  0.58350000  0.32100000  0.19210000  1.0 -0.0425322607
C  C128  1  0.41650000  0.67900000  0.19210000  1.0 -0.0425322607
C  C129  1  0.14060000  0.89280000  0.21210000  1.0 -0.1121000415
C  C130  1  0.85940000  0.10720000  0.21210000  1.0 -0.1121000415
C  C131  1  0.89280000  0.85940000  0.21210000  1.0 -0.1121000415
C  C132  1  0.10720000  0.14060000  0.21210000  1.0 -0.1121000415
C  C133  1  0.64060000  0.60720000  0.78790000  1.0 -0.1121000415
C  C134  1  0.35940000  0.39280000  0.78790000  1.0 -0.1121000415
C  C135  1  0.39280000  0.64060000  0.78790000  1.0 -0.1121000415
C  C136  1  0.60720000  0.35940000  0.78790000  1.0 -0.1121000415
C  C137  1  0.85940000  0.10720000  0.78790000  1.0 -0.1121000415
C  C138  1  0.14060000  0.89280000  0.78790000  1.0 -0.1121000415
C  C139  1  0.10720000  0.14060000  0.78790000  1.0 -0.1121000415
C  C140  1  0.89280000  0.85940000  0.78790000  1.0 -0.1121000415
C  C141  1  0.35940000  0.39280000  0.21210000  1.0 -0.1121000415
C  C142  1  0.64060000  0.60720000  0.21210000  1.0 -0.1121000415
C  C143  1  0.60720000  0.35940000  0.21210000  1.0 -0.1121000415
C  C144  1  0.39280000  0.64060000  0.21210000  1.0 -0.1121000415
C  C145  1  0.12520000  0.85130000  0.18970000  1.0 -0.011188631
C  C146  1  0.87480000  0.14870000  0.18970000  1.0 -0.011188631
C  C147  1  0.85130000  0.87480000  0.18970000  1.0 -0.011188631
C  C148  1  0.14870000  0.12520000  0.18970000  1.0 -0.011188631
C  C149  1  0.62520000  0.64870000  0.81030000  1.0 -0.011188631
C  C150  1  0.37480000  0.35130000  0.81030000  1.0 -0.011188631
C  C151  1  0.35130000  0.62520000  0.81030000  1.0 -0.011188631
C  C152  1  0.64870000  0.37480000  0.81030000  1.0 -0.011188631
C  C153  1  0.87480000  0.14870000  0.81030000  1.0 -0.011188631
C  C154  1  0.12520000  0.85130000  0.81030000  1.0 -0.011188631
C  C155  1  0.14870000  0.12520000  0.81030000  1.0 -0.011188631
C  C156  1  0.85130000  0.87480000  0.81030000  1.0 -0.011188631
C  C157  1  0.37480000  0.35130000  0.18970000  1.0 -0.011188631
C  C158  1  0.62520000  0.64870000  0.18970000  1.0 -0.011188631
C  C159  1  0.64870000  0.37480000  0.18970000  1.0 -0.011188631
C  C160  1  0.35130000  0.62520000  0.18970000  1.0 -0.011188631
C  C161  1  0.14760000  0.83360000  0.14890000  1.0 -0.1287503123
C  C162  1  0.85240000  0.16640000  0.14890000  1.0 -0.1287503123
C  C163  1  0.83360000  0.85240000  0.14890000  1.0 -0.1287503123
C  C164  1  0.16640000  0.14760000  0.14890000  1.0 -0.1287503123
C  C165  1  0.64760000  0.66640000  0.85110000  1.0 -0.1287503123
C  C166  1  0.35240000  0.33360000  0.85110000  1.0 -0.1287503123
C  C167  1  0.33360000  0.64760000  0.85110000  1.0 -0.1287503123
C  C168  1  0.66640000  0.35240000  0.85110000  1.0 -0.1287503123
C  C169  1  0.85240000  0.16640000  0.85110000  1.0 -0.1287503123
C  C170  1  0.14760000  0.83360000  0.85110000  1.0 -0.1287503123
C  C171  1  0.16640000  0.14760000  0.85110000  1.0 -0.1287503123
C  C172  1  0.83360000  0.85240000  0.85110000  1.0 -0.1201478828
C  C173  1  0.35240000  0.33360000  0.14890000  1.0 -0.1287503123
C  C174  1  0.64760000  0.66640000  0.14890000  1.0 -0.1287503123
C  C175  1  0.66640000  0.35240000  0.14890000  1.0 -0.1287503123
C  C176  1  0.33360000  0.64760000  0.14890000  1.0 -0.1287503123
C  C177  1  0.19710000  0.96000000  0.21420000  1.0 0.5863557565
C  C178  1  0.80290000  0.04000000  0.21420000  1.0 0.5863557565
C  C179  1  0.96000000  0.80290000  0.21420000  1.0 0.5863557565
C  C180  1  0.04000000  0.19710000  0.21420000  1.0 0.5863557565
C  C181  1  0.69710000  0.54000000  0.78580000  1.0 0.5863557565
C  C182  1  0.30290000  0.46000000  0.78580000  1.0 0.5863557565
C  C183  1  0.46000000  0.69710000  0.78580000  1.0 0.5863557565
C  C184  1  0.54000000  0.30290000  0.78580000  1.0 0.5863557565
C  C185  1  0.80290000  0.04000000  0.78580000  1.0 0.5863557565
C  C186  1  0.19710000  0.96000000  0.78580000  1.0 0.5863557565
C  C187  1  0.04000000  0.19710000  0.78580000  1.0 0.5863557565
C  C188  1  0.96000000  0.80290000  0.78580000  1.0 0.5863557565
C  C189  1  0.30290000  0.46000000  0.21420000  1.0 0.5863557565
C  C190  1  0.69710000  0.54000000  0.21420000  1.0 0.5863557565
C  C191  1  0.54000000  0.30290000  0.21420000  1.0 0.5863557565
C  C192  1  0.46000000  0.69710000  0.21420000  1.0 0.5863557565
C  C193  1  0.08580000  0.82420000  0.21510000  1.0 0.5863557565
C  C194  1  0.91420000  0.17580000  0.21510000  1.0 0.5863557565
C  C195  1  0.82420000  0.91420000  0.21510000  1.0 0.5863557565
C  C196  1  0.17580000  0.08580000  0.21510000  1.0 0.5863557565
C  C197  1  0.58580000  0.67580000  0.78490000  1.0 0.5863557565
C  C198  1  0.41420000  0.32420000  0.78490000  1.0 0.5863557565
C  C199  1  0.32420000  0.58580000  0.78490000  1.0 0.5863557565
C  C200  1  0.67580000  0.41420000  0.78490000  1.0 0.5863557565
C  C201  1  0.91420000  0.17580000  0.78490000  1.0 0.5863557565
C  C202  1  0.08580000  0.82420000  0.78490000  1.0 0.5863557565
C  C203  1  0.17580000  0.08580000  0.78490000  1.0 0.5863557565
C  C204  1  0.82420000  0.91420000  0.78490000  1.0 0.5863557565
C  C205  1  0.41420000  0.32420000  0.21510000  1.0 0.5863557565
C  C206  1  0.58580000  0.67580000  0.21510000  1.0 0.5863557565
C  C207  1  0.67580000  0.41420000  0.21510000  1.0 0.5863557565
C  C208  1  0.32420000  0.58580000  0.21510000  1.0 0.5863557565
C  C209  1  0.18980000  0.68980000  0.47590000  1.0 -0.1776919195
C  C210  1  0.81020000  0.31020000  0.47590000  1.0 -0.1776919195
C  C211  1  0.68980000  0.81020000  0.47590000  1.0 -0.1776919195
C  C212  1  0.31020000  0.18980000  0.47590000  1.0 -0.1776919195
C  C213  1  0.68980000  0.81020000  0.52410000  1.0 -0.1776919195
C  C214  1  0.31020000  0.18980000  0.52410000  1.0 -0.1776919195
C  C215  1  0.18980000  0.68980000  0.52410000  1.0 -0.1776919195
C  C216  1  0.81020000  0.31020000  0.52410000  1.0 -0.1776919195
C  C217  1  0.22420000  0.72420000  0.46000000  1.0 0.1795670423
C  C218  1  0.77580000  0.27580000  0.46000000  1.0 0.1795670423
C  C219  1  0.72420000  0.77580000  0.46000000  1.0 0.1795670423
C  C220  1  0.27580000  0.22420000  0.46000000  1.0 0.1795670423
C  C221  1  0.72420000  0.77580000  0.54000000  1.0 0.1795670423
C  C222  1  0.27580000  0.22420000  0.54000000  1.0 0.1795670423
C  C223  1  0.22420000  0.72420000  0.54000000  1.0 0.1795670423
C  C224  1  0.77580000  0.27580000  0.54000000  1.0 0.1795670423
C  C225  1  0.23500000  0.73500000  0.41170000  1.0 -0.0894633753
C  C226  1  0.76500000  0.26500000  0.41170000  1.0 -0.0894633753
C  C227  1  0.73500000  0.76500000  0.41170000  1.0 -0.0894633753
C  C228  1  0.26500000  0.23500000  0.41170000  1.0 -0.0894633753
C  C229  1  0.73500000  0.76500000  0.58830000  1.0 -0.0894633753
C  C230  1  0.26500000  0.23500000  0.58830000  1.0 -0.0894633753
C  C231  1  0.23500000  0.73500000  0.58830000  1.0 -0.0894633753
C  C232  1  0.76500000  0.26500000  0.58830000  1.0 -0.0894633753
C  C233  1  0.26720000  0.76720000  0.39740000  1.0 0.1565445266
C  C234  1  0.73280000  0.23280000  0.39740000  1.0 0.1565445266
C  C235  1  0.76720000  0.73280000  0.39740000  1.0 0.1565445266
C  C236  1  0.23280000  0.26720000  0.39740000  1.0 0.1565445266
C  C237  1  0.76720000  0.73280000  0.60260000  1.0 0.1565445266
C  C238  1  0.23280000  0.26720000  0.60260000  1.0 0.1565445266
C  C239  1  0.26720000  0.76720000  0.60260000  1.0 0.1565445266
C  C240  1  0.73280000  0.23280000  0.60260000  1.0 0.1565445266
C  C241  1  0.27660000  0.77660000  0.34730000  1.0 -0.1643086155
C  C242  1  0.72340000  0.22340000  0.34730000  1.0 -0.1643086155
C  C243  1  0.77660000  0.72340000  0.34730000  1.0 -0.1643086155
C  C244  1  0.22340000  0.27660000  0.34730000  1.0 -0.1643086155
C  C245  1  0.77660000  0.72340000  0.65270000  1.0 -0.1643086155
C  C246  1  0.22340000  0.27660000  0.65270000  1.0 -0.1643086155
C  C247  1  0.27660000  0.77660000  0.65270000  1.0 -0.1643086155
C  C248  1  0.72340000  0.22340000  0.65270000  1.0 -0.1643086155
C  C249  1  0.30760000  0.80760000  0.34670000  1.0 -0.1727028829
C  C250  1  0.69240000  0.19240000  0.34670000  1.0 -0.1727028829
C  C251  1  0.80760000  0.69240000  0.34670000  1.0 -0.1727028829
C  C252  1  0.19240000  0.30760000  0.34670000  1.0 -0.1727028829
C  C253  1  0.80760000  0.69240000  0.65330000  1.0 -0.1727028829
C  C254  1  0.19240000  0.30760000  0.65330000  1.0 -0.1727028829
C  C255  1  0.30760000  0.80760000  0.65330000  1.0 -0.1727028829
C  C256  1  0.69240000  0.19240000  0.65330000  1.0 -0.1727028829
C  C257  1  0.31650000  0.81650000  0.39700000  1.0 0.2095823022
C  C258  1  0.68350000  0.18350000  0.39700000  1.0 0.2095823022
C  C259  1  0.81650000  0.68350000  0.39700000  1.0 0.2095823022
C  C260  1  0.18350000  0.31650000  0.39700000  1.0 0.2095823022
C  C261  1  0.81650000  0.68350000  0.60300000  1.0 0.2095823022
C  C262  1  0.18350000  0.31650000  0.60300000  1.0 0.2095823022
C  C263  1  0.31650000  0.81650000  0.60300000  1.0 0.2095823022
C  C264  1  0.68350000  0.18350000  0.60300000  1.0 0.2095823022
C  C265  1  0.35180000  0.85180000  0.41210000  1.0 -0.0789228291
C  C266  1  0.64820000  0.14820000  0.41210000  1.0 -0.0789228291
C  C267  1  0.85180000  0.64820000  0.41210000  1.0 -0.0789228291
C  C268  1  0.14820000  0.35180000  0.41210000  1.0 -0.0789228291
C  C269  1  0.85180000  0.64820000  0.58790000  1.0 -0.0789228291
C  C270  1  0.14820000  0.35180000  0.58790000  1.0 -0.0789228291
C  C271  1  0.35180000  0.85180000  0.58790000  1.0 -0.0789228291
C  C272  1  0.64820000  0.14820000  0.58790000  1.0 -0.0789228291
C  C273  1  0.36110000  0.86110000  0.46460000  1.0 0.1926504201
C  C274  1  0.63890000  0.13890000  0.46460000  1.0 0.1926504201
C  C275  1  0.86110000  0.63890000  0.46460000  1.0 0.1926504201
C  C276  1  0.13890000  0.36110000  0.46460000  1.0 0.1926504201
C  C277  1  0.86110000  0.63890000  0.53540000  1.0 0.1926504201
C  C278  1  0.13890000  0.36110000  0.53540000  1.0 0.1926504201
C  C279  1  0.36110000  0.86110000  0.53540000  1.0 0.1926504201
C  C280  1  0.63890000  0.13890000  0.53540000  1.0 0.1926504201
C  C281  1  0.39610000  0.89610000  0.47560000  1.0 -0.1776919195
C  C282  1  0.60390000  0.10390000  0.47560000  1.0 -0.1776919195
C  C283  1  0.89610000  0.60390000  0.47560000  1.0 -0.1776919195
C  C284  1  0.10390000  0.39610000  0.47560000  1.0 -0.1776919195
C  C285  1  0.89610000  0.60390000  0.52440000  1.0 -0.1776919195
C  C286  1  0.10390000  0.39610000  0.52440000  1.0 -0.1776919195
C  C287  1  0.39610000  0.89610000  0.52440000  1.0 -0.1776919195
C  C288  1  0.60390000  0.10390000  0.52440000  1.0 -0.1776919195
C  C289  1  0.20820000  0.70820000  0.37260000  1.0 0.0967382598
C  C290  1  0.79180000  0.29180000  0.37260000  1.0 0.0967382598
C  C291  1  0.70820000  0.79180000  0.37260000  1.0 0.0967382598
C  C292  1  0.29180000  0.20820000  0.37260000  1.0 0.0967382598
C  C293  1  0.70820000  0.79180000  0.62740000  1.0 0.0967382598
C  C294  1  0.29180000  0.20820000  0.62740000  1.0 0.0967382598
C  C295  1  0.20820000  0.70820000  0.62740000  1.0 0.0967382598
C  C296  1  0.79180000  0.29180000  0.62740000  1.0 0.0967382598
C  C297  1  0.16670000  0.72820000  0.35130000  1.0 -0.1776919195
C  C298  1  0.83330000  0.27180000  0.35130000  1.0 -0.1776919195
C  C299  1  0.72820000  0.83330000  0.35130000  1.0 -0.1776919195
C  C300  1  0.27180000  0.16670000  0.35130000  1.0 -0.1776919195
C  C301  1  0.66666667  0.77180000  0.64870000  1.0 -0.1776919195
C  C302  1  0.33333333  0.22820000  0.64870000  1.0 -0.1776919195
C  C303  1  0.22820000  0.66666667  0.64870000  1.0 -0.1776919195
C  C304  1  0.77180000  0.33333333  0.64870000  1.0 -0.1776919195
C  C305  1  0.83330000  0.27180000  0.64870000  1.0 -0.1776919195
C  C306  1  0.16670000  0.72820000  0.64870000  1.0 -0.1776919195
C  C307  1  0.27180000  0.16670000  0.64870000  1.0 -0.1776919195
C  C308  1  0.72820000  0.83330000  0.64870000  1.0 -0.1776919195
C  C309  1  0.33333333  0.22820000  0.35130000  1.0 -0.1776919195
C  C310  1  0.66666667  0.77180000  0.35130000  1.0 -0.1776919195
C  C311  1  0.77180000  0.33333333  0.35130000  1.0 -0.1776919195
C  C312  1  0.22820000  0.66666667  0.35130000  1.0 -0.1776919195
C  C313  1  0.14530000  0.70460000  0.31090000  1.0 -0.011188631
C  C314  1  0.85470000  0.29540000  0.31090000  1.0 -0.011188631
C  C315  1  0.70460000  0.85470000  0.31090000  1.0 -0.011188631
C  C316  1  0.29540000  0.14530000  0.31090000  1.0 -0.011188631
C  C317  1  0.64530000  0.79540000  0.68910000  1.0 -0.011188631
C  C318  1  0.35470000  0.20460000  0.68910000  1.0 -0.011188631
C  C319  1  0.20460000  0.64530000  0.68910000  1.0 -0.011188631
C  C320  1  0.79540000  0.35470000  0.68910000  1.0 -0.011188631
C  C321  1  0.85470000  0.29540000  0.68910000  1.0 -0.011188631
C  C322  1  0.14530000  0.70460000  0.68910000  1.0 -0.011188631
C  C323  1  0.29540000  0.14530000  0.68910000  1.0 -0.011188631
C  C324  1  0.70460000  0.85470000  0.68910000  1.0 -0.011188631
C  C325  1  0.35470000  0.20460000  0.31090000  1.0 -0.011188631
C  C326  1  0.64530000  0.79540000  0.31090000  1.0 -0.011188631
C  C327  1  0.79540000  0.35470000  0.31090000  1.0 -0.011188631
C  C328  1  0.20460000  0.64530000  0.31090000  1.0 -0.011188631
C  C329  1  0.16640000  0.66640000  0.28750000  1.0 -0.1410958324
C  C330  1  0.83360000  0.33360000  0.28750000  1.0 -0.1410958324
C  C331  1  0.66640000  0.83360000  0.28750000  1.0 -0.1410958324
C  C332  1  0.33360000  0.16640000  0.28750000  1.0 -0.1410958324
C  C333  1  0.66640000  0.83360000  0.71250000  1.0 -0.1410958324
C  C334  1  0.33360000  0.16640000  0.71250000  1.0 -0.1410958324
C  C335  1  0.16640000  0.66640000  0.71250000  1.0 -0.1410958324
C  C336  1  0.83360000  0.33360000  0.71250000  1.0 -0.1410958324
C  C337  1  0.10240000  0.72600000  0.28760000  1.0 0.578489739
C  C338  1  0.89760000  0.27400000  0.28760000  1.0 0.578489739
C  C339  1  0.72600000  0.89760000  0.28760000  1.0 0.578489739
C  C340  1  0.27400000  0.10240000  0.28760000  1.0 0.578489739
C  C341  1  0.60240000  0.77400000  0.71240000  1.0 0.578489739
C  C342  1  0.39760000  0.22600000  0.71240000  1.0 0.578489739
C  C343  1  0.22600000  0.60240000  0.71240000  1.0 0.578489739
C  C344  1  0.77400000  0.39760000  0.71240000  1.0 0.578489739
C  C345  1  0.89760000  0.27400000  0.71240000  1.0 0.578489739
C  C346  1  0.10240000  0.72600000  0.71240000  1.0 0.578489739
C  C347  1  0.27400000  0.10240000  0.71240000  1.0 0.578489739
C  C348  1  0.72600000  0.89760000  0.71240000  1.0 0.578489739
C  C349  1  0.39760000  0.22600000  0.28760000  1.0 0.578489739
C  C350  1  0.60240000  0.77400000  0.28760000  1.0 0.578489739
C  C351  1  0.77400000  0.39760000  0.28760000  1.0 0.578489739
C  C352  1  0.22600000  0.60240000  0.28760000  1.0 0.578489739
C  C353  1  0.35560000  0.90360000  0.37440000  1.0 0.0049280114
C  C354  1  0.64440000  0.09640000  0.37440000  1.0 0.0049280114
C  C355  1  0.90360000  0.64440000  0.37440000  1.0 0.0049280114
C  C356  1  0.09640000  0.35560000  0.37440000  1.0 0.0049280114
C  C357  1  0.85560000  0.59640000  0.62560000  1.0 0.0049280114
C  C358  1  0.14440000  0.40360000  0.62560000  1.0 0.0049280114
C  C359  1  0.40360000  0.85560000  0.62560000  1.0 0.0049280114
C  C360  1  0.59640000  0.14440000  0.62560000  1.0 0.0049280114
C  C361  1  0.64440000  0.09640000  0.62560000  1.0 0.0049280114
C  C362  1  0.35560000  0.90360000  0.62560000  1.0 0.0049280114
C  C363  1  0.09640000  0.35560000  0.62560000  1.0 0.0049280114
C  C364  1  0.90360000  0.64440000  0.62560000  1.0 0.0049280114
C  C365  1  0.14440000  0.40360000  0.37440000  1.0 0.0049280114
C  C366  1  0.85560000  0.59640000  0.37440000  1.0 0.0049280114
C  C367  1  0.59640000  0.14440000  0.37440000  1.0 0.0049280114
C  C368  1  0.40360000  0.85560000  0.37440000  1.0 0.0049280114
C  C369  1  0.40180000  0.90180000  0.35870000  1.0 0.0129287134
C  C370  1  0.59820000  0.09820000  0.35870000  1.0 0.0129287134
C  C371  1  0.90180000  0.59820000  0.35870000  1.0 0.0129287134
C  C372  1  0.09820000  0.40180000  0.35870000  1.0 0.0129287134
C  C373  1  0.90180000  0.59820000  0.64130000  1.0 0.0129287134
C  C374  1  0.09820000  0.40180000  0.64130000  1.0 0.0129287134
C  C375  1  0.40180000  0.90180000  0.64130000  1.0 0.0129287134
C  C376  1  0.59820000  0.09820000  0.64130000  1.0 0.0129287134
C  C377  1  0.43230000  0.93230000  0.31340000  1.0 0.1148608062
C  C378  1  0.56770000  0.06770000  0.31340000  1.0 0.1148608062
C  C379  1  0.93230000  0.56770000  0.31340000  1.0 0.1148608062
C  C380  1  0.06770000  0.43230000  0.31340000  1.0 0.1148608062
C  C381  1  0.93230000  0.56770000  0.68660000  1.0 0.1148608062
C  C382  1  0.06770000  0.43230000  0.68660000  1.0 0.1148608062
C  C383  1  0.43230000  0.93230000  0.68660000  1.0 0.1148608062
C  C384  1  0.56770000  0.06770000  0.68660000  1.0 0.1148608062
C  C385  1  0.38710000  0.96610000  0.30370000  1.0 -0.2060029593
C  C386  1  0.61290000  0.03390000  0.30370000  1.0 -0.2048661751
C  C387  1  0.96610000  0.61290000  0.30370000  1.0 -0.2048661751
C  C388  1  0.03390000  0.38710000  0.30370000  1.0 -0.2060029593
C  C389  1  0.88710000  0.53390000  0.69630000  1.0 -0.2048661751
C  C390  1  0.11290000  0.46610000  0.69630000  1.0 -0.2060029593
C  C391  1  0.46610000  0.88710000  0.69630000  1.0 -0.2060029593
C  C392  1  0.53390000  0.11290000  0.69630000  1.0 -0.2060029593
C  C393  1  0.61290000  0.03390000  0.69630000  1.0 -0.2060029593
C  C394  1  0.38710000  0.96610000  0.69630000  1.0 -0.2060029593
C  C395  1  0.03390000  0.38710000  0.69630000  1.0 -0.2060029593
C  C396  1  0.96610000  0.61290000  0.69630000  1.0 -0.2048661751
C  C397  1  0.11290000  0.46610000  0.30370000  1.0 -0.2060029593
C  C398  1  0.88710000  0.53390000  0.30370000  1.0 -0.2048661751
C  C399  1  0.53390000  0.11290000  0.30370000  1.0 -0.2048661751
C  C400  1  0.46610000  0.88710000  0.30370000  1.0 -0.2060029593
C  C401  1  0.33080000  0.95520000  0.31370000  1.0 -0.060893741
C  C402  1  0.66920000  0.04480000  0.31370000  1.0 -0.060893741
C  C403  1  0.95520000  0.66920000  0.31370000  1.0 -0.060893741
C  C404  1  0.04480000  0.33080000  0.31370000  1.0 -0.060893741
C  C405  1  0.83080000  0.54480000  0.68630000  1.0 -0.060893741
C  C406  1  0.16920000  0.45520000  0.68630000  1.0 -0.060893741
C  C407  1  0.45520000  0.83080000  0.68630000  1.0 -0.060893741
C  C408  1  0.54480000  0.16920000  0.68630000  1.0 -0.060893741
C  C409  1  0.66920000  0.04480000  0.68630000  1.0 -0.060893741
C  C410  1  0.33080000  0.95520000  0.68630000  1.0 -0.060893741
C  C411  1  0.04480000  0.33080000  0.68630000  1.0 -0.060893741
C  C412  1  0.95520000  0.66920000  0.68630000  1.0 -0.060893741
C  C413  1  0.16920000  0.45520000  0.31370000  1.0 -0.060893741
C  C414  1  0.83080000  0.54480000  0.31370000  1.0 -0.060893741
C  C415  1  0.54480000  0.16920000  0.31370000  1.0 -0.060893741
C  C416  1  0.45520000  0.83080000  0.31370000  1.0 -0.060893741
C  C417  1  0.32170000  0.92850000  0.35210000  1.0 -0.1201478828
C  C418  1  0.67830000  0.07150000  0.35210000  1.0 -0.1201478828
C  C419  1  0.92850000  0.67830000  0.35210000  1.0 -0.1201478828
C  C420  1  0.07150000  0.32170000  0.35210000  1.0 -0.1201478828
C  C421  1  0.82170000  0.57150000  0.64790000  1.0 -0.1201478828
C  C422  1  0.17830000  0.42850000  0.64790000  1.0 -0.1201478828
C  C423  1  0.42850000  0.82170000  0.64790000  1.0 -0.1201478828
C  C424  1  0.57150000  0.17830000  0.64790000  1.0 -0.1201478828
C  C425  1  0.67830000  0.07150000  0.64790000  1.0 -0.1201478828
C  C426  1  0.32170000  0.92850000  0.64790000  1.0 -0.1201478828
C  C427  1  0.07150000  0.32170000  0.64790000  1.0 -0.1201478828
C  C428  1  0.92850000  0.67830000  0.64790000  1.0 -0.1201478828
C  C429  1  0.17830000  0.42850000  0.35210000  1.0 -0.1201478828
C  C430  1  0.82170000  0.57150000  0.35210000  1.0 -0.1201478828
C  C431  1  0.57150000  0.17830000  0.35210000  1.0 -0.1201478828
C  C432  1  0.42850000  0.82170000  0.35210000  1.0 -0.1201478828
C  C433  1  0.29570000  0.98230000  0.29000000  1.0 0.5651984247
C  C434  1  0.70430000  0.01770000  0.29000000  1.0 0.5651984247
C  C435  1  0.98230000  0.70430000  0.29000000  1.0 0.5651984247
C  C436  1  0.01770000  0.29570000  0.29000000  1.0 0.5651984247
C  C437  1  0.79570000  0.51770000  0.71000000  1.0 0.5651984247
C  C438  1  0.20430000  0.48230000  0.71000000  1.0 0.5651984247
C  C439  1  0.48230000  0.79570000  0.71000000  1.0 0.5651984247
C  C440  1  0.51770000  0.20430000  0.71000000  1.0 0.5651984247
C  C441  1  0.70430000  0.01770000  0.71000000  1.0 0.5651984247
C  C442  1  0.29570000  0.98230000  0.71000000  1.0 0.5651984247
C  C443  1  0.01770000  0.29570000  0.71000000  1.0 0.5651984247
C  C444  1  0.98230000  0.70430000  0.71000000  1.0 0.5651984247
C  C445  1  0.20430000  0.48230000  0.29000000  1.0 0.5651984247
C  C446  1  0.79570000  0.51770000  0.29000000  1.0 0.5651984247
C  C447  1  0.51770000  0.20430000  0.29000000  1.0 0.5651984247
C  C448  1  0.48230000  0.79570000  0.29000000  1.0 0.5651984247
N  N1  1  0.27470000  0.77470000  0.07200000  1.0 -0.2741628753
N  N2  1  0.72530000  0.22530000  0.07200000  1.0 -0.2741628753
N  N3  1  0.77470000  0.72530000  0.07200000  1.0 -0.2741628753
N  N4  1  0.22530000  0.27470000  0.07200000  1.0 -0.2741628753
N  N5  1  0.77470000  0.72530000  0.92800000  1.0 -0.2741628753
N  N6  1  0.22530000  0.27470000  0.92800000  1.0 -0.2741628753
N  N7  1  0.27470000  0.77470000  0.92800000  1.0 -0.2741628753
N  N8  1  0.72530000  0.22530000  0.92800000  1.0 -0.2741628753
N  N9  1  0.22540000  0.82260000  0.00000000  1.0 -0.2849651244
N  N10  1  0.77460000  0.17740000  0.00000000  1.0 -0.2849651244
N  N11  1  0.82260000  0.77460000  0.00000000  1.0 -0.2849651244
N  N12  1  0.17740000  0.22540000  0.00000000  1.0 -0.2849651244
N  N13  1  0.72540000  0.67740000  0.00000000  1.0 -0.2849651244
N  N14  1  0.27460000  0.32260000  0.00000000  1.0 -0.2849651244
N  N15  1  0.32260000  0.72540000  0.00000000  1.0 -0.2849651244
N  N16  1  0.67740000  0.27460000  0.00000000  1.0 -0.2849651244
N  N17  1  0.24450000  0.74450000  0.50000000  1.0 -0.2741628753
N  N18  1  0.75550000  0.25550000  0.50000000  1.0 -0.2741628753
N  N19  1  0.74450000  0.75550000  0.50000000  1.0 -0.2741628753
N  N20  1  0.25550000  0.24450000  0.50000000  1.0 -0.2741628753
N  N21  1  0.29330000  0.79330000  0.42920000  1.0 -0.2640347746
N  N22  1  0.70670000  0.20670000  0.42920000  1.0 -0.2640347746
N  N23  1  0.79330000  0.70670000  0.42920000  1.0 -0.2640347746
N  N24  1  0.20670000  0.29330000  0.42920000  1.0 -0.2640347746
N  N25  1  0.79330000  0.70670000  0.57080000  1.0 -0.2640347746
N  N26  1  0.20670000  0.29330000  0.57080000  1.0 -0.2640347746
N  N27  1  0.29330000  0.79330000  0.57080000  1.0 -0.2640347746
N  N28  1  0.70670000  0.20670000  0.57080000  1.0 -0.2640347746
N  N29  1  0.34040000  0.84040000  0.50000000  1.0 -0.2377336738
N  N30  1  0.65960000  0.15960000  0.50000000  1.0 -0.2377336738
N  N31  1  0.84040000  0.65960000  0.50000000  1.0 -0.2377336738
N  N32  1  0.15960000  0.34040000  0.50000000  1.0 -0.2377336738
O  O1  1  0.23110000  0.97843000  0.19330000  1.0 -0.5179963116
O  O2  1  0.76890000  0.02157000  0.19330000  1.0 -0.5179963116
O  O3  1  0.97843000  0.76890000  0.19330000  1.0 -0.5179963116
O  O4  1  0.02157000  0.23110000  0.19330000  1.0 -0.5179963116
O  O5  1  0.73110000  0.52157000  0.80670000  1.0 -0.5179963116
O  O6  1  0.26890000  0.47843000  0.80670000  1.0 -0.5179963116
O  O7  1  0.47843000  0.73110000  0.80670000  1.0 -0.5179963116
O  O8  1  0.52157000  0.26890000  0.80670000  1.0 -0.5179963116
O  O9  1  0.76890000  0.02157000  0.80670000  1.0 -0.5179963116
O  O10  1  0.23110000  0.97843000  0.80670000  1.0 -0.5179963116
O  O11  1  0.02157000  0.23110000  0.80670000  1.0 -0.5179963116
O  O12  1  0.97843000  0.76890000  0.80670000  1.0 -0.5179963116
O  O13  1  0.26890000  0.47843000  0.19330000  1.0 -0.5179963116
O  O14  1  0.73110000  0.52157000  0.19330000  1.0 -0.5179963116
O  O15  1  0.52157000  0.26890000  0.19330000  1.0 -0.5179963116
O  O16  1  0.47843000  0.73110000  0.19330000  1.0 -0.5179963116
O  O17  1  0.17992000  0.97396000  0.25420000  1.0 -0.5085482565
O  O18  1  0.82008000  0.02604000  0.25420000  1.0 -0.5085482565
O  O19  1  0.97396000  0.82008000  0.25420000  1.0 -0.5085482565
O  O20  1  0.02604000  0.17992000  0.25420000  1.0 -0.5085482565
O  O21  1  0.67992000  0.52604000  0.74580000  1.0 -0.5085482565
O  O22  1  0.32008000  0.47396000  0.74580000  1.0 -0.5085482565
O  O23  1  0.47396000  0.67992000  0.74580000  1.0 -0.5085482565
O  O24  1  0.52604000  0.32008000  0.74580000  1.0 -0.5085482565
O  O25  1  0.82008000  0.02604000  0.74580000  1.0 -0.5085482565
O  O26  1  0.17992000  0.97396000  0.74580000  1.0 -0.5085482565
O  O27  1  0.02604000  0.17992000  0.74580000  1.0 -0.5085482565
O  O28  1  0.97396000  0.82008000  0.74580000  1.0 -0.5085482565
O  O29  1  0.32008000  0.47396000  0.25420000  1.0 -0.5085482565
O  O30  1  0.67992000  0.52604000  0.25420000  1.0 -0.5085482565
O  O31  1  0.52604000  0.32008000  0.25420000  1.0 -0.5085482565
O  O32  1  0.47396000  0.67992000  0.25420000  1.0 -0.5085482565
O  O33  1  0.06963000  0.83583000  0.25600000  1.0 -0.4845732567
O  O34  1  0.93037000  0.16417000  0.25600000  1.0 -0.4845732567
O  O35  1  0.83583000  0.93037000  0.25600000  1.0 -0.4845732567
O  O36  1  0.16417000  0.06963000  0.25600000  1.0 -0.4845732567
O  O37  1  0.56963000  0.66417000  0.74400000  1.0 -0.4845732567
O  O38  1  0.43037000  0.33583000  0.74400000  1.0 -0.4845732567
O  O39  1  0.33583000  0.56963000  0.74400000  1.0 -0.4845732567
O  O40  1  0.66417000  0.43037000  0.74400000  1.0 -0.4845732567
O  O41  1  0.93037000  0.16417000  0.74400000  1.0 -0.4845732567
O  O42  1  0.06963000  0.83583000  0.74400000  1.0 -0.4845732567
O  O43  1  0.16417000  0.06963000  0.74400000  1.0 -0.4845732567
O  O44  1  0.83583000  0.93037000  0.74400000  1.0 -0.4845732567
O  O45  1  0.43037000  0.33583000  0.25600000  1.0 -0.4845732567
O  O46  1  0.56963000  0.66417000  0.25600000  1.0 -0.4845732567
O  O47  1  0.66417000  0.43037000  0.25600000  1.0 -0.4845732567
O  O48  1  0.33583000  0.56963000  0.25600000  1.0 -0.4845732567
O  O49  1  0.07350000  0.78700000  0.18980000  1.0 -0.5496331272
O  O50  1  0.92650000  0.21300000  0.18980000  1.0 -0.5496331272
O  O51  1  0.78700000  0.92650000  0.18980000  1.0 -0.5496331272
O  O52  1  0.21300000  0.07350000  0.18980000  1.0 -0.5496331272
O  O53  1  0.57350000  0.71300000  0.81020000  1.0 -0.5496331272
O  O54  1  0.42650000  0.28700000  0.81020000  1.0 -0.5496331272
O  O55  1  0.28700000  0.57350000  0.81020000  1.0 -0.5496331272
O  O56  1  0.71300000  0.42650000  0.81020000  1.0 -0.5496331272
O  O57  1  0.92650000  0.21300000  0.81020000  1.0 -0.5496331272
O  O58  1  0.07350000  0.78700000  0.81020000  1.0 -0.5496331272
O  O59  1  0.21300000  0.07350000  0.81020000  1.0 -0.5496331272
O  O60  1  0.78700000  0.92650000  0.81020000  1.0 -0.5496331272
O  O61  1  0.42650000  0.28700000  0.18980000  1.0 -0.5496331272
O  O62  1  0.57350000  0.71300000  0.18980000  1.0 -0.5496331272
O  O63  1  0.71300000  0.42650000  0.18980000  1.0 -0.5496331272
O  O64  1  0.28700000  0.57350000  0.18980000  1.0 -0.5496331272
O  O65  1  0.08990000  0.71240000  0.24490000  1.0 -0.5179963116
O  O66  1  0.91010000  0.28760000  0.24490000  1.0 -0.5179963116
O  O67  1  0.71240000  0.91010000  0.24490000  1.0 -0.5179963116
O  O68  1  0.28760000  0.08990000  0.24490000  1.0 -0.5179963116
O  O69  1  0.58990000  0.78760000  0.75510000  1.0 -0.5179963116
O  O70  1  0.41010000  0.21240000  0.75510000  1.0 -0.5179963116
O  O71  1  0.21240000  0.58990000  0.75510000  1.0 -0.5179963116
O  O72  1  0.78760000  0.41010000  0.75510000  1.0 -0.5179963116
O  O73  1  0.91010000  0.28760000  0.75510000  1.0 -0.5179963116
O  O74  1  0.08990000  0.71240000  0.75510000  1.0 -0.5179963116
O  O75  1  0.28760000  0.08990000  0.75510000  1.0 -0.5179963116
O  O76  1  0.71240000  0.91010000  0.75510000  1.0 -0.5179963116
O  O77  1  0.41010000  0.21240000  0.24490000  1.0 -0.5179963116
O  O78  1  0.58990000  0.78760000  0.24490000  1.0 -0.5179963116
O  O79  1  0.78760000  0.41010000  0.24490000  1.0 -0.5179963116
O  O80  1  0.21240000  0.58990000  0.24490000  1.0 -0.5179963116
O  O81  1  0.08360000  0.75990000  0.31220000  1.0 -0.5496331272
O  O82  1  0.91640000  0.24010000  0.31220000  1.0 -0.5496331272
O  O83  1  0.75990000  0.91640000  0.31220000  1.0 -0.5496331272
O  O84  1  0.24010000  0.08360000  0.31220000  1.0 -0.5496331272
O  O85  1  0.58360000  0.74010000  0.68780000  1.0 -0.5496331272
O  O86  1  0.41640000  0.25990000  0.68780000  1.0 -0.5496331272
O  O87  1  0.25990000  0.58360000  0.68780000  1.0 -0.5496331272
O  O88  1  0.74010000  0.41640000  0.68780000  1.0 -0.5496331272
O  O89  1  0.91640000  0.24010000  0.68780000  1.0 -0.5496331272
O  O90  1  0.08360000  0.75990000  0.68780000  1.0 -0.5496331272
O  O91  1  0.24010000  0.08360000  0.68780000  1.0 -0.5496331272
O  O92  1  0.75990000  0.91640000  0.68780000  1.0 -0.5496331272
O  O93  1  0.41640000  0.25990000  0.31220000  1.0 -0.5496331272
O  O94  1  0.58360000  0.74010000  0.31220000  1.0 -0.5496331272
O  O95  1  0.74010000  0.41640000  0.31220000  1.0 -0.5496331272
O  O96  1  0.25990000  0.58360000  0.31220000  1.0 -0.5496331272
O  O97  1  0.30370000  0.99860000  0.24930000  1.0 -0.4187441436
O  O98  1  0.69630000  0.00140000  0.24930000  1.0 -0.4187441436
O  O99  1  0.99860000  0.69630000  0.24930000  1.0 -0.4187441436
O  O100  1  0.00140000  0.30370000  0.24930000  1.0 -0.4187441436
O  O101  1  0.80370000  0.50140000  0.75070000  1.0 -0.4187441436
O  O102  1  0.19630000  0.49860000  0.75070000  1.0 -0.4187441436
O  O103  1  0.49860000  0.80370000  0.75070000  1.0 -0.4187441436
O  O104  1  0.50140000  0.19630000  0.75070000  1.0 -0.4187441436
O  O105  1  0.69630000  0.00140000  0.75070000  1.0 -0.4187441436
O  O106  1  0.30370000  0.99860000  0.75070000  1.0 -0.4187441436
O  O107  1  0.00140000  0.30370000  0.75070000  1.0 -0.4187441436
O  O108  1  0.99860000  0.69630000  0.75070000  1.0 -0.4187441436
O  O109  1  0.19630000  0.49860000  0.24930000  1.0 -0.4187441436
O  O110  1  0.80370000  0.50140000  0.24930000  1.0 -0.4187441436
O  O111  1  0.50140000  0.19630000  0.24930000  1.0 -0.4187441436
O  O112  1  0.49860000  0.80370000  0.24930000  1.0 -0.4187441436
O  O113  1  0.25590000  0.98830000  0.31550000  1.0 -0.5702751321
O  O114  1  0.74410000  0.01170000  0.31550000  1.0 -0.5702751321
O  O115  1  0.98830000  0.74410000  0.31550000  1.0 -0.5702751321
O  O116  1  0.01170000  0.25590000  0.31550000  1.0 -0.5702751321
O  O117  1  0.75590000  0.51170000  0.68450000  1.0 -0.5702751321
O  O118  1  0.24410000  0.48830000  0.68450000  1.0 -0.5702751321
O  O119  1  0.48830000  0.75590000  0.68450000  1.0 -0.5702751321
O  O120  1  0.51170000  0.24410000  0.68450000  1.0 -0.5702751321
O  O121  1  0.74410000  0.01170000  0.68450000  1.0 -0.5702751321
O  O122  1  0.25590000  0.98830000  0.68450000  1.0 -0.5702751321
O  O123  1  0.01170000  0.25590000  0.68450000  1.0 -0.5702751321
O  O124  1  0.98830000  0.74410000  0.68450000  1.0 -0.5702751321
O  O125  1  0.24410000  0.48830000  0.31550000  1.0 -0.5702751321
O  O126  1  0.75590000  0.51170000  0.31550000  1.0 -0.5702751321
O  O127  1  0.51170000  0.24410000  0.31550000  1.0 -0.5702751321
O  O128  1  0.48830000  0.75590000  0.31550000  1.0 -0.5702751321
