# DDEC6 charges by PACMAN v1.1 (https://github.com/mtap-research/PACMAN-charge/)
data_KIYXUN_ASR_pacman
_symmetry_space_group_name_H-M   'P 1'
_cell_length_a   22.50530000
_cell_length_b   22.50530000
_cell_length_c   36.44400000
_cell_angle_alpha   90.00000000
_cell_angle_beta   90.00000000
_cell_angle_gamma   120.00000000
_symmetry_Int_Tables_number   1
_chemical_formula_structural   MnCu8H20C52(N2O9)2
_chemical_formula_sum   'Mn6 Cu48 H120 C312 N24 O108'
_cell_volume   15985.50213168
_cell_formula_units_Z   6
loop_
 _symmetry_equiv_pos_site_id
 _symmetry_equiv_pos_as_xyz
  1  'x, y, z'
loop_
 _atom_site_type_symbol
 _atom_site_label
 _atom_site_symmetry_multiplicity
 _atom_site_fract_x
 _atom_site_fract_y
 _atom_site_fract_z
 _atom_site_occupancy
 _atom_site_charge
Mn  Mn1  1  0.50000000  0.00000000  0.00000000  1.0 0.8398887338
Mn  Mn2  1  0.00000000  0.50000000  0.00000000  1.0 0.8398887338
Mn  Mn3  1  0.50000000  0.50000000  0.00000000  1.0 0.8398887338
Mn  Mn4  1  0.50000000  0.00000000  0.50000000  1.0 0.8398887338
Mn  Mn5  1  0.00000000  0.50000000  0.50000000  1.0 0.8398887338
Mn  Mn6  1  0.50000000  0.50000000  0.50000000  1.0 0.8398887338
Cu  Cu1  1  0.00000000  0.57961000  0.08451000  1.0 0.8835517223
Cu  Cu2  1  0.42039000  0.42039000  0.08451000  1.0 0.8835517223
Cu  Cu3  1  0.57961000  0.00000000  0.08451000  1.0 0.8835517223
Cu  Cu4  1  0.00000000  0.42039000  0.58451000  1.0 0.8835517223
Cu  Cu5  1  0.57961000  0.57961000  0.58451000  1.0 0.8860733233
Cu  Cu6  1  0.42039000  0.00000000  0.58451000  1.0 0.8835517223
Cu  Cu7  1  0.57961000  0.00000000  0.41549000  1.0 0.8835517223
Cu  Cu8  1  0.42039000  0.42039000  0.41549000  1.0 0.8835517223
Cu  Cu9  1  0.00000000  0.57961000  0.41549000  1.0 0.8835517223
Cu  Cu10  1  0.42039000  0.00000000  0.91549000  1.0 0.8860733233
Cu  Cu11  1  0.57961000  0.57961000  0.91549000  1.0 0.8860733233
Cu  Cu12  1  0.00000000  0.42039000  0.91549000  1.0 0.8835517223
Cu  Cu13  1  0.24419000  0.72968000  0.25000000  1.0 0.9085280679
Cu  Cu14  1  0.27032000  0.51451000  0.25000000  1.0 0.9085280679
Cu  Cu15  1  0.48549000  0.75581000  0.25000000  1.0 0.9085280679
Cu  Cu16  1  0.75581000  0.27032000  0.75000000  1.0 0.9085280679
Cu  Cu17  1  0.72968000  0.48549000  0.75000000  1.0 0.9085280679
Cu  Cu18  1  0.51451000  0.24419000  0.75000000  1.0 0.9085280679
Cu  Cu19  1  0.72968000  0.24419000  0.25000000  1.0 0.9040249906
Cu  Cu20  1  0.51451000  0.27032000  0.25000000  1.0 0.9085280679
Cu  Cu21  1  0.75581000  0.48549000  0.25000000  1.0 0.9085280679
Cu  Cu22  1  0.27032000  0.75581000  0.75000000  1.0 0.9040249906
Cu  Cu23  1  0.48549000  0.72968000  0.75000000  1.0 0.9085280679
Cu  Cu24  1  0.24419000  0.51451000  0.75000000  1.0 0.9085280679
Cu  Cu25  1  0.04755000  0.68325000  0.01345000  1.0 0.4571644834
Cu  Cu26  1  0.31675000  0.36430000  0.01345000  1.0 0.4571644834
Cu  Cu27  1  0.63570000  0.95245000  0.01345000  1.0 0.4571644834
Cu  Cu28  1  0.95245000  0.31675000  0.51345000  1.0 0.4571644834
Cu  Cu29  1  0.68325000  0.63570000  0.51345000  1.0 0.4571644834
Cu  Cu30  1  0.36430000  0.04755000  0.51345000  1.0 0.4571644834
Cu  Cu31  1  0.68325000  0.04755000  0.48655000  1.0 0.4571644834
Cu  Cu32  1  0.36430000  0.31675000  0.48655000  1.0 0.4571644834
Cu  Cu33  1  0.95245000  0.63570000  0.48655000  1.0 0.4571644834
Cu  Cu34  1  0.31675000  0.95245000  0.98655000  1.0 0.4571644834
Cu  Cu35  1  0.63570000  0.68325000  0.98655000  1.0 0.4571644834
Cu  Cu36  1  0.04755000  0.36430000  0.98655000  1.0 0.4571644834
Cu  Cu37  1  0.95245000  0.31675000  0.98655000  1.0 0.4571644834
Cu  Cu38  1  0.68325000  0.63570000  0.98655000  1.0 0.4571644834
Cu  Cu39  1  0.36430000  0.04755000  0.98655000  1.0 0.4571644834
Cu  Cu40  1  0.04755000  0.68325000  0.48655000  1.0 0.4571644834
Cu  Cu41  1  0.31675000  0.36430000  0.48655000  1.0 0.4571644834
Cu  Cu42  1  0.63570000  0.95245000  0.48655000  1.0 0.4571644834
Cu  Cu43  1  0.31675000  0.95245000  0.51345000  1.0 0.4571644834
Cu  Cu44  1  0.63570000  0.68325000  0.51345000  1.0 0.4571644834
Cu  Cu45  1  0.04755000  0.36430000  0.51345000  1.0 0.4571644834
Cu  Cu46  1  0.68325000  0.04755000  0.01345000  1.0 0.4571644834
Cu  Cu47  1  0.36430000  0.31675000  0.01345000  1.0 0.4571644834
Cu  Cu48  1  0.95245000  0.63570000  0.01345000  1.0 0.4571644834
H  H1  1  0.34620000  0.93710000  0.11280000  1.0 0.1188947806
H  H2  1  0.06290000  0.40910000  0.11280000  1.0 0.1188947806
H  H3  1  0.59090000  0.65380000  0.11280000  1.0 0.1188947806
H  H4  1  0.65380000  0.06290000  0.61280000  1.0 0.1188947806
H  H5  1  0.93710000  0.59090000  0.61280000  1.0 0.1188947806
H  H6  1  0.40910000  0.34620000  0.61280000  1.0 0.1188947806
H  H7  1  0.93710000  0.34620000  0.38720000  1.0 0.1188947806
H  H8  1  0.40910000  0.06290000  0.38720000  1.0 0.1188947806
H  H9  1  0.65380000  0.59090000  0.38720000  1.0 0.1188947806
H  H10  1  0.06290000  0.65380000  0.88720000  1.0 0.1188947806
H  H11  1  0.59090000  0.93710000  0.88720000  1.0 0.1188947806
H  H12  1  0.34620000  0.40910000  0.88720000  1.0 0.1188947806
H  H13  1  0.65380000  0.06290000  0.88720000  1.0 0.1188947806
H  H14  1  0.93710000  0.59090000  0.88720000  1.0 0.1188947806
H  H15  1  0.40910000  0.34620000  0.88720000  1.0 0.1188947806
H  H16  1  0.34620000  0.93710000  0.38720000  1.0 0.1188947806
H  H17  1  0.06290000  0.40910000  0.38720000  1.0 0.1188947806
H  H18  1  0.59090000  0.65380000  0.38720000  1.0 0.1188947806
H  H19  1  0.06290000  0.65380000  0.61280000  1.0 0.1188947806
H  H20  1  0.59090000  0.93710000  0.61280000  1.0 0.1188947806
H  H21  1  0.34620000  0.40910000  0.61280000  1.0 0.1188947806
H  H22  1  0.93710000  0.34620000  0.11280000  1.0 0.1188947806
H  H23  1  0.40910000  0.06290000  0.11280000  1.0 0.1188947806
H  H24  1  0.65380000  0.59090000  0.11280000  1.0 0.1188947806
H  H25  1  0.34570000  0.74620000  0.02880000  1.0 0.1144141564
H  H26  1  0.25380000  0.59950000  0.02880000  1.0 0.1144141564
H  H27  1  0.40050000  0.65430000  0.02880000  1.0 0.1144141564
H  H28  1  0.65430000  0.25380000  0.52880000  1.0 0.1144141564
H  H29  1  0.74620000  0.40050000  0.52880000  1.0 0.1144141564
H  H30  1  0.59950000  0.34570000  0.52880000  1.0 0.1144141564
H  H31  1  0.74620000  0.34570000  0.47120000  1.0 0.1144141564
H  H32  1  0.59950000  0.25380000  0.47120000  1.0 0.1144141564
H  H33  1  0.65430000  0.40050000  0.47120000  1.0 0.1144141564
H  H34  1  0.25380000  0.65430000  0.97120000  1.0 0.1144141564
H  H35  1  0.40050000  0.74620000  0.97120000  1.0 0.1144141564
H  H36  1  0.34570000  0.59950000  0.97120000  1.0 0.1144141564
H  H37  1  0.65430000  0.25380000  0.97120000  1.0 0.1144141564
H  H38  1  0.74620000  0.40050000  0.97120000  1.0 0.1144141564
H  H39  1  0.59950000  0.34570000  0.97120000  1.0 0.1144141564
H  H40  1  0.34570000  0.74620000  0.47120000  1.0 0.1144141564
H  H41  1  0.25380000  0.59950000  0.47120000  1.0 0.1144141564
H  H42  1  0.40050000  0.65430000  0.47120000  1.0 0.1144141564
H  H43  1  0.25380000  0.65430000  0.52880000  1.0 0.1144141564
H  H44  1  0.40050000  0.74620000  0.52880000  1.0 0.1144141564
H  H45  1  0.34570000  0.59950000  0.52880000  1.0 0.1144141564
H  H46  1  0.74620000  0.34570000  0.02880000  1.0 0.1144141564
H  H47  1  0.59950000  0.25380000  0.02880000  1.0 0.1144141564
H  H48  1  0.65430000  0.40050000  0.02880000  1.0 0.1144141564
H  H49  1  0.38010000  0.83920000  0.12610000  1.0 0.1188947806
H  H50  1  0.16080000  0.54090000  0.12610000  1.0 0.1188947806
H  H51  1  0.45910000  0.61990000  0.12610000  1.0 0.1188947806
H  H52  1  0.61990000  0.16080000  0.62610000  1.0 0.1188947806
H  H53  1  0.83920000  0.45910000  0.62610000  1.0 0.1188947806
H  H54  1  0.54090000  0.38010000  0.62610000  1.0 0.1188947806
H  H55  1  0.83920000  0.38010000  0.37390000  1.0 0.1188947806
H  H56  1  0.54090000  0.16080000  0.37390000  1.0 0.1188947806
H  H57  1  0.61990000  0.45910000  0.37390000  1.0 0.1188947806
H  H58  1  0.16080000  0.61990000  0.87390000  1.0 0.1188947806
H  H59  1  0.45910000  0.83920000  0.87390000  1.0 0.1188947806
H  H60  1  0.38010000  0.54090000  0.87390000  1.0 0.1188947806
H  H61  1  0.61990000  0.16080000  0.87390000  1.0 0.1188947806
H  H62  1  0.83920000  0.45910000  0.87390000  1.0 0.1188947806
H  H63  1  0.54090000  0.38010000  0.87390000  1.0 0.1188947806
H  H64  1  0.38010000  0.83920000  0.37390000  1.0 0.1188947806
H  H65  1  0.16080000  0.54090000  0.37390000  1.0 0.1188947806
H  H66  1  0.45910000  0.61990000  0.37390000  1.0 0.1188947806
H  H67  1  0.16080000  0.61990000  0.62610000  1.0 0.1188947806
H  H68  1  0.45910000  0.83920000  0.62610000  1.0 0.1188947806
H  H69  1  0.38010000  0.54090000  0.62610000  1.0 0.1188947806
H  H70  1  0.83920000  0.38010000  0.12610000  1.0 0.1188947806
H  H71  1  0.54090000  0.16080000  0.12610000  1.0 0.1188947806
H  H72  1  0.61990000  0.45910000  0.12610000  1.0 0.1188947806
H  H73  1  0.18660000  0.68540000  0.13620000  1.0 0.1256888978
H  H74  1  0.31460000  0.50120000  0.13620000  1.0 0.1256888978
H  H75  1  0.49880000  0.81340000  0.13620000  1.0 0.1256888978
H  H76  1  0.81340000  0.31460000  0.63620000  1.0 0.1256888978
H  H77  1  0.68540000  0.49880000  0.63620000  1.0 0.1256888978
H  H78  1  0.50120000  0.18660000  0.63620000  1.0 0.1256888978
H  H79  1  0.68540000  0.18660000  0.36380000  1.0 0.1256888978
H  H80  1  0.50120000  0.31460000  0.36380000  1.0 0.1256888978
H  H81  1  0.81340000  0.49880000  0.36380000  1.0 0.1256888978
H  H82  1  0.31460000  0.81340000  0.86380000  1.0 0.1256888978
H  H83  1  0.49880000  0.68540000  0.86380000  1.0 0.1256888978
H  H84  1  0.18660000  0.50120000  0.86380000  1.0 0.1256888978
H  H85  1  0.81340000  0.31460000  0.86380000  1.0 0.1256888978
H  H86  1  0.68540000  0.49880000  0.86380000  1.0 0.1256888978
H  H87  1  0.50120000  0.18660000  0.86380000  1.0 0.1256888978
H  H88  1  0.18660000  0.68540000  0.36380000  1.0 0.1256888978
H  H89  1  0.31460000  0.50120000  0.36380000  1.0 0.1256888978
H  H90  1  0.49880000  0.81340000  0.36380000  1.0 0.1256888978
H  H91  1  0.31460000  0.81340000  0.63620000  1.0 0.1256888978
H  H92  1  0.49880000  0.68540000  0.63620000  1.0 0.1256888978
H  H93  1  0.18660000  0.50120000  0.63620000  1.0 0.1256888978
H  H94  1  0.68540000  0.18660000  0.13620000  1.0 0.1256888978
H  H95  1  0.50120000  0.31460000  0.13620000  1.0 0.1256888978
H  H96  1  0.81340000  0.49880000  0.13620000  1.0 0.1256888978
H  H97  1  0.25250000  0.78230000  0.04020000  1.0 0.1188947806
H  H98  1  0.21770000  0.47020000  0.04020000  1.0 0.1188947806
H  H99  1  0.52980000  0.74750000  0.04020000  1.0 0.1188947806
H  H100  1  0.74750000  0.21770000  0.54020000  1.0 0.1188947806
H  H101  1  0.78230000  0.52980000  0.54020000  1.0 0.1188947806
H  H102  1  0.47020000  0.25250000  0.54020000  1.0 0.1188947806
H  H103  1  0.78230000  0.25250000  0.45980000  1.0 0.1188947806
H  H104  1  0.47020000  0.21770000  0.45980000  1.0 0.1188947806
H  H105  1  0.74750000  0.52980000  0.45980000  1.0 0.1188947806
H  H106  1  0.21770000  0.74750000  0.95980000  1.0 0.1188947806
H  H107  1  0.52980000  0.78230000  0.95980000  1.0 0.1188947806
H  H108  1  0.25250000  0.47020000  0.95980000  1.0 0.1188947806
H  H109  1  0.74750000  0.21770000  0.95980000  1.0 0.1188947806
H  H110  1  0.78230000  0.52980000  0.95980000  1.0 0.1188947806
H  H111  1  0.47020000  0.25250000  0.95980000  1.0 0.1188947806
H  H112  1  0.25250000  0.78230000  0.45980000  1.0 0.1188947806
H  H113  1  0.21770000  0.47020000  0.45980000  1.0 0.1188947806
H  H114  1  0.52980000  0.74750000  0.45980000  1.0 0.1188947806
H  H115  1  0.21770000  0.74750000  0.54020000  1.0 0.1188947806
H  H116  1  0.52980000  0.78230000  0.54020000  1.0 0.1188947806
H  H117  1  0.25250000  0.47020000  0.54020000  1.0 0.1188947806
H  H118  1  0.78230000  0.25250000  0.04020000  1.0 0.1188947806
H  H119  1  0.47020000  0.21770000  0.04020000  1.0 0.1188947806
H  H120  1  0.74750000  0.52980000  0.04020000  1.0 0.1188947806
C  C1  1  0.38010000  0.96520000  0.09623000  1.0 -0.1725721983
C  C2  1  0.03480000  0.41490000  0.09623000  1.0 -0.1725721983
C  C3  1  0.58510000  0.61990000  0.09623000  1.0 -0.1725721983
C  C4  1  0.61990000  0.03480000  0.59623000  1.0 -0.1725721983
C  C5  1  0.96520000  0.58510000  0.59623000  1.0 -0.1725721983
C  C6  1  0.41490000  0.38010000  0.59623000  1.0 -0.1725721983
C  C7  1  0.96520000  0.38010000  0.40377000  1.0 -0.1725721983
C  C8  1  0.41490000  0.03480000  0.40377000  1.0 -0.1725721983
C  C9  1  0.61990000  0.58510000  0.40377000  1.0 -0.1725721983
C  C10  1  0.03480000  0.61990000  0.90377000  1.0 -0.1725721983
C  C11  1  0.58510000  0.96520000  0.90377000  1.0 -0.1725721983
C  C12  1  0.38010000  0.41490000  0.90377000  1.0 -0.1725721983
C  C13  1  0.61990000  0.03480000  0.90377000  1.0 -0.1725721983
C  C14  1  0.96520000  0.58510000  0.90377000  1.0 -0.1725721983
C  C15  1  0.41490000  0.38010000  0.90377000  1.0 -0.1725721983
C  C16  1  0.38010000  0.96520000  0.40377000  1.0 -0.1725721983
C  C17  1  0.03480000  0.41490000  0.40377000  1.0 -0.1725721983
C  C18  1  0.58510000  0.61990000  0.40377000  1.0 -0.1725721983
C  C19  1  0.03480000  0.61990000  0.59623000  1.0 -0.1725721983
C  C20  1  0.58510000  0.96520000  0.59623000  1.0 -0.1725721983
C  C21  1  0.38010000  0.41490000  0.59623000  1.0 -0.1725721983
C  C22  1  0.96520000  0.38010000  0.09623000  1.0 -0.1725721983
C  C23  1  0.41490000  0.03480000  0.09623000  1.0 -0.1725721983
C  C24  1  0.61990000  0.58510000  0.09623000  1.0 -0.1725721983
C  C25  1  0.40480000  0.94320000  0.06644000  1.0 0.1569741043
C  C26  1  0.05680000  0.46160000  0.06644000  1.0 0.1569741043
C  C27  1  0.53840000  0.59520000  0.06644000  1.0 0.1569741043
C  C28  1  0.59520000  0.05680000  0.56644000  1.0 0.1569741043
C  C29  1  0.94320000  0.53840000  0.56644000  1.0 0.1569741043
C  C30  1  0.46160000  0.40480000  0.56644000  1.0 0.1569741043
C  C31  1  0.94320000  0.40480000  0.43356000  1.0 0.1569741043
C  C32  1  0.46160000  0.05680000  0.43356000  1.0 0.1569741043
C  C33  1  0.59520000  0.53840000  0.43356000  1.0 0.1569741043
C  C34  1  0.05680000  0.59520000  0.93356000  1.0 0.1569741043
C  C35  1  0.53840000  0.94320000  0.93356000  1.0 0.1569741043
C  C36  1  0.40480000  0.46160000  0.93356000  1.0 0.1569741043
C  C37  1  0.59520000  0.05680000  0.93356000  1.0 0.1569741043
C  C38  1  0.94320000  0.53840000  0.93356000  1.0 0.1569741043
C  C39  1  0.46160000  0.40480000  0.93356000  1.0 0.1569741043
C  C40  1  0.40480000  0.94320000  0.43356000  1.0 0.1569741043
C  C41  1  0.05680000  0.46160000  0.43356000  1.0 0.1569741043
C  C42  1  0.53840000  0.59520000  0.43356000  1.0 0.1569741043
C  C43  1  0.05680000  0.59520000  0.56644000  1.0 0.1569741043
C  C44  1  0.53840000  0.94320000  0.56644000  1.0 0.1569741043
C  C45  1  0.40480000  0.46160000  0.56644000  1.0 0.1569741043
C  C46  1  0.94320000  0.40480000  0.06644000  1.0 0.1569741043
C  C47  1  0.46160000  0.05680000  0.06644000  1.0 0.1569741043
C  C48  1  0.59520000  0.53840000  0.06644000  1.0 0.1569741043
C  C49  1  0.38000000  0.87530000  0.05640000  1.0 -0.0770500853
C  C50  1  0.12470000  0.50470000  0.05640000  1.0 -0.0770500853
C  C51  1  0.49530000  0.62000000  0.05640000  1.0 -0.0770500853
C  C52  1  0.62000000  0.12470000  0.55640000  1.0 -0.0770500853
C  C53  1  0.87530000  0.49530000  0.55640000  1.0 -0.0770500853
C  C54  1  0.50470000  0.38000000  0.55640000  1.0 -0.0770500853
C  C55  1  0.87530000  0.38000000  0.44360000  1.0 -0.0770500853
C  C56  1  0.50470000  0.12470000  0.44360000  1.0 -0.0770500853
C  C57  1  0.62000000  0.49530000  0.44360000  1.0 -0.0770500853
C  C58  1  0.12470000  0.62000000  0.94360000  1.0 -0.0770500853
C  C59  1  0.49530000  0.87530000  0.94360000  1.0 -0.0770500853
C  C60  1  0.38000000  0.50470000  0.94360000  1.0 -0.0770500853
C  C61  1  0.62000000  0.12470000  0.94360000  1.0 -0.0770500853
C  C62  1  0.87530000  0.49530000  0.94360000  1.0 -0.0770500853
C  C63  1  0.50470000  0.38000000  0.94360000  1.0 -0.0770500853
C  C64  1  0.38000000  0.87530000  0.44360000  1.0 -0.0770500853
C  C65  1  0.12470000  0.50470000  0.44360000  1.0 -0.0770500853
C  C66  1  0.49530000  0.62000000  0.44360000  1.0 -0.0770500853
C  C67  1  0.12470000  0.62000000  0.55640000  1.0 -0.0770500853
C  C68  1  0.49530000  0.87530000  0.55640000  1.0 -0.0770500853
C  C69  1  0.38000000  0.50470000  0.55640000  1.0 -0.0770500853
C  C70  1  0.87530000  0.38000000  0.05640000  1.0 -0.0770500853
C  C71  1  0.50470000  0.12470000  0.05640000  1.0 -0.0770500853
C  C72  1  0.62000000  0.49530000  0.05640000  1.0 -0.0770500853
C  C73  1  0.40180000  0.85480000  0.02558000  1.0 0.1816252343
C  C74  1  0.14520000  0.54700000  0.02558000  1.0 0.1816252343
C  C75  1  0.45300000  0.59820000  0.02558000  1.0 0.1816252343
C  C76  1  0.59820000  0.14520000  0.52558000  1.0 0.1816252343
C  C77  1  0.85480000  0.45300000  0.52558000  1.0 0.1816252343
C  C78  1  0.54700000  0.40180000  0.52558000  1.0 0.1816252343
C  C79  1  0.85480000  0.40180000  0.47442000  1.0 0.1816252343
C  C80  1  0.54700000  0.14520000  0.47442000  1.0 0.1816252343
C  C81  1  0.59820000  0.45300000  0.47442000  1.0 0.1816252343
C  C82  1  0.14520000  0.59820000  0.97442000  1.0 0.1816252343
C  C83  1  0.45300000  0.85480000  0.97442000  1.0 0.1816252343
C  C84  1  0.40180000  0.54700000  0.97442000  1.0 0.1816252343
C  C85  1  0.59820000  0.14520000  0.97442000  1.0 0.1816252343
C  C86  1  0.85480000  0.45300000  0.97442000  1.0 0.1816252343
C  C87  1  0.54700000  0.40180000  0.97442000  1.0 0.1816252343
C  C88  1  0.40180000  0.85480000  0.47442000  1.0 0.1816252343
C  C89  1  0.14520000  0.54700000  0.47442000  1.0 0.1816252343
C  C90  1  0.45300000  0.59820000  0.47442000  1.0 0.1816252343
C  C91  1  0.14520000  0.59820000  0.52558000  1.0 0.1816252343
C  C92  1  0.45300000  0.85480000  0.52558000  1.0 0.1816252343
C  C93  1  0.40180000  0.54700000  0.52558000  1.0 0.1816252343
C  C94  1  0.85480000  0.40180000  0.02558000  1.0 0.1816252343
C  C95  1  0.54700000  0.14520000  0.02558000  1.0 0.1816252343
C  C96  1  0.59820000  0.45300000  0.02558000  1.0 0.1816252343
C  C97  1  0.37710000  0.78470000  0.01569000  1.0 -0.1766988315
C  C98  1  0.21530000  0.59240000  0.01569000  1.0 -0.1766988315
C  C99  1  0.40760000  0.62290000  0.01569000  1.0 -0.1766988315
C  C100  1  0.62290000  0.21530000  0.51569000  1.0 -0.1766988315
C  C101  1  0.78470000  0.40760000  0.51569000  1.0 -0.1766988315
C  C102  1  0.59240000  0.37710000  0.51569000  1.0 -0.1766988315
C  C103  1  0.78470000  0.37710000  0.48431000  1.0 -0.1766988315
C  C104  1  0.59240000  0.21530000  0.48431000  1.0 -0.1766988315
C  C105  1  0.62290000  0.40760000  0.48431000  1.0 -0.1766988315
C  C106  1  0.21530000  0.62290000  0.98431000  1.0 -0.1766988315
C  C107  1  0.40760000  0.78470000  0.98431000  1.0 -0.1766988315
C  C108  1  0.37710000  0.59240000  0.98431000  1.0 -0.1766988315
C  C109  1  0.62290000  0.21530000  0.98431000  1.0 -0.1766988315
C  C110  1  0.78470000  0.40760000  0.98431000  1.0 -0.1766988315
C  C111  1  0.59240000  0.37710000  0.98431000  1.0 -0.1766988315
C  C112  1  0.37710000  0.78470000  0.48431000  1.0 -0.1766988315
C  C113  1  0.21530000  0.59240000  0.48431000  1.0 -0.1766988315
C  C114  1  0.40760000  0.62290000  0.48431000  1.0 -0.1766988315
C  C115  1  0.21530000  0.62290000  0.51569000  1.0 -0.1766988315
C  C116  1  0.40760000  0.78470000  0.51569000  1.0 -0.1766988315
C  C117  1  0.37710000  0.59240000  0.51569000  1.0 -0.1766988315
C  C118  1  0.78470000  0.37710000  0.01569000  1.0 -0.1766988315
C  C119  1  0.59240000  0.21530000  0.01569000  1.0 -0.1766988315
C  C120  1  0.62290000  0.40760000  0.01569000  1.0 -0.1766988315
C  C121  1  0.32510000  0.82060000  0.07969000  1.0 0.0668663814
C  C122  1  0.17940000  0.50450000  0.07969000  1.0 0.0668663814
C  C123  1  0.49550000  0.67490000  0.07969000  1.0 0.0668663814
C  C124  1  0.67490000  0.17940000  0.57969000  1.0 0.0668663814
C  C125  1  0.82060000  0.49550000  0.57969000  1.0 0.0668663814
C  C126  1  0.50450000  0.32510000  0.57969000  1.0 0.0668663814
C  C127  1  0.82060000  0.32510000  0.42031000  1.0 0.0668663814
C  C128  1  0.50450000  0.17940000  0.42031000  1.0 0.0668663814
C  C129  1  0.67490000  0.49550000  0.42031000  1.0 0.0668663814
C  C130  1  0.17940000  0.67490000  0.92031000  1.0 0.0668663814
C  C131  1  0.49550000  0.82060000  0.92031000  1.0 0.0668663814
C  C132  1  0.32510000  0.50450000  0.92031000  1.0 0.0668663814
C  C133  1  0.67490000  0.17940000  0.92031000  1.0 0.0668663814
C  C134  1  0.82060000  0.49550000  0.92031000  1.0 0.0668663814
C  C135  1  0.50450000  0.32510000  0.92031000  1.0 0.0668663814
C  C136  1  0.32510000  0.82060000  0.42031000  1.0 0.0668663814
C  C137  1  0.17940000  0.50450000  0.42031000  1.0 0.0668663814
C  C138  1  0.49550000  0.67490000  0.42031000  1.0 0.0668663814
C  C139  1  0.17940000  0.67490000  0.57969000  1.0 0.0668663814
C  C140  1  0.49550000  0.82060000  0.57969000  1.0 0.0668663814
C  C141  1  0.32510000  0.50450000  0.57969000  1.0 0.0668663814
C  C142  1  0.82060000  0.32510000  0.07969000  1.0 0.0668663814
C  C143  1  0.50450000  0.17940000  0.07969000  1.0 0.0668663814
C  C144  1  0.67490000  0.49550000  0.07969000  1.0 0.0668663814
C  C145  1  0.33680000  0.81180000  0.11598000  1.0 -0.135168739
C  C146  1  0.18820000  0.52500000  0.11598000  1.0 -0.135168739
C  C147  1  0.47500000  0.66320000  0.11598000  1.0 -0.135168739
C  C148  1  0.66320000  0.18820000  0.61598000  1.0 -0.135168739
C  C149  1  0.81180000  0.47500000  0.61598000  1.0 -0.135168739
C  C150  1  0.52500000  0.33680000  0.61598000  1.0 -0.135168739
C  C151  1  0.81180000  0.33680000  0.38402000  1.0 -0.135168739
C  C152  1  0.52500000  0.18820000  0.38402000  1.0 -0.135168739
C  C153  1  0.66320000  0.47500000  0.38402000  1.0 -0.135168739
C  C154  1  0.18820000  0.66320000  0.88402000  1.0 -0.135168739
C  C155  1  0.47500000  0.81180000  0.88402000  1.0 -0.135168739
C  C156  1  0.33680000  0.52500000  0.88402000  1.0 -0.135168739
C  C157  1  0.66320000  0.18820000  0.88402000  1.0 -0.135168739
C  C158  1  0.81180000  0.47500000  0.88402000  1.0 -0.135168739
C  C159  1  0.52500000  0.33680000  0.88402000  1.0 -0.135168739
C  C160  1  0.33680000  0.81180000  0.38402000  1.0 -0.135168739
C  C161  1  0.18820000  0.52500000  0.38402000  1.0 -0.135168739
C  C162  1  0.47500000  0.66320000  0.38402000  1.0 -0.135168739
C  C163  1  0.18820000  0.66320000  0.61598000  1.0 -0.135168739
C  C164  1  0.47500000  0.81180000  0.61598000  1.0 -0.135168739
C  C165  1  0.33680000  0.52500000  0.61598000  1.0 -0.135168739
C  C166  1  0.81180000  0.33680000  0.11598000  1.0 -0.135168739
C  C167  1  0.52500000  0.18820000  0.11598000  1.0 -0.135168739
C  C168  1  0.66320000  0.47500000  0.11598000  1.0 -0.135168739
C  C169  1  0.28480000  0.76250000  0.13745000  1.0 -0.0120817347
C  C170  1  0.23750000  0.52230000  0.13745000  1.0 -0.0120817347
C  C171  1  0.47770000  0.71520000  0.13745000  1.0 -0.0120817347
C  C172  1  0.71520000  0.23750000  0.63745000  1.0 -0.0120817347
C  C173  1  0.76250000  0.47770000  0.63745000  1.0 -0.0120817347
C  C174  1  0.52230000  0.28480000  0.63745000  1.0 -0.0120817347
C  C175  1  0.76250000  0.28480000  0.36255000  1.0 -0.0120817347
C  C176  1  0.52230000  0.23750000  0.36255000  1.0 -0.0120817347
C  C177  1  0.71520000  0.47770000  0.36255000  1.0 -0.0120817347
C  C178  1  0.23750000  0.71520000  0.86255000  1.0 -0.0120817347
C  C179  1  0.47770000  0.76250000  0.86255000  1.0 -0.0120817347
C  C180  1  0.28480000  0.52230000  0.86255000  1.0 -0.0120817347
C  C181  1  0.71520000  0.23750000  0.86255000  1.0 -0.0120817347
C  C182  1  0.76250000  0.47770000  0.86255000  1.0 -0.0120817347
C  C183  1  0.52230000  0.28480000  0.86255000  1.0 -0.0120817347
C  C184  1  0.28480000  0.76250000  0.36255000  1.0 -0.0120817347
C  C185  1  0.23750000  0.52230000  0.36255000  1.0 -0.0120817347
C  C186  1  0.47770000  0.71520000  0.36255000  1.0 -0.0120817347
C  C187  1  0.23750000  0.71520000  0.63745000  1.0 -0.0120817347
C  C188  1  0.47770000  0.76250000  0.63745000  1.0 -0.0120817347
C  C189  1  0.28480000  0.52230000  0.63745000  1.0 -0.0120817347
C  C190  1  0.76250000  0.28480000  0.13745000  1.0 -0.0120817347
C  C191  1  0.52230000  0.23750000  0.13745000  1.0 -0.0120817347
C  C192  1  0.71520000  0.47770000  0.13745000  1.0 -0.0120817347
C  C193  1  0.22130000  0.71910000  0.12191000  1.0 -0.1074971274
C  C194  1  0.28090000  0.50220000  0.12191000  1.0 -0.1074971274
C  C195  1  0.49780000  0.77870000  0.12191000  1.0 -0.1074971274
C  C196  1  0.77870000  0.28090000  0.62191000  1.0 -0.1074971274
C  C197  1  0.71910000  0.49780000  0.62191000  1.0 -0.1074971274
C  C198  1  0.50220000  0.22130000  0.62191000  1.0 -0.1074971274
C  C199  1  0.71910000  0.22130000  0.37809000  1.0 -0.1074971274
C  C200  1  0.50220000  0.28090000  0.37809000  1.0 -0.1074971274
C  C201  1  0.77870000  0.49780000  0.37809000  1.0 -0.1074971274
C  C202  1  0.28090000  0.77870000  0.87809000  1.0 -0.1074971274
C  C203  1  0.49780000  0.71910000  0.87809000  1.0 -0.1074971274
C  C204  1  0.22130000  0.50220000  0.87809000  1.0 -0.1074971274
C  C205  1  0.77870000  0.28090000  0.87809000  1.0 -0.1074971274
C  C206  1  0.71910000  0.49780000  0.87809000  1.0 -0.1074971274
C  C207  1  0.50220000  0.22130000  0.87809000  1.0 -0.1074971274
C  C208  1  0.22130000  0.71910000  0.37809000  1.0 -0.1074971274
C  C209  1  0.28090000  0.50220000  0.37809000  1.0 -0.1074971274
C  C210  1  0.49780000  0.77870000  0.37809000  1.0 -0.1074971274
C  C211  1  0.28090000  0.77870000  0.62191000  1.0 -0.1074971274
C  C212  1  0.49780000  0.71910000  0.62191000  1.0 -0.1074971274
C  C213  1  0.22130000  0.50220000  0.62191000  1.0 -0.1074971274
C  C214  1  0.71910000  0.22130000  0.12191000  1.0 -0.1074971274
C  C215  1  0.50220000  0.28090000  0.12191000  1.0 -0.1074971274
C  C216  1  0.77870000  0.49780000  0.12191000  1.0 -0.1074971274
C  C217  1  0.20910000  0.72560000  0.08536000  1.0 -0.0226705525
C  C218  1  0.27440000  0.48350000  0.08536000  1.0 -0.0226705525
C  C219  1  0.51650000  0.79090000  0.08536000  1.0 -0.0226705525
C  C220  1  0.79090000  0.27440000  0.58536000  1.0 -0.0226705525
C  C221  1  0.72560000  0.51650000  0.58536000  1.0 -0.0226705525
C  C222  1  0.48350000  0.20910000  0.58536000  1.0 -0.0226705525
C  C223  1  0.72560000  0.20910000  0.41464000  1.0 -0.0226705525
C  C224  1  0.48350000  0.27440000  0.41464000  1.0 -0.0226705525
C  C225  1  0.79090000  0.51650000  0.41464000  1.0 -0.0226705525
C  C226  1  0.27440000  0.79090000  0.91464000  1.0 -0.0226705525
C  C227  1  0.51650000  0.72560000  0.91464000  1.0 -0.0226705525
C  C228  1  0.20910000  0.48350000  0.91464000  1.0 -0.0226705525
C  C229  1  0.79090000  0.27440000  0.91464000  1.0 -0.0226705525
C  C230  1  0.72560000  0.51650000  0.91464000  1.0 -0.0226705525
C  C231  1  0.48350000  0.20910000  0.91464000  1.0 -0.0226705525
C  C232  1  0.20910000  0.72560000  0.41464000  1.0 -0.0226705525
C  C233  1  0.27440000  0.48350000  0.41464000  1.0 -0.0226705525
C  C234  1  0.51650000  0.79090000  0.41464000  1.0 -0.0226705525
C  C235  1  0.27440000  0.79090000  0.58536000  1.0 -0.0226705525
C  C236  1  0.51650000  0.72560000  0.58536000  1.0 -0.0226705525
C  C237  1  0.20910000  0.48350000  0.58536000  1.0 -0.0226705525
C  C238  1  0.72560000  0.20910000  0.08536000  1.0 -0.0226705525
C  C239  1  0.48350000  0.27440000  0.08536000  1.0 -0.0226705525
C  C240  1  0.79090000  0.51650000  0.08536000  1.0 -0.0226705525
C  C241  1  0.26080000  0.77690000  0.06458000  1.0 -0.1589657344
C  C242  1  0.22310000  0.48390000  0.06458000  1.0 -0.1589657344
C  C243  1  0.51610000  0.73920000  0.06458000  1.0 -0.1589657344
C  C244  1  0.73920000  0.22310000  0.56458000  1.0 -0.1589657344
C  C245  1  0.77690000  0.51610000  0.56458000  1.0 -0.1589657344
C  C246  1  0.48390000  0.26080000  0.56458000  1.0 -0.1589657344
C  C247  1  0.77690000  0.26080000  0.43542000  1.0 -0.1589657344
C  C248  1  0.48390000  0.22310000  0.43542000  1.0 -0.1589657344
C  C249  1  0.73920000  0.51610000  0.43542000  1.0 -0.1589657344
C  C250  1  0.22310000  0.73920000  0.93542000  1.0 -0.1589657344
C  C251  1  0.51610000  0.77690000  0.93542000  1.0 -0.1589657344
C  C252  1  0.26080000  0.48390000  0.93542000  1.0 -0.1589657344
C  C253  1  0.73920000  0.22310000  0.93542000  1.0 -0.1589657344
C  C254  1  0.77690000  0.51610000  0.93542000  1.0 -0.1589657344
C  C255  1  0.48390000  0.26080000  0.93542000  1.0 -0.1589657344
C  C256  1  0.26080000  0.77690000  0.43542000  1.0 -0.1589657344
C  C257  1  0.22310000  0.48390000  0.43542000  1.0 -0.1589657344
C  C258  1  0.51610000  0.73920000  0.43542000  1.0 -0.1589657344
C  C259  1  0.22310000  0.73920000  0.56458000  1.0 -0.1589657344
C  C260  1  0.51610000  0.77690000  0.56458000  1.0 -0.1589657344
C  C261  1  0.26080000  0.48390000  0.56458000  1.0 -0.1589657344
C  C262  1  0.77690000  0.26080000  0.06458000  1.0 -0.1589657344
C  C263  1  0.48390000  0.22310000  0.06458000  1.0 -0.1589657344
C  C264  1  0.73920000  0.51610000  0.06458000  1.0 -0.1589657344
C  C265  1  0.29560000  0.75800000  0.17777000  1.0 0.5578668214
C  C266  1  0.24200000  0.53760000  0.17777000  1.0 0.5578668214
C  C267  1  0.46240000  0.70440000  0.17777000  1.0 0.5578668214
C  C268  1  0.70440000  0.24200000  0.67777000  1.0 0.5578668214
C  C269  1  0.75800000  0.46240000  0.67777000  1.0 0.5578668214
C  C270  1  0.53760000  0.29560000  0.67777000  1.0 0.5578668214
C  C271  1  0.75800000  0.29560000  0.32223000  1.0 0.5578668214
C  C272  1  0.53760000  0.24200000  0.32223000  1.0 0.5578668214
C  C273  1  0.70440000  0.46240000  0.32223000  1.0 0.5578668214
C  C274  1  0.24200000  0.70440000  0.82223000  1.0 0.5578668214
C  C275  1  0.46240000  0.75800000  0.82223000  1.0 0.5578668214
C  C276  1  0.29560000  0.53760000  0.82223000  1.0 0.5578668214
C  C277  1  0.70440000  0.24200000  0.82223000  1.0 0.5578668214
C  C278  1  0.75800000  0.46240000  0.82223000  1.0 0.5578668214
C  C279  1  0.53760000  0.29560000  0.82223000  1.0 0.5578668214
C  C280  1  0.29560000  0.75800000  0.32223000  1.0 0.5578668214
C  C281  1  0.24200000  0.53760000  0.32223000  1.0 0.5578668214
C  C282  1  0.46240000  0.70440000  0.32223000  1.0 0.5578668214
C  C283  1  0.24200000  0.70440000  0.67777000  1.0 0.5578668214
C  C284  1  0.46240000  0.75800000  0.67777000  1.0 0.5578668214
C  C285  1  0.29560000  0.53760000  0.67777000  1.0 0.5578668214
C  C286  1  0.75800000  0.29560000  0.17777000  1.0 0.5578668214
C  C287  1  0.53760000  0.24200000  0.17777000  1.0 0.5578668214
C  C288  1  0.70440000  0.46240000  0.17777000  1.0 0.5578668214
C  C289  1  0.13940000  0.68010000  0.06877000  1.0 0.5722756333
C  C290  1  0.31990000  0.45930000  0.06877000  1.0 0.5722756333
C  C291  1  0.54070000  0.86060000  0.06877000  1.0 0.5722756333
C  C292  1  0.86060000  0.31990000  0.56877000  1.0 0.5722756333
C  C293  1  0.68010000  0.54070000  0.56877000  1.0 0.5722756333
C  C294  1  0.45930000  0.13940000  0.56877000  1.0 0.5722756333
C  C295  1  0.68010000  0.13940000  0.43123000  1.0 0.5722756333
C  C296  1  0.45930000  0.31990000  0.43123000  1.0 0.5722756333
C  C297  1  0.86060000  0.54070000  0.43123000  1.0 0.5722756333
C  C298  1  0.31990000  0.86060000  0.93123000  1.0 0.5722756333
C  C299  1  0.54070000  0.68010000  0.93123000  1.0 0.5722756333
C  C300  1  0.13940000  0.45930000  0.93123000  1.0 0.5722756333
C  C301  1  0.86060000  0.31990000  0.93123000  1.0 0.5722756333
C  C302  1  0.68010000  0.54070000  0.93123000  1.0 0.5722756333
C  C303  1  0.45930000  0.13940000  0.93123000  1.0 0.5722756333
C  C304  1  0.13940000  0.68010000  0.43123000  1.0 0.5722756333
C  C305  1  0.31990000  0.45930000  0.43123000  1.0 0.5722756333
C  C306  1  0.54070000  0.86060000  0.43123000  1.0 0.5722756333
C  C307  1  0.31990000  0.86060000  0.56877000  1.0 0.5722756333
C  C308  1  0.54070000  0.68010000  0.56877000  1.0 0.5722756333
C  C309  1  0.13940000  0.45930000  0.56877000  1.0 0.5722756333
C  C310  1  0.68010000  0.13940000  0.06877000  1.0 0.5722756333
C  C311  1  0.45930000  0.31990000  0.06877000  1.0 0.5722756333
C  C312  1  0.86060000  0.54070000  0.06877000  1.0 0.5722756333
N  N1  1  0.45520000  0.00000000  0.04807000  1.0 -0.3757914482
N  N2  1  0.00000000  0.45520000  0.04807000  1.0 -0.3757914482
N  N3  1  0.54480000  0.54480000  0.04807000  1.0 -0.3757914482
N  N4  1  0.54480000  0.00000000  0.54807000  1.0 -0.3757914482
N  N5  1  0.00000000  0.54480000  0.54807000  1.0 -0.3757914482
N  N6  1  0.45520000  0.45520000  0.54807000  1.0 -0.3757914482
N  N7  1  0.00000000  0.45520000  0.45193000  1.0 -0.3757914482
N  N8  1  0.45520000  0.00000000  0.45193000  1.0 -0.3757914482
N  N9  1  0.54480000  0.54480000  0.45193000  1.0 -0.3757914482
N  N10  1  0.00000000  0.54480000  0.95193000  1.0 -0.3757914482
N  N11  1  0.54480000  0.00000000  0.95193000  1.0 -0.3757914482
N  N12  1  0.45520000  0.45520000  0.95193000  1.0 -0.3757914482
N  N13  1  0.44830000  0.89660000  0.00000000  1.0 -0.3159073396
N  N14  1  0.10340000  0.55170000  0.00000000  1.0 -0.3159073396
N  N15  1  0.44830000  0.55170000  0.00000000  1.0 -0.3159073396
N  N16  1  0.55170000  0.10340000  0.50000000  1.0 -0.3159073396
N  N17  1  0.89660000  0.44830000  0.50000000  1.0 -0.3159073396
N  N18  1  0.55170000  0.44830000  0.50000000  1.0 -0.3159073396
N  N19  1  0.55170000  0.10340000  0.00000000  1.0 -0.3159073396
N  N20  1  0.89660000  0.44830000  0.00000000  1.0 -0.3159073396
N  N21  1  0.55170000  0.44830000  0.00000000  1.0 -0.3159073396
N  N22  1  0.44830000  0.89660000  0.50000000  1.0 -0.3159073396
N  N23  1  0.10340000  0.55170000  0.50000000  1.0 -0.3159073396
N  N24  1  0.44830000  0.55170000  0.50000000  1.0 -0.3159073396
O  O1  1  0.35480000  0.78620000  0.18991000  1.0 -0.5058301325
O  O2  1  0.21380000  0.56860000  0.18991000  1.0 -0.5058301325
O  O3  1  0.43140000  0.64520000  0.18991000  1.0 -0.5016702362
O  O4  1  0.64520000  0.21380000  0.68991000  1.0 -0.5016702362
O  O5  1  0.78620000  0.43140000  0.68991000  1.0 -0.5016702362
O  O6  1  0.56860000  0.35480000  0.68991000  1.0 -0.5058301325
O  O7  1  0.78620000  0.35480000  0.31009000  1.0 -0.5058301325
O  O8  1  0.56860000  0.21380000  0.31009000  1.0 -0.5016702362
O  O9  1  0.64520000  0.43140000  0.31009000  1.0 -0.5058301325
O  O10  1  0.21380000  0.64520000  0.81009000  1.0 -0.5016702362
O  O11  1  0.43140000  0.78620000  0.81009000  1.0 -0.5058301325
O  O12  1  0.35480000  0.56860000  0.81009000  1.0 -0.5058301325
O  O13  1  0.64520000  0.21380000  0.81009000  1.0 -0.5016702362
O  O14  1  0.78620000  0.43140000  0.81009000  1.0 -0.5016702362
O  O15  1  0.56860000  0.35480000  0.81009000  1.0 -0.5058301325
O  O16  1  0.35480000  0.78620000  0.31009000  1.0 -0.5058301325
O  O17  1  0.21380000  0.56860000  0.31009000  1.0 -0.5058301325
O  O18  1  0.43140000  0.64520000  0.31009000  1.0 -0.5016702362
O  O19  1  0.21380000  0.64520000  0.68991000  1.0 -0.5016702362
O  O20  1  0.43140000  0.78620000  0.68991000  1.0 -0.5058301325
O  O21  1  0.35480000  0.56860000  0.68991000  1.0 -0.5058301325
O  O22  1  0.78620000  0.35480000  0.18991000  1.0 -0.5058301325
O  O23  1  0.56860000  0.21380000  0.18991000  1.0 -0.5016702362
O  O24  1  0.64520000  0.43140000  0.18991000  1.0 -0.5058301325
O  O25  1  0.24246000  0.72754000  0.19696000  1.0 -0.5198932964
O  O26  1  0.27246000  0.51492000  0.19696000  1.0 -0.5198932964
O  O27  1  0.48508000  0.75754000  0.19696000  1.0 -0.5198932964
O  O28  1  0.75754000  0.27246000  0.69696000  1.0 -0.5198932964
O  O29  1  0.72754000  0.48508000  0.69696000  1.0 -0.5198932964
O  O30  1  0.51492000  0.24246000  0.69696000  1.0 -0.5198932964
O  O31  1  0.72754000  0.24246000  0.30304000  1.0 -0.5198932964
O  O32  1  0.51492000  0.27246000  0.30304000  1.0 -0.5198932964
O  O33  1  0.75754000  0.48508000  0.30304000  1.0 -0.5198932964
O  O34  1  0.27246000  0.75754000  0.80304000  1.0 -0.5198932964
O  O35  1  0.48508000  0.72754000  0.80304000  1.0 -0.5198932964
O  O36  1  0.24246000  0.51492000  0.80304000  1.0 -0.5198932964
O  O37  1  0.75754000  0.27246000  0.80304000  1.0 -0.5198932964
O  O38  1  0.72754000  0.48508000  0.80304000  1.0 -0.5198932964
O  O39  1  0.51492000  0.24246000  0.80304000  1.0 -0.5198932964
O  O40  1  0.24246000  0.72754000  0.30304000  1.0 -0.5198932964
O  O41  1  0.27246000  0.51492000  0.30304000  1.0 -0.5198932964
O  O42  1  0.48508000  0.75754000  0.30304000  1.0 -0.5198932964
O  O43  1  0.27246000  0.75754000  0.69696000  1.0 -0.5198932964
O  O44  1  0.48508000  0.72754000  0.69696000  1.0 -0.5198932964
O  O45  1  0.24246000  0.51492000  0.69696000  1.0 -0.5198932964
O  O46  1  0.72754000  0.24246000  0.19696000  1.0 -0.5198932964
O  O47  1  0.51492000  0.27246000  0.19696000  1.0 -0.5198932964
O  O48  1  0.75754000  0.48508000  0.19696000  1.0 -0.5198932964
O  O49  1  0.09777000  0.63035000  0.08877000  1.0 -0.5580363351
O  O50  1  0.36965000  0.46742000  0.08877000  1.0 -0.5580363351
O  O51  1  0.53258000  0.90223000  0.08877000  1.0 -0.5580363351
O  O52  1  0.90223000  0.36965000  0.58877000  1.0 -0.5580363351
O  O53  1  0.63035000  0.53258000  0.58877000  1.0 -0.5580363351
O  O54  1  0.46742000  0.09777000  0.58877000  1.0 -0.5580363351
O  O55  1  0.63035000  0.09777000  0.41123000  1.0 -0.5580363351
O  O56  1  0.46742000  0.36965000  0.41123000  1.0 -0.5580363351
O  O57  1  0.90223000  0.53258000  0.41123000  1.0 -0.5580363351
O  O58  1  0.36965000  0.90223000  0.91123000  1.0 -0.5580363351
O  O59  1  0.53258000  0.63035000  0.91123000  1.0 -0.5580363351
O  O60  1  0.09777000  0.46742000  0.91123000  1.0 -0.5580363351
O  O61  1  0.90223000  0.36965000  0.91123000  1.0 -0.5580363351
O  O62  1  0.63035000  0.53258000  0.91123000  1.0 -0.5580363351
O  O63  1  0.46742000  0.09777000  0.91123000  1.0 -0.5580363351
O  O64  1  0.09777000  0.63035000  0.41123000  1.0 -0.5580363351
O  O65  1  0.36965000  0.46742000  0.41123000  1.0 -0.5580363351
O  O66  1  0.53258000  0.90223000  0.41123000  1.0 -0.5580363351
O  O67  1  0.36965000  0.90223000  0.58877000  1.0 -0.5580363351
O  O68  1  0.53258000  0.63035000  0.58877000  1.0 -0.5580363351
O  O69  1  0.09777000  0.46742000  0.58877000  1.0 -0.5580363351
O  O70  1  0.63035000  0.09777000  0.08877000  1.0 -0.5580363351
O  O71  1  0.46742000  0.36965000  0.08877000  1.0 -0.5580363351
O  O72  1  0.90223000  0.53258000  0.08877000  1.0 -0.5580363351
O  O73  1  0.12709000  0.69406000  0.03794000  1.0 -0.4903721527
O  O74  1  0.30594000  0.43303000  0.03794000  1.0 -0.4903721527
O  O75  1  0.56697000  0.87291000  0.03794000  1.0 -0.4903721527
O  O76  1  0.87291000  0.30594000  0.53794000  1.0 -0.4903721527
O  O77  1  0.69406000  0.56697000  0.53794000  1.0 -0.4903721527
O  O78  1  0.43303000  0.12709000  0.53794000  1.0 -0.4903721527
O  O79  1  0.69406000  0.12709000  0.46206000  1.0 -0.4903721527
O  O80  1  0.43303000  0.30594000  0.46206000  1.0 -0.4903721527
O  O81  1  0.87291000  0.56697000  0.46206000  1.0 -0.4903721527
O  O82  1  0.30594000  0.87291000  0.96206000  1.0 -0.4903721527
O  O83  1  0.56697000  0.69406000  0.96206000  1.0 -0.4903721527
O  O84  1  0.12709000  0.43303000  0.96206000  1.0 -0.4903721527
O  O85  1  0.87291000  0.30594000  0.96206000  1.0 -0.4903721527
O  O86  1  0.69406000  0.56697000  0.96206000  1.0 -0.4903721527
O  O87  1  0.43303000  0.12709000  0.96206000  1.0 -0.4903721527
O  O88  1  0.12709000  0.69406000  0.46206000  1.0 -0.4903721527
O  O89  1  0.30594000  0.43303000  0.46206000  1.0 -0.4903721527
O  O90  1  0.56697000  0.87291000  0.46206000  1.0 -0.4903721527
O  O91  1  0.30594000  0.87291000  0.53794000  1.0 -0.4903721527
O  O92  1  0.56697000  0.69406000  0.53794000  1.0 -0.4903721527
O  O93  1  0.12709000  0.43303000  0.53794000  1.0 -0.4903721527
O  O94  1  0.69406000  0.12709000  0.03794000  1.0 -0.4903721527
O  O95  1  0.43303000  0.30594000  0.03794000  1.0 -0.4903721527
O  O96  1  0.87291000  0.56697000  0.03794000  1.0 -0.4903721527
O  O97  1  0.58919000  0.00000000  0.03094000  1.0 -0.8291181056
O  O98  1  0.00000000  0.58919000  0.03094000  1.0 -0.8291181056
O  O99  1  0.41081000  0.41081000  0.03094000  1.0 -0.8291181056
O  O100  1  0.41081000  0.00000000  0.53094000  1.0 -0.8291181056
O  O101  1  0.00000000  0.41081000  0.53094000  1.0 -0.8291181056
O  O102  1  0.58919000  0.58919000  0.53094000  1.0 -0.8291181056
O  O103  1  0.00000000  0.58919000  0.46906000  1.0 -0.8291181056
O  O104  1  0.58919000  0.00000000  0.46906000  1.0 -0.8291181056
O  O105  1  0.41081000  0.41081000  0.46906000  1.0 -0.8291181056
O  O106  1  0.00000000  0.41081000  0.96906000  1.0 -0.8291181056
O  O107  1  0.41081000  0.00000000  0.96906000  1.0 -0.8291181056
O  O108  1  0.58919000  0.58919000  0.96906000  1.0 -0.8291181056
