# DDEC6 charges by PACMAN v1.1 (https://github.com/mtap-research/PACMAN-charge/)
data_KIZQOC_ASR_pacman
_symmetry_space_group_name_H-M   'P 1'
_cell_length_a   13.07480000
_cell_length_b   13.78660000
_cell_length_c   15.68600000
_cell_angle_alpha   87.05000000
_cell_angle_beta   77.74500000
_cell_angle_gamma   87.41300000
_symmetry_Int_Tables_number   1
_chemical_formula_structural   SrH8C17(O2F3)2
_chemical_formula_sum   'Sr4 H32 C68 O16 F24'
_cell_volume   2757.72251614
_cell_formula_units_Z   4
loop_
 _symmetry_equiv_pos_site_id
 _symmetry_equiv_pos_as_xyz
  1  'x, y, z'
loop_
 _atom_site_type_symbol
 _atom_site_label
 _atom_site_symmetry_multiplicity
 _atom_site_fract_x
 _atom_site_fract_y
 _atom_site_fract_z
 _atom_site_occupancy
 _atom_site_charge
Sr  Sr1  1  0.96903000  0.61874000  0.07898000  1.0 1.4363195111
Sr  Sr2  1  0.01829000  0.86900000  0.93163000  1.0 1.4337508689
Sr  Sr3  1  0.03097000  0.38126000  0.92102000  1.0 1.4363195111
Sr  Sr4  1  0.98171000  0.13100000  0.06837000  1.0 1.4363195111
H  H1  1  0.49690000  0.51530000  0.59540000  1.0 0.1140677583
H  H2  1  0.37420000  0.56530000  0.88950000  1.0 0.1185062687
H  H3  1  0.53160000  0.62600000  0.81820000  1.0 0.1140677583
H  H4  1  0.33650000  0.45840000  0.66590000  1.0 0.1140677583
H  H5  1  0.80960000  0.48360000  0.85670000  1.0 0.1185062687
H  H6  1  0.69830000  0.48390000  0.76050000  1.0 0.1185062687
H  H7  1  0.75020000  0.76520000  0.69730000  1.0 0.1140677583
H  H8  1  0.85800000  0.76610000  0.79590000  1.0 0.1185062687
H  H9  1  0.20450000  0.26150000  0.78000000  1.0 0.1185062687
H  H10  1  0.37070000  0.27100000  0.69660000  1.0 0.1185062687
H  H11  1  0.43350000  0.99640000  0.77260000  1.0 0.1185062687
H  H12  1  0.26500000  0.98690000  0.85480000  1.0 0.1140677583
H  H13  1  0.55330000  0.13180000  0.83440000  1.0 0.1140677583
H  H14  1  0.67610000  0.06010000  0.90470000  1.0 0.1185062687
H  H15  1  0.70190000  0.01500000  0.61100000  1.0 0.1140677583
H  H16  1  0.82850000  0.94760000  0.68020000  1.0 0.1185062687
H  H17  1  0.50310000  0.48470000  0.40460000  1.0 0.1140677583
H  H18  1  0.62580000  0.43470000  0.11050000  1.0 0.1185062687
H  H19  1  0.46840000  0.37400000  0.18180000  1.0 0.1140677583
H  H20  1  0.66350000  0.54160000  0.33410000  1.0 0.1140677583
H  H21  1  0.19040000  0.51640000  0.14330000  1.0 0.1185062687
H  H22  1  0.30170000  0.51610000  0.23950000  1.0 0.1185062687
H  H23  1  0.24980000  0.23480000  0.30270000  1.0 0.1140677583
H  H24  1  0.14200000  0.23390000  0.20410000  1.0 0.1185062687
H  H25  1  0.79550000  0.73850000  0.22000000  1.0 0.1185062687
H  H26  1  0.62930000  0.72900000  0.30340000  1.0 0.1185062687
H  H27  1  0.56650000  0.00360000  0.22740000  1.0 0.1185062687
H  H28  1  0.73500000  0.01310000  0.14520000  1.0 0.1140677583
H  H29  1  0.44670000  0.86820000  0.16560000  1.0 0.1140677583
H  H30  1  0.32390000  0.93990000  0.09530000  1.0 0.1185062687
H  H31  1  0.29810000  0.98500000  0.38900000  1.0 0.1140677583
H  H32  1  0.17150000  0.05240000  0.31980000  1.0 0.1185062687
C  C1  1  0.33820000  0.50590000  0.78510000  1.0 -0.0078095758
C  C2  1  0.47270000  0.52540000  0.65460000  1.0 -0.158020843
C  C3  1  0.23450000  0.46550000  0.82990000  1.0 0.5563861738
C  C4  1  0.53360000  0.57440000  0.69970000  1.0 0.0680443003
C  C5  1  0.39830000  0.55560000  0.83030000  1.0 -0.0927737991
C  C6  1  0.49330000  0.59060000  0.78760000  1.0 -0.1481623391
C  C7  1  0.37630000  0.49140000  0.69690000  1.0 -0.0958703541
C  C8  1  0.91690000  0.62770000  0.90010000  1.0 0.630354167
C  C9  1  0.79740000  0.54040000  0.82520000  1.0 -0.0927737991
C  C10  1  0.71310000  0.62360000  0.71770000  1.0 0.0638580332
C  C11  1  0.73130000  0.54070000  0.76690000  1.0 -0.1402647485
C  C12  1  0.84540000  0.62560000  0.83670000  1.0 -0.0174245042
C  C13  1  0.76150000  0.70860000  0.72930000  1.0 -0.158020843
C  C14  1  0.82650000  0.70890000  0.78850000  1.0 -0.0834491888
C  C15  1  0.63880000  0.61830000  0.65410000  1.0 -0.2801274349
C  C16  1  0.69860000  0.55590000  0.57790000  1.0 0.6676214944
C  C17  1  0.61190000  0.72050000  0.61670000  1.0 0.6620179027
C  C18  1  0.42180000  0.13540000  0.72740000  1.0 0.078354777
C  C19  1  0.11050000  0.12210000  0.88650000  1.0 0.630354167
C  C20  1  0.21710000  0.12450000  0.82760000  1.0 -0.0174245042
C  C21  1  0.25070000  0.20800000  0.77900000  1.0 -0.0834491888
C  C22  1  0.35060000  0.21410000  0.72920000  1.0 -0.1481623391
C  C23  1  0.38770000  0.05020000  0.77440000  1.0 -0.1481623391
C  C24  1  0.28650000  0.04440000  0.82400000  1.0 -0.0834491888
C  C25  1  0.61400000  0.08100000  0.71480000  1.0 0.0680443003
C  C26  1  0.76600000  0.99640000  0.79960000  1.0 -0.0078095758
C  C27  1  0.85020000  0.95420000  0.84440000  1.0 0.5492928932
C  C28  1  0.60810000  0.09400000  0.80330000  1.0 -0.1402647485
C  C29  1  0.68200000  0.05180000  0.84530000  1.0 -0.0927737991
C  C30  1  0.69700000  0.02500000  0.66990000  1.0 -0.158020843
C  C31  1  0.77270000  0.98390000  0.71160000  1.0 -0.0958703541
C  C32  1  0.53320000  0.13590000  0.66970000  1.0 -0.2854062308
C  C33  1  0.52510000  0.09000000  0.58410000  1.0 0.6620179027
C  C34  1  0.57390000  0.23940000  0.64830000  1.0 0.6620179027
C  C35  1  0.66180000  0.49410000  0.21490000  1.0 -0.0078095758
C  C36  1  0.52730000  0.47460000  0.34540000  1.0 -0.158020843
C  C37  1  0.76550000  0.53450000  0.17010000  1.0 0.5563861738
C  C38  1  0.46640000  0.42560000  0.30030000  1.0 0.0680443003
C  C39  1  0.60170000  0.44440000  0.16970000  1.0 -0.0927737991
C  C40  1  0.50670000  0.40940000  0.21240000  1.0 -0.1481623391
C  C41  1  0.62370000  0.50860000  0.30310000  1.0 -0.0958703541
C  C42  1  0.08310000  0.37230000  0.09990000  1.0 0.630354167
C  C43  1  0.20260000  0.45960000  0.17480000  1.0 -0.0927737991
C  C44  1  0.28690000  0.37640000  0.28230000  1.0 0.0638580332
C  C45  1  0.26870000  0.45930000  0.23310000  1.0 -0.1402647485
C  C46  1  0.15460000  0.37440000  0.16330000  1.0 -0.0174245042
C  C47  1  0.23850000  0.29140000  0.27070000  1.0 -0.158020843
C  C48  1  0.17350000  0.29110000  0.21150000  1.0 -0.0834491888
C  C49  1  0.36120000  0.38170000  0.34590000  1.0 -0.2801274349
C  C50  1  0.30140000  0.44410000  0.42210000  1.0 0.6676214944
C  C51  1  0.38810000  0.27950000  0.38330000  1.0 0.6620179027
C  C52  1  0.57820000  0.86460000  0.27260000  1.0 0.078354777
C  C53  1  0.88950000  0.87790000  0.11350000  1.0 0.630354167
C  C54  1  0.78290000  0.87550000  0.17240000  1.0 -0.0174245042
C  C55  1  0.74930000  0.79200000  0.22100000  1.0 -0.0834491888
C  C56  1  0.64940000  0.78590000  0.27080000  1.0 -0.1481623391
C  C57  1  0.61230000  0.94980000  0.22560000  1.0 -0.1481623391
C  C58  1  0.71350000  0.95560000  0.17600000  1.0 -0.0834491888
C  C59  1  0.38600000  0.91900000  0.28520000  1.0 0.0680443003
C  C60  1  0.23400000  0.00360000  0.20040000  1.0 -0.0078095758
C  C61  1  0.14980000  0.04580000  0.15560000  1.0 0.5492928932
C  C62  1  0.39190000  0.90600000  0.19670000  1.0 -0.1402647485
C  C63  1  0.31800000  0.94820000  0.15470000  1.0 -0.0927737991
C  C64  1  0.30300000  0.97500000  0.33010000  1.0 -0.158020843
C  C65  1  0.22730000  0.01610000  0.28840000  1.0 -0.0958703541
C  C66  1  0.46680000  0.86410000  0.33030000  1.0 -0.2854062308
C  C67  1  0.47490000  0.91000000  0.41590000  1.0 0.6620179027
C  C68  1  0.42610000  0.76060000  0.35170000  1.0 0.6620179027
O  O1  1  0.17690000  0.43460000  0.78420000  1.0 -0.6074630161
O  O2  1  0.93340000  0.92020000  0.79803000  1.0 -0.6074630161
O  O3  1  0.21050000  0.46480000  0.91300000  1.0 -0.615714549
O  O4  1  0.95620000  0.54860000  0.92440000  1.0 -0.668577223
O  O5  1  0.93160000  0.70840000  0.92900000  1.0 -0.6579560031
O  O6  1  0.06690000  0.20270000  0.91046000  1.0 -0.6825860132
O  O7  1  0.07110000  0.04180000  0.91307000  1.0 -0.6477686157
O  O8  1  0.83320000  0.95280000  0.92672000  1.0 -0.6027517309
O  O9  1  0.82310000  0.56540000  0.21580000  1.0 -0.6074630161
O  O10  1  0.06660000  0.07980000  0.20197000  1.0 -0.6074630161
O  O11  1  0.78950000  0.53520000  0.08700000  1.0 -0.615714549
O  O12  1  0.04380000  0.45140000  0.07560000  1.0 -0.668577223
O  O13  1  0.06840000  0.29160000  0.07100000  1.0 -0.6579560031
O  O14  1  0.93310000  0.79730000  0.08954000  1.0 -0.6825860132
O  O15  1  0.92890000  0.95820000  0.08693000  1.0 -0.6477686157
O  O16  1  0.16680000  0.04720000  0.07328000  1.0 -0.6027517309
F  F1  1  0.56010000  0.29112000  0.71999000  1.0 -0.1993346055
F  F2  1  0.67590000  0.23890000  0.61229000  1.0 -0.1926599358
F  F3  1  0.52580000  0.29114000  0.59153000  1.0 -0.2069128071
F  F4  1  0.51290000  0.99365000  0.59671000  1.0 -0.1993346055
F  F5  1  0.44210000  0.12610000  0.55382000  1.0 -0.1993346055
F  F6  1  0.60900000  0.10340000  0.51942000  1.0 -0.2069128071
F  F7  1  0.69400000  0.76090000  0.56390000  1.0 -0.2069128071
F  F8  1  0.57440000  0.78110000  0.68040000  1.0 -0.1993346055
F  F9  1  0.53760000  0.71560000  0.57000000  1.0 -0.1993346055
F  F10  1  0.79770000  0.58390000  0.55127000  1.0 -0.1926599358
F  F11  1  0.70050000  0.46260000  0.60057000  1.0 -0.1993346055
F  F12  1  0.65560000  0.56640000  0.50640000  1.0 -0.2069128071
F  F13  1  0.43990000  0.70888000  0.28001000  1.0 -0.1993346055
F  F14  1  0.32410000  0.76110000  0.38771000  1.0 -0.1926599358
F  F15  1  0.47420000  0.70886000  0.40847000  1.0 -0.2069128071
F  F16  1  0.48710000  0.00635000  0.40329000  1.0 -0.1993346055
F  F17  1  0.55790000  0.87390000  0.44618000  1.0 -0.1993346055
F  F18  1  0.39100000  0.89660000  0.48058000  1.0 -0.2069128071
F  F19  1  0.30600000  0.23910000  0.43610000  1.0 -0.2069128071
F  F20  1  0.42560000  0.21890000  0.31960000  1.0 -0.1993346055
F  F21  1  0.46240000  0.28440000  0.43000000  1.0 -0.1993346055
F  F22  1  0.20230000  0.41610000  0.44873000  1.0 -0.1926599358
F  F23  1  0.29950000  0.53740000  0.39943000  1.0 -0.1993346055
F  F24  1  0.34440000  0.43360000  0.49360000  1.0 -0.2069128071
