# DDEC6 charges by PACMAN v1.1 (https://github.com/mtap-research/PACMAN-charge/)
data_KOBPUP_FSR_pacman
_symmetry_space_group_name_H-M   'P 1'
_cell_length_a   13.58800000
_cell_length_b   18.34920000
_cell_length_c   31.75520000
_cell_angle_alpha   90.00000000
_cell_angle_beta   90.00000000
_cell_angle_gamma   90.00000000
_symmetry_Int_Tables_number   1
_chemical_formula_structural   CdH16C15N4O5
_chemical_formula_sum   'Cd16 H256 C240 N64 O80'
_cell_volume   7917.49002523
_cell_formula_units_Z   16
loop_
 _symmetry_equiv_pos_site_id
 _symmetry_equiv_pos_as_xyz
  1  'x, y, z'
loop_
 _atom_site_type_symbol
 _atom_site_label
 _atom_site_symmetry_multiplicity
 _atom_site_fract_x
 _atom_site_fract_y
 _atom_site_fract_z
 _atom_site_occupancy
 _atom_site_charge
Cd  Cd1  1  0.13931000  0.98967000  0.12820000  1.0 0.8228849968
Cd  Cd2  1  0.11074000  0.48797000  0.87759000  1.0 0.8228849968
Cd  Cd3  1  0.36069000  0.98967000  0.87180000  1.0 0.8228849968
Cd  Cd4  1  0.38926000  0.48797000  0.12241000  1.0 0.8228849968
Cd  Cd5  1  0.36069000  0.51033000  0.62820000  1.0 0.8228849968
Cd  Cd6  1  0.38926000  0.01203000  0.37759000  1.0 0.8228849968
Cd  Cd7  1  0.13931000  0.51033000  0.37180000  1.0 0.8228849968
Cd  Cd8  1  0.11074000  0.01203000  0.62241000  1.0 0.8228849968
Cd  Cd9  1  0.86069000  0.01033000  0.87180000  1.0 0.8228849968
Cd  Cd10  1  0.88926000  0.51203000  0.12241000  1.0 0.8228849968
Cd  Cd11  1  0.63931000  0.01033000  0.12820000  1.0 0.8228849968
Cd  Cd12  1  0.61074000  0.51203000  0.87759000  1.0 0.8228849968
Cd  Cd13  1  0.63931000  0.48967000  0.37180000  1.0 0.8228849968
Cd  Cd14  1  0.61074000  0.98797000  0.62241000  1.0 0.8228849968
Cd  Cd15  1  0.86069000  0.48967000  0.62820000  1.0 0.8228849968
Cd  Cd16  1  0.88926000  0.98797000  0.37759000  1.0 0.8228849968
H  H1  1  0.34238000  0.14234000  0.04881000  1.0 0.1292984452
H  H2  1  0.41467000  0.12437000  0.08588000  1.0 0.1292984452
H  H3  1  0.34692000  0.21796000  0.12612000  1.0 0.091212572
H  H4  1  0.27047000  0.23467000  0.09043000  1.0 0.1091964631
H  H5  1  0.39782000  0.27191000  0.04595000  1.0 0.1292984452
H  H6  1  0.47500000  0.25405000  0.08109000  1.0 0.1213155535
H  H7  1  0.12334000  0.03008000  0.02825000  1.0 0.1091964631
H  H8  1  0.11179000  0.97956000  0.96207000  1.0 0.1292984452
H  H9  1  0.11541000  0.85402000  0.95440000  1.0 0.1292984452
H  H10  1  0.14177000  0.83776000  0.07927000  1.0 0.1213155535
H  H11  1  0.12749000  0.62848000  0.05011000  1.0 0.1292984452
H  H12  1  0.13233000  0.50194000  0.04397000  1.0 0.1292984452
H  H13  1  0.12757000  0.44988000  0.97767000  1.0 0.1091964631
H  H14  1  0.10842000  0.64090000  0.92474000  1.0 0.1213155535
H  H15  1  0.13932000  0.14913000  0.17193000  1.0 0.1213155535
H  H16  1  0.14428000  0.13853000  0.29819000  1.0 0.1292984452
H  H17  1  0.14571000  0.01338000  0.29249000  1.0 0.1292984452
H  H18  1  0.15383000  0.96063000  0.22755000  1.0 0.1091964631
H  H19  1  0.38450000  0.62626000  0.83706000  1.0 0.1292984452
H  H20  1  0.31124000  0.64178000  0.80006000  1.0 0.1292984452
H  H21  1  0.32144000  0.72192000  0.87517000  1.0 0.0983886918
H  H22  1  0.23971000  0.73503000  0.84119000  1.0 0.1091964631
H  H23  1  0.35813000  0.77256000  0.79280000  1.0 0.1292984452
H  H24  1  0.44191000  0.75616000  0.82532000  1.0 0.1213155535
H  H25  1  0.94364000  0.56654000  0.88940000  1.0 0.3441045074
H  H26  1  0.91229000  0.50096000  0.87208000  1.0 0.372990712
H  H27  1  0.97182000  0.06875000  0.13356000  1.0 0.3492255746
H  H28  1  0.94154000  0.99888000  0.12267000  1.0 0.372990712
H  H29  1  0.09482000  0.53815000  0.77959000  1.0 0.1091964631
H  H30  1  0.10685000  0.34100000  0.82240000  1.0 0.1213155535
H  H31  1  0.10264000  0.49766000  0.71057000  1.0 0.1292984452
H  H32  1  0.10089000  0.37247000  0.69849000  1.0 0.1382014243
H  H33  1  0.15762000  0.14234000  0.95119000  1.0 0.1292984452
H  H34  1  0.08533000  0.12437000  0.91412000  1.0 0.1292984452
H  H35  1  0.15308000  0.21796000  0.87388000  1.0 0.091212572
H  H36  1  0.22953000  0.23467000  0.90957000  1.0 0.1091964631
H  H37  1  0.10218000  0.27191000  0.95405000  1.0 0.1292984452
H  H38  1  0.02500000  0.25405000  0.91891000  1.0 0.1213155535
H  H39  1  0.37666000  0.03008000  0.97175000  1.0 0.1091964631
H  H40  1  0.38821000  0.97956000  0.03793000  1.0 0.1292984452
H  H41  1  0.38459000  0.85402000  0.04560000  1.0 0.1292984452
H  H42  1  0.35823000  0.83776000  0.92073000  1.0 0.1213155535
H  H43  1  0.37251000  0.62848000  0.94989000  1.0 0.1292984452
H  H44  1  0.36767000  0.50194000  0.95603000  1.0 0.1292984452
H  H45  1  0.37243000  0.44988000  0.02233000  1.0 0.1091964631
H  H46  1  0.39158000  0.64090000  0.07526000  1.0 0.1213155535
H  H47  1  0.36068000  0.14913000  0.82807000  1.0 0.1213155535
H  H48  1  0.35572000  0.13853000  0.70181000  1.0 0.1292984452
H  H49  1  0.35429000  0.01338000  0.70751000  1.0 0.1292984452
H  H50  1  0.34617000  0.96063000  0.77245000  1.0 0.1091964631
H  H51  1  0.11550000  0.62626000  0.16294000  1.0 0.1292984452
H  H52  1  0.18876000  0.64178000  0.19994000  1.0 0.1292984452
H  H53  1  0.17856000  0.72192000  0.12483000  1.0 0.0983886918
H  H54  1  0.26029000  0.73503000  0.15881000  1.0 0.1091964631
H  H55  1  0.14187000  0.77256000  0.20720000  1.0 0.1292984452
H  H56  1  0.05809000  0.75616000  0.17468000  1.0 0.1213155535
H  H57  1  0.55636000  0.56654000  0.11060000  1.0 0.3441045074
H  H58  1  0.58771000  0.50096000  0.12792000  1.0 0.372990712
H  H59  1  0.52818000  0.06875000  0.86644000  1.0 0.3492255746
H  H60  1  0.55846000  0.99888000  0.87733000  1.0 0.372990712
H  H61  1  0.40518000  0.53815000  0.22041000  1.0 0.1091964631
H  H62  1  0.39315000  0.34100000  0.17760000  1.0 0.1213155535
H  H63  1  0.39736000  0.49766000  0.28943000  1.0 0.1292984452
H  H64  1  0.39911000  0.37247000  0.30151000  1.0 0.1382014243
H  H65  1  0.15762000  0.35766000  0.54881000  1.0 0.1292984452
H  H66  1  0.08533000  0.37563000  0.58588000  1.0 0.1292984452
H  H67  1  0.15308000  0.28204000  0.62612000  1.0 0.091212572
H  H68  1  0.22953000  0.26533000  0.59043000  1.0 0.1091964631
H  H69  1  0.10218000  0.22809000  0.54595000  1.0 0.1292984452
H  H70  1  0.02500000  0.24595000  0.58109000  1.0 0.1213155535
H  H71  1  0.37666000  0.46992000  0.52825000  1.0 0.1091964631
H  H72  1  0.38821000  0.52044000  0.46207000  1.0 0.1292984452
H  H73  1  0.38459000  0.64598000  0.45440000  1.0 0.1292984452
H  H74  1  0.35823000  0.66224000  0.57927000  1.0 0.1213155535
H  H75  1  0.37251000  0.87152000  0.55011000  1.0 0.1292984452
H  H76  1  0.36767000  0.99806000  0.54397000  1.0 0.1292984452
H  H77  1  0.37243000  0.05012000  0.47767000  1.0 0.1091964631
H  H78  1  0.39158000  0.85910000  0.42474000  1.0 0.1213155535
H  H79  1  0.36068000  0.35087000  0.67193000  1.0 0.1213155535
H  H80  1  0.35572000  0.36147000  0.79819000  1.0 0.1292984452
H  H81  1  0.35429000  0.48662000  0.79249000  1.0 0.1292984452
H  H82  1  0.34617000  0.53937000  0.72755000  1.0 0.1091964631
H  H83  1  0.11550000  0.87374000  0.33706000  1.0 0.1292984452
H  H84  1  0.18876000  0.85822000  0.30006000  1.0 0.1292984452
H  H85  1  0.17856000  0.77808000  0.37517000  1.0 0.0983886918
H  H86  1  0.26029000  0.76497000  0.34119000  1.0 0.1091964631
H  H87  1  0.14187000  0.72744000  0.29280000  1.0 0.1292984452
H  H88  1  0.05809000  0.74384000  0.32532000  1.0 0.1213155535
H  H89  1  0.55636000  0.93346000  0.38940000  1.0 0.3441045074
H  H90  1  0.58771000  0.99904000  0.37208000  1.0 0.372990712
H  H91  1  0.52818000  0.43125000  0.63356000  1.0 0.3492255746
H  H92  1  0.55846000  0.50112000  0.62267000  1.0 0.372990712
H  H93  1  0.40518000  0.96185000  0.27959000  1.0 0.1091964631
H  H94  1  0.39315000  0.15900000  0.32240000  1.0 0.1213155535
H  H95  1  0.39736000  0.00234000  0.21057000  1.0 0.1292984452
H  H96  1  0.39911000  0.12753000  0.19849000  1.0 0.1382014243
H  H97  1  0.34238000  0.35766000  0.45119000  1.0 0.1292984452
H  H98  1  0.41467000  0.37563000  0.41412000  1.0 0.1292984452
H  H99  1  0.34692000  0.28204000  0.37388000  1.0 0.091212572
H  H100  1  0.27047000  0.26533000  0.40957000  1.0 0.1091964631
H  H101  1  0.39782000  0.22809000  0.45405000  1.0 0.1292984452
H  H102  1  0.47500000  0.24595000  0.41891000  1.0 0.1213155535
H  H103  1  0.12334000  0.46992000  0.47175000  1.0 0.1091964631
H  H104  1  0.11179000  0.52044000  0.53793000  1.0 0.1292984452
H  H105  1  0.11541000  0.64598000  0.54560000  1.0 0.1292984452
H  H106  1  0.14177000  0.66224000  0.42073000  1.0 0.1213155535
H  H107  1  0.12749000  0.87152000  0.44989000  1.0 0.1292984452
H  H108  1  0.13233000  0.99806000  0.45603000  1.0 0.1292984452
H  H109  1  0.12757000  0.05012000  0.52233000  1.0 0.1091964631
H  H110  1  0.10842000  0.85910000  0.57526000  1.0 0.1213155535
H  H111  1  0.13932000  0.35087000  0.32807000  1.0 0.1213155535
H  H112  1  0.14428000  0.36147000  0.20181000  1.0 0.1292984452
H  H113  1  0.14571000  0.48662000  0.20751000  1.0 0.1292984452
H  H114  1  0.15383000  0.53937000  0.27245000  1.0 0.1091964631
H  H115  1  0.38450000  0.87374000  0.66294000  1.0 0.1292984452
H  H116  1  0.31124000  0.85822000  0.69994000  1.0 0.1292984452
H  H117  1  0.32144000  0.77808000  0.62483000  1.0 0.0983886918
H  H118  1  0.23971000  0.76497000  0.65881000  1.0 0.1091964631
H  H119  1  0.35813000  0.72744000  0.70720000  1.0 0.1292984452
H  H120  1  0.44191000  0.74384000  0.67468000  1.0 0.1213155535
H  H121  1  0.94364000  0.93346000  0.61060000  1.0 0.3441045074
H  H122  1  0.91229000  0.99904000  0.62792000  1.0 0.372990712
H  H123  1  0.97182000  0.43125000  0.36644000  1.0 0.3492255746
H  H124  1  0.94154000  0.50112000  0.37733000  1.0 0.372990712
H  H125  1  0.09482000  0.96185000  0.72041000  1.0 0.1091964631
H  H126  1  0.10685000  0.15900000  0.67760000  1.0 0.1213155535
H  H127  1  0.10264000  0.00234000  0.78943000  1.0 0.1292984452
H  H128  1  0.10089000  0.12753000  0.80151000  1.0 0.1382014243
H  H129  1  0.65762000  0.85766000  0.95119000  1.0 0.1292984452
H  H130  1  0.58533000  0.87563000  0.91412000  1.0 0.1292984452
H  H131  1  0.65308000  0.78204000  0.87388000  1.0 0.091212572
H  H132  1  0.72953000  0.76533000  0.90957000  1.0 0.1091964631
H  H133  1  0.60218000  0.72809000  0.95405000  1.0 0.1292984452
H  H134  1  0.52500000  0.74595000  0.91891000  1.0 0.1213155535
H  H135  1  0.87666000  0.96992000  0.97175000  1.0 0.1091964631
H  H136  1  0.88821000  0.02044000  0.03793000  1.0 0.1292984452
H  H137  1  0.88459000  0.14598000  0.04560000  1.0 0.1292984452
H  H138  1  0.85823000  0.16224000  0.92073000  1.0 0.1213155535
H  H139  1  0.87251000  0.37152000  0.94989000  1.0 0.1292984452
H  H140  1  0.86767000  0.49806000  0.95603000  1.0 0.1292984452
H  H141  1  0.87243000  0.55012000  0.02233000  1.0 0.1091964631
H  H142  1  0.89158000  0.35910000  0.07526000  1.0 0.1213155535
H  H143  1  0.86068000  0.85087000  0.82807000  1.0 0.1213155535
H  H144  1  0.85572000  0.86147000  0.70181000  1.0 0.1292984452
H  H145  1  0.85429000  0.98662000  0.70751000  1.0 0.1292984452
H  H146  1  0.84617000  0.03937000  0.77245000  1.0 0.1091964631
H  H147  1  0.61550000  0.37374000  0.16294000  1.0 0.1292984452
H  H148  1  0.68876000  0.35822000  0.19994000  1.0 0.1292984452
H  H149  1  0.67856000  0.27808000  0.12483000  1.0 0.0983886918
H  H150  1  0.76029000  0.26497000  0.15881000  1.0 0.1091964631
H  H151  1  0.64187000  0.22744000  0.20720000  1.0 0.1292984452
H  H152  1  0.55809000  0.24384000  0.17468000  1.0 0.1213155535
H  H153  1  0.05636000  0.43346000  0.11060000  1.0 0.3441045074
H  H154  1  0.08771000  0.49904000  0.12792000  1.0 0.372990712
H  H155  1  0.02818000  0.93125000  0.86644000  1.0 0.3492255746
H  H156  1  0.05846000  0.00112000  0.87733000  1.0 0.372990712
H  H157  1  0.90518000  0.46185000  0.22041000  1.0 0.1091964631
H  H158  1  0.89315000  0.65900000  0.17760000  1.0 0.1213155535
H  H159  1  0.89736000  0.50234000  0.28943000  1.0 0.1292984452
H  H160  1  0.89911000  0.62753000  0.30151000  1.0 0.1382014243
H  H161  1  0.84238000  0.85766000  0.04881000  1.0 0.1292984452
H  H162  1  0.91467000  0.87563000  0.08588000  1.0 0.1292984452
H  H163  1  0.84692000  0.78204000  0.12612000  1.0 0.091212572
H  H164  1  0.77047000  0.76533000  0.09043000  1.0 0.1091964631
H  H165  1  0.89782000  0.72809000  0.04595000  1.0 0.1292984452
H  H166  1  0.97500000  0.74595000  0.08109000  1.0 0.1213155535
H  H167  1  0.62334000  0.96992000  0.02825000  1.0 0.1091964631
H  H168  1  0.61179000  0.02044000  0.96207000  1.0 0.1292984452
H  H169  1  0.61541000  0.14598000  0.95440000  1.0 0.1292984452
H  H170  1  0.64177000  0.16224000  0.07927000  1.0 0.1213155535
H  H171  1  0.62749000  0.37152000  0.05011000  1.0 0.1292984452
H  H172  1  0.63233000  0.49806000  0.04397000  1.0 0.1292984452
H  H173  1  0.62757000  0.55012000  0.97767000  1.0 0.1091964631
H  H174  1  0.60842000  0.35910000  0.92474000  1.0 0.1213155535
H  H175  1  0.63932000  0.85087000  0.17193000  1.0 0.1213155535
H  H176  1  0.64428000  0.86147000  0.29819000  1.0 0.1292984452
H  H177  1  0.64571000  0.98662000  0.29249000  1.0 0.1292984452
H  H178  1  0.65383000  0.03937000  0.22755000  1.0 0.1091964631
H  H179  1  0.88450000  0.37374000  0.83706000  1.0 0.1292984452
H  H180  1  0.81124000  0.35822000  0.80006000  1.0 0.1292984452
H  H181  1  0.82144000  0.27808000  0.87517000  1.0 0.0983886918
H  H182  1  0.73971000  0.26497000  0.84119000  1.0 0.1091964631
H  H183  1  0.85813000  0.22744000  0.79280000  1.0 0.1292984452
H  H184  1  0.94191000  0.24384000  0.82532000  1.0 0.1213155535
H  H185  1  0.44364000  0.43346000  0.88940000  1.0 0.3441045074
H  H186  1  0.41229000  0.49904000  0.87208000  1.0 0.372990712
H  H187  1  0.47182000  0.93125000  0.13356000  1.0 0.3492255746
H  H188  1  0.44154000  0.00112000  0.12267000  1.0 0.372990712
H  H189  1  0.59482000  0.46185000  0.77959000  1.0 0.1091964631
H  H190  1  0.60685000  0.65900000  0.82240000  1.0 0.1213155535
H  H191  1  0.60264000  0.50234000  0.71057000  1.0 0.1292984452
H  H192  1  0.60089000  0.62753000  0.69849000  1.0 0.1382014243
H  H193  1  0.84238000  0.64234000  0.45119000  1.0 0.1292984452
H  H194  1  0.91467000  0.62437000  0.41412000  1.0 0.1292984452
H  H195  1  0.84692000  0.71796000  0.37388000  1.0 0.091212572
H  H196  1  0.77047000  0.73467000  0.40957000  1.0 0.1091964631
H  H197  1  0.89782000  0.77191000  0.45405000  1.0 0.1292984452
H  H198  1  0.97500000  0.75405000  0.41891000  1.0 0.1213155535
H  H199  1  0.62334000  0.53008000  0.47175000  1.0 0.1091964631
H  H200  1  0.61179000  0.47956000  0.53793000  1.0 0.1292984452
H  H201  1  0.61541000  0.35402000  0.54560000  1.0 0.1292984452
H  H202  1  0.64177000  0.33776000  0.42073000  1.0 0.1213155535
H  H203  1  0.62749000  0.12848000  0.44989000  1.0 0.1292984452
H  H204  1  0.63233000  0.00194000  0.45603000  1.0 0.1292984452
H  H205  1  0.62757000  0.94988000  0.52233000  1.0 0.1091964631
H  H206  1  0.60842000  0.14090000  0.57526000  1.0 0.1213155535
H  H207  1  0.63932000  0.64913000  0.32807000  1.0 0.1213155535
H  H208  1  0.64428000  0.63853000  0.20181000  1.0 0.1292984452
H  H209  1  0.64571000  0.51338000  0.20751000  1.0 0.1292984452
H  H210  1  0.65383000  0.46063000  0.27245000  1.0 0.1091964631
H  H211  1  0.88450000  0.12626000  0.66294000  1.0 0.1292984452
H  H212  1  0.81124000  0.14178000  0.69994000  1.0 0.1292984452
H  H213  1  0.82144000  0.22192000  0.62483000  1.0 0.0983886918
H  H214  1  0.73971000  0.23503000  0.65881000  1.0 0.1091964631
H  H215  1  0.85813000  0.27256000  0.70720000  1.0 0.1292984452
H  H216  1  0.94191000  0.25616000  0.67468000  1.0 0.1213155535
H  H217  1  0.44364000  0.06654000  0.61060000  1.0 0.3441045074
H  H218  1  0.41229000  0.00096000  0.62792000  1.0 0.372990712
H  H219  1  0.47182000  0.56875000  0.36644000  1.0 0.3492255746
H  H220  1  0.44154000  0.49888000  0.37733000  1.0 0.372990712
H  H221  1  0.59482000  0.03815000  0.72041000  1.0 0.1091964631
H  H222  1  0.60685000  0.84100000  0.67760000  1.0 0.1213155535
H  H223  1  0.60264000  0.99766000  0.78943000  1.0 0.1292984452
H  H224  1  0.60089000  0.87247000  0.80151000  1.0 0.1382014243
H  H225  1  0.65762000  0.64234000  0.54881000  1.0 0.1292984452
H  H226  1  0.58533000  0.62437000  0.58588000  1.0 0.1292984452
H  H227  1  0.65308000  0.71796000  0.62612000  1.0 0.091212572
H  H228  1  0.72953000  0.73467000  0.59043000  1.0 0.1091964631
H  H229  1  0.60218000  0.77191000  0.54595000  1.0 0.1292984452
H  H230  1  0.52500000  0.75405000  0.58109000  1.0 0.1213155535
H  H231  1  0.87666000  0.53008000  0.52825000  1.0 0.1091964631
H  H232  1  0.88821000  0.47956000  0.46207000  1.0 0.1292984452
H  H233  1  0.88459000  0.35402000  0.45440000  1.0 0.1292984452
H  H234  1  0.85823000  0.33776000  0.57927000  1.0 0.1213155535
H  H235  1  0.87251000  0.12848000  0.55011000  1.0 0.1292984452
H  H236  1  0.86767000  0.00194000  0.54397000  1.0 0.1292984452
H  H237  1  0.87243000  0.94988000  0.47767000  1.0 0.1091964631
H  H238  1  0.89158000  0.14090000  0.42474000  1.0 0.1213155535
H  H239  1  0.86068000  0.64913000  0.67193000  1.0 0.1213155535
H  H240  1  0.85572000  0.63853000  0.79819000  1.0 0.1292984452
H  H241  1  0.85429000  0.51338000  0.79249000  1.0 0.1292984452
H  H242  1  0.84617000  0.46063000  0.72755000  1.0 0.1091964631
H  H243  1  0.61550000  0.12626000  0.33706000  1.0 0.1292984452
H  H244  1  0.68876000  0.14178000  0.30006000  1.0 0.1292984452
H  H245  1  0.67856000  0.22192000  0.37517000  1.0 0.0983886918
H  H246  1  0.76029000  0.23503000  0.34119000  1.0 0.1091964631
H  H247  1  0.64187000  0.27256000  0.29280000  1.0 0.1292984452
H  H248  1  0.55809000  0.25616000  0.32532000  1.0 0.1213155535
H  H249  1  0.05636000  0.06654000  0.38940000  1.0 0.3441045074
H  H250  1  0.08771000  0.00096000  0.37208000  1.0 0.372990712
H  H251  1  0.02818000  0.56875000  0.63356000  1.0 0.3492255746
H  H252  1  0.05846000  0.49888000  0.62267000  1.0 0.372990712
H  H253  1  0.90518000  0.03815000  0.27959000  1.0 0.1091964631
H  H254  1  0.89315000  0.84100000  0.32240000  1.0 0.1213155535
H  H255  1  0.89736000  0.99766000  0.21057000  1.0 0.1292984452
H  H256  1  0.89911000  0.87247000  0.19849000  1.0 0.1382014243
C  C1  1  0.27430000  0.08980000  0.09750000  1.0 0.6012555337
C  C2  1  0.34910000  0.14170000  0.07920000  1.0 -0.3412805346
C  C3  1  0.33710000  0.21830000  0.09590000  1.0 -0.0986131553
C  C4  1  0.40850000  0.27130000  0.07620000  1.0 -0.3242313103
C  C5  1  0.39980000  0.34830000  0.09270000  1.0 0.585727313
C  C6  1  0.12440000  0.97960000  0.02550000  1.0 0.0586843224
C  C7  1  0.11760000  0.94960000  0.98550000  1.0 -0.1301090152
C  C8  1  0.11940000  0.87530000  0.98090000  1.0 -0.0986131553
C  C9  1  0.12740000  0.83270000  0.01670000  1.0 0.0983886918
C  C10  1  0.13480000  0.86660000  0.05538000  1.0 0.0144664547
C  C11  1  0.11930000  0.64740000  0.98720000  1.0 0.1091964631
C  C12  1  0.12540000  0.60620000  0.02380000  1.0 -0.0919279899
C  C13  1  0.12820000  0.53130000  0.02020000  1.0 -0.1378392396
C  C14  1  0.12470000  0.50040000  0.98000000  1.0 0.071085984
C  C15  1  0.11420000  0.61270000  0.94890000  1.0 -0.0062296876
C  C16  1  0.14070000  0.12170000  0.19655000  1.0 -0.0062296876
C  C17  1  0.14180000  0.15750000  0.23508000  1.0 0.1091964631
C  C18  1  0.14400000  0.11620000  0.27191000  1.0 -0.0986131553
C  C19  1  0.14580000  0.04240000  0.26850000  1.0 -0.1301090152
C  C20  1  0.14780000  0.01100000  0.22930000  1.0 0.0586843224
C  C21  1  0.24560000  0.59070000  0.84958000  1.0 0.6012555337
C  C22  1  0.31850000  0.64290000  0.83040000  1.0 -0.3412805346
C  C23  1  0.30740000  0.71990000  0.84520000  1.0 -0.0919279899
C  C24  1  0.37450000  0.77280000  0.82250000  1.0 -0.3330220046
C  C25  1  0.36780000  0.85050000  0.83879000  1.0 0.5833863555
C  C26  1  0.09970000  0.48830000  0.77460000  1.0 0.071085984
C  C27  1  0.10540000  0.37280000  0.79960000  1.0 -0.0037479674
C  C28  1  0.10170000  0.46470000  0.73280000  1.0 -0.1378392396
C  C29  1  0.10430000  0.34430000  0.75950000  1.0 0.071085984
C  C30  1  0.10210000  0.39070000  0.72580000  1.0 -0.0799821397
C  C31  1  0.22570000  0.08980000  0.90250000  1.0 0.6012555337
C  C32  1  0.15090000  0.14170000  0.92080000  1.0 -0.3412805346
C  C33  1  0.16290000  0.21830000  0.90410000  1.0 -0.0986131553
C  C34  1  0.09150000  0.27130000  0.92380000  1.0 -0.3242313103
C  C35  1  0.10020000  0.34830000  0.90730000  1.0 0.585727313
C  C36  1  0.37560000  0.97960000  0.97450000  1.0 0.0586843224
C  C37  1  0.38240000  0.94960000  0.01450000  1.0 -0.1301090152
C  C38  1  0.38060000  0.87530000  0.01910000  1.0 -0.0986131553
C  C39  1  0.37260000  0.83270000  0.98330000  1.0 0.0983886918
C  C40  1  0.36520000  0.86660000  0.94462000  1.0 0.0144664547
C  C41  1  0.38070000  0.64740000  0.01280000  1.0 0.1091964631
C  C42  1  0.37460000  0.60620000  0.97620000  1.0 -0.0919279899
C  C43  1  0.37180000  0.53130000  0.97980000  1.0 -0.1378392396
C  C44  1  0.37530000  0.50040000  0.02000000  1.0 0.071085984
C  C45  1  0.38580000  0.61270000  0.05110000  1.0 -0.0062296876
C  C46  1  0.35930000  0.12170000  0.80345000  1.0 -0.0062296876
C  C47  1  0.35820000  0.15750000  0.76492000  1.0 0.1091964631
C  C48  1  0.35600000  0.11620000  0.72809000  1.0 -0.0986131553
C  C49  1  0.35420000  0.04240000  0.73150000  1.0 -0.1301090152
C  C50  1  0.35220000  0.01100000  0.77070000  1.0 0.0586843224
C  C51  1  0.25440000  0.59070000  0.15042000  1.0 0.6012555337
C  C52  1  0.18150000  0.64290000  0.16960000  1.0 -0.3452726366
C  C53  1  0.19260000  0.71990000  0.15480000  1.0 -0.0919279899
C  C54  1  0.12550000  0.77280000  0.17750000  1.0 -0.3330220046
C  C55  1  0.13220000  0.85050000  0.16121000  1.0 0.5833863555
C  C56  1  0.40030000  0.48830000  0.22540000  1.0 0.071085984
C  C57  1  0.39460000  0.37280000  0.20040000  1.0 -0.0037479674
C  C58  1  0.39830000  0.46470000  0.26720000  1.0 -0.1378392396
C  C59  1  0.39570000  0.34430000  0.24050000  1.0 0.071085984
C  C60  1  0.39790000  0.39070000  0.27420000  1.0 -0.0799821397
C  C61  1  0.22570000  0.41020000  0.59750000  1.0 0.6012555337
C  C62  1  0.15090000  0.35830000  0.57920000  1.0 -0.3412805346
C  C63  1  0.16290000  0.28170000  0.59590000  1.0 -0.0986131553
C  C64  1  0.09150000  0.22870000  0.57620000  1.0 -0.3242313103
C  C65  1  0.10020000  0.15170000  0.59270000  1.0 0.585727313
C  C66  1  0.37560000  0.52040000  0.52550000  1.0 0.0586843224
C  C67  1  0.38240000  0.55040000  0.48550000  1.0 -0.1301090152
C  C68  1  0.38060000  0.62470000  0.48090000  1.0 -0.0986131553
C  C69  1  0.37260000  0.66730000  0.51670000  1.0 0.0983886918
C  C70  1  0.36520000  0.63340000  0.55538000  1.0 0.0144664547
C  C71  1  0.38070000  0.85260000  0.48720000  1.0 0.1091964631
C  C72  1  0.37460000  0.89380000  0.52380000  1.0 -0.0919279899
C  C73  1  0.37180000  0.96870000  0.52020000  1.0 -0.1378392396
C  C74  1  0.37530000  0.99960000  0.48000000  1.0 0.071085984
C  C75  1  0.38580000  0.88730000  0.44890000  1.0 -0.0062296876
C  C76  1  0.35930000  0.37830000  0.69655000  1.0 -0.0062296876
C  C77  1  0.35820000  0.34250000  0.73508000  1.0 0.1091964631
C  C78  1  0.35600000  0.38380000  0.77191000  1.0 -0.0986131553
C  C79  1  0.35420000  0.45760000  0.76850000  1.0 -0.1301090152
C  C80  1  0.35220000  0.48900000  0.72930000  1.0 0.0586843224
C  C81  1  0.25440000  0.90930000  0.34958000  1.0 0.6012555337
C  C82  1  0.18150000  0.85710000  0.33040000  1.0 -0.3452726366
C  C83  1  0.19260000  0.78010000  0.34520000  1.0 -0.0919279899
C  C84  1  0.12550000  0.72720000  0.32250000  1.0 -0.3330220046
C  C85  1  0.13220000  0.64950000  0.33879000  1.0 0.5833863555
C  C86  1  0.40030000  0.01170000  0.27460000  1.0 0.071085984
C  C87  1  0.39460000  0.12720000  0.29960000  1.0 -0.0037479674
C  C88  1  0.39830000  0.03530000  0.23280000  1.0 -0.1378392396
C  C89  1  0.39570000  0.15570000  0.25950000  1.0 0.071085984
C  C90  1  0.39790000  0.10930000  0.22580000  1.0 -0.0799821397
C  C91  1  0.27430000  0.41020000  0.40250000  1.0 0.6012555337
C  C92  1  0.34910000  0.35830000  0.42080000  1.0 -0.3412805346
C  C93  1  0.33710000  0.28170000  0.40410000  1.0 -0.0986131553
C  C94  1  0.40850000  0.22870000  0.42380000  1.0 -0.3242313103
C  C95  1  0.39980000  0.15170000  0.40730000  1.0 0.585727313
C  C96  1  0.12440000  0.52040000  0.47450000  1.0 0.0586843224
C  C97  1  0.11760000  0.55040000  0.51450000  1.0 -0.1301090152
C  C98  1  0.11940000  0.62470000  0.51910000  1.0 -0.0986131553
C  C99  1  0.12740000  0.66730000  0.48330000  1.0 0.0983886918
C  C100  1  0.13480000  0.63340000  0.44462000  1.0 0.0144664547
C  C101  1  0.11930000  0.85260000  0.51280000  1.0 0.1091964631
C  C102  1  0.12540000  0.89380000  0.47620000  1.0 -0.0919279899
C  C103  1  0.12820000  0.96870000  0.47980000  1.0 -0.1378392396
C  C104  1  0.12470000  0.99960000  0.52000000  1.0 0.071085984
C  C105  1  0.11420000  0.88730000  0.55110000  1.0 -0.0062296876
C  C106  1  0.14070000  0.37830000  0.30345000  1.0 -0.0062296876
C  C107  1  0.14180000  0.34250000  0.26492000  1.0 0.1091964631
C  C108  1  0.14400000  0.38380000  0.22809000  1.0 -0.0986131553
C  C109  1  0.14580000  0.45760000  0.23150000  1.0 -0.1301090152
C  C110  1  0.14780000  0.48900000  0.27070000  1.0 0.0586843224
C  C111  1  0.24560000  0.90930000  0.65042000  1.0 0.6012555337
C  C112  1  0.31850000  0.85710000  0.66960000  1.0 -0.3412805346
C  C113  1  0.30740000  0.78010000  0.65480000  1.0 -0.0919279899
C  C114  1  0.37450000  0.72720000  0.67750000  1.0 -0.3330220046
C  C115  1  0.36780000  0.64950000  0.66121000  1.0 0.5833863555
C  C116  1  0.09970000  0.01170000  0.72540000  1.0 0.071085984
C  C117  1  0.10540000  0.12720000  0.70040000  1.0 -0.0037479674
C  C118  1  0.10170000  0.03530000  0.76720000  1.0 -0.1378392396
C  C119  1  0.10430000  0.15570000  0.74050000  1.0 0.071085984
C  C120  1  0.10210000  0.10930000  0.77420000  1.0 -0.0799821397
C  C121  1  0.72570000  0.91020000  0.90250000  1.0 0.6012555337
C  C122  1  0.65090000  0.85830000  0.92080000  1.0 -0.3412805346
C  C123  1  0.66290000  0.78170000  0.90410000  1.0 -0.0986131553
C  C124  1  0.59150000  0.72870000  0.92380000  1.0 -0.3242313103
C  C125  1  0.60020000  0.65170000  0.90730000  1.0 0.585727313
C  C126  1  0.87560000  0.02040000  0.97450000  1.0 0.0586843224
C  C127  1  0.88240000  0.05040000  0.01450000  1.0 -0.1301090152
C  C128  1  0.88060000  0.12470000  0.01910000  1.0 -0.0986131553
C  C129  1  0.87260000  0.16730000  0.98330000  1.0 0.0983886918
C  C130  1  0.86520000  0.13340000  0.94462000  1.0 0.0144664547
C  C131  1  0.88070000  0.35260000  0.01280000  1.0 0.1091964631
C  C132  1  0.87460000  0.39380000  0.97620000  1.0 -0.0919279899
C  C133  1  0.87180000  0.46870000  0.97980000  1.0 -0.1378392396
C  C134  1  0.87530000  0.49960000  0.02000000  1.0 0.071085984
C  C135  1  0.88580000  0.38730000  0.05110000  1.0 -0.0062296876
C  C136  1  0.85930000  0.87830000  0.80345000  1.0 -0.0062296876
C  C137  1  0.85820000  0.84250000  0.76492000  1.0 0.1091964631
C  C138  1  0.85600000  0.88380000  0.72809000  1.0 -0.0986131553
C  C139  1  0.85420000  0.95760000  0.73150000  1.0 -0.1301090152
C  C140  1  0.85220000  0.98900000  0.77070000  1.0 0.0586843224
C  C141  1  0.75440000  0.40930000  0.15042000  1.0 0.6012555337
C  C142  1  0.68150000  0.35710000  0.16960000  1.0 -0.3412805346
C  C143  1  0.69260000  0.28010000  0.15480000  1.0 -0.0919279899
C  C144  1  0.62550000  0.22720000  0.17750000  1.0 -0.3330220046
C  C145  1  0.63220000  0.14950000  0.16121000  1.0 0.5833863555
C  C146  1  0.90030000  0.51170000  0.22540000  1.0 0.071085984
C  C147  1  0.89460000  0.62720000  0.20040000  1.0 -0.0037479674
C  C148  1  0.89830000  0.53530000  0.26720000  1.0 -0.1378392396
C  C149  1  0.89570000  0.65570000  0.24050000  1.0 0.071085984
C  C150  1  0.89790000  0.60930000  0.27420000  1.0 -0.0799821397
C  C151  1  0.77430000  0.91020000  0.09750000  1.0 0.6012555337
C  C152  1  0.84910000  0.85830000  0.07920000  1.0 -0.3412805346
C  C153  1  0.83710000  0.78170000  0.09590000  1.0 -0.0986131553
C  C154  1  0.90850000  0.72870000  0.07620000  1.0 -0.3242313103
C  C155  1  0.89980000  0.65170000  0.09270000  1.0 0.585727313
C  C156  1  0.62440000  0.02040000  0.02550000  1.0 0.0586843224
C  C157  1  0.61760000  0.05040000  0.98550000  1.0 -0.1301090152
C  C158  1  0.61940000  0.12470000  0.98090000  1.0 -0.0986131553
C  C159  1  0.62740000  0.16730000  0.01670000  1.0 0.0983886918
C  C160  1  0.63480000  0.13340000  0.05538000  1.0 0.0144664547
C  C161  1  0.61930000  0.35260000  0.98720000  1.0 0.1091964631
C  C162  1  0.62540000  0.39380000  0.02380000  1.0 -0.0919279899
C  C163  1  0.62820000  0.46870000  0.02020000  1.0 -0.1378392396
C  C164  1  0.62470000  0.49960000  0.98000000  1.0 0.071085984
C  C165  1  0.61420000  0.38730000  0.94890000  1.0 -0.0062296876
C  C166  1  0.64070000  0.87830000  0.19655000  1.0 -0.0062296876
C  C167  1  0.64180000  0.84250000  0.23508000  1.0 0.1091964631
C  C168  1  0.64400000  0.88380000  0.27191000  1.0 -0.0986131553
C  C169  1  0.64580000  0.95760000  0.26850000  1.0 -0.1301090152
C  C170  1  0.64780000  0.98900000  0.22930000  1.0 0.0586843224
C  C171  1  0.74560000  0.40930000  0.84958000  1.0 0.6012555337
C  C172  1  0.81850000  0.35710000  0.83040000  1.0 -0.3412805346
C  C173  1  0.80740000  0.28010000  0.84520000  1.0 -0.0919279899
C  C174  1  0.87450000  0.22720000  0.82250000  1.0 -0.3330220046
C  C175  1  0.86780000  0.14950000  0.83879000  1.0 0.5833863555
C  C176  1  0.59970000  0.51170000  0.77460000  1.0 0.071085984
C  C177  1  0.60540000  0.62720000  0.79960000  1.0 -0.0037479674
C  C178  1  0.60170000  0.53530000  0.73280000  1.0 -0.1378392396
C  C179  1  0.60430000  0.65570000  0.75950000  1.0 0.071085984
C  C180  1  0.60210000  0.60930000  0.72580000  1.0 -0.0799821397
C  C181  1  0.77430000  0.58980000  0.40250000  1.0 0.6012555337
C  C182  1  0.84910000  0.64170000  0.42080000  1.0 -0.3412805346
C  C183  1  0.83710000  0.71830000  0.40410000  1.0 -0.0986131553
C  C184  1  0.90850000  0.77130000  0.42380000  1.0 -0.3242313103
C  C185  1  0.89980000  0.84830000  0.40730000  1.0 0.585727313
C  C186  1  0.62440000  0.47960000  0.47450000  1.0 0.0586843224
C  C187  1  0.61760000  0.44960000  0.51450000  1.0 -0.1301090152
C  C188  1  0.61940000  0.37530000  0.51910000  1.0 -0.0986131553
C  C189  1  0.62740000  0.33270000  0.48330000  1.0 0.0983886918
C  C190  1  0.63480000  0.36660000  0.44462000  1.0 0.015011554
C  C191  1  0.61930000  0.14740000  0.51280000  1.0 0.1091964631
C  C192  1  0.62540000  0.10620000  0.47620000  1.0 -0.0919279899
C  C193  1  0.62820000  0.03130000  0.47980000  1.0 -0.1378392396
C  C194  1  0.62470000  0.00040000  0.52000000  1.0 0.071085984
C  C195  1  0.61420000  0.11270000  0.55110000  1.0 -0.0062296876
C  C196  1  0.64070000  0.62170000  0.30345000  1.0 -0.0062296876
C  C197  1  0.64180000  0.65750000  0.26492000  1.0 0.1091964631
C  C198  1  0.64400000  0.61620000  0.22809000  1.0 -0.0986131553
C  C199  1  0.64580000  0.54240000  0.23150000  1.0 -0.1301090152
C  C200  1  0.64780000  0.51100000  0.27070000  1.0 0.0586843224
C  C201  1  0.74560000  0.09070000  0.65042000  1.0 0.6012555337
C  C202  1  0.81850000  0.14290000  0.66960000  1.0 -0.3412805346
C  C203  1  0.80740000  0.21990000  0.65480000  1.0 -0.0919279899
C  C204  1  0.87450000  0.27280000  0.67750000  1.0 -0.3330220046
C  C205  1  0.86780000  0.35050000  0.66121000  1.0 0.5833863555
C  C206  1  0.59970000  0.98830000  0.72540000  1.0 0.071085984
C  C207  1  0.60540000  0.87280000  0.70040000  1.0 -0.0037479674
C  C208  1  0.60170000  0.96470000  0.76720000  1.0 -0.1378392396
C  C209  1  0.60430000  0.84430000  0.74050000  1.0 0.071085984
C  C210  1  0.60210000  0.89070000  0.77420000  1.0 -0.0799821397
C  C211  1  0.72570000  0.58980000  0.59750000  1.0 0.6012555337
C  C212  1  0.65090000  0.64170000  0.57920000  1.0 -0.3412805346
C  C213  1  0.66290000  0.71830000  0.59590000  1.0 -0.0986131553
C  C214  1  0.59150000  0.77130000  0.57620000  1.0 -0.3242313103
C  C215  1  0.60020000  0.84830000  0.59270000  1.0 0.585727313
C  C216  1  0.87560000  0.47960000  0.52550000  1.0 0.0586843224
C  C217  1  0.88240000  0.44960000  0.48550000  1.0 -0.1301090152
C  C218  1  0.88060000  0.37530000  0.48090000  1.0 -0.0986131553
C  C219  1  0.87260000  0.33270000  0.51670000  1.0 0.0983886918
C  C220  1  0.86520000  0.36660000  0.55538000  1.0 0.0144664547
C  C221  1  0.88070000  0.14740000  0.48720000  1.0 0.1091964631
C  C222  1  0.87460000  0.10620000  0.52380000  1.0 -0.0919279899
C  C223  1  0.87180000  0.03130000  0.52020000  1.0 -0.1378392396
C  C224  1  0.87530000  0.00040000  0.48000000  1.0 0.071085984
C  C225  1  0.88580000  0.11270000  0.44890000  1.0 -0.0062296876
C  C226  1  0.85930000  0.62170000  0.69655000  1.0 -0.0062296876
C  C227  1  0.85820000  0.65750000  0.73508000  1.0 0.1091964631
C  C228  1  0.85600000  0.61620000  0.77191000  1.0 -0.0986131553
C  C229  1  0.85420000  0.54240000  0.76850000  1.0 -0.1301090152
C  C230  1  0.85220000  0.51100000  0.72930000  1.0 0.0586843224
C  C231  1  0.75440000  0.09070000  0.34958000  1.0 0.6012555337
C  C232  1  0.68150000  0.14290000  0.33040000  1.0 -0.3412805346
C  C233  1  0.69260000  0.21990000  0.34520000  1.0 -0.0919279899
C  C234  1  0.62550000  0.27280000  0.32250000  1.0 -0.3330220046
C  C235  1  0.63220000  0.35050000  0.33879000  1.0 0.5833863555
C  C236  1  0.90030000  0.98830000  0.27460000  1.0 0.071085984
C  C237  1  0.89460000  0.87280000  0.29960000  1.0 -0.0037479674
C  C238  1  0.89830000  0.96470000  0.23280000  1.0 -0.1378392396
C  C239  1  0.89570000  0.84430000  0.25950000  1.0 0.071085984
C  C240  1  0.89790000  0.89070000  0.22580000  1.0 -0.0799821397
N  N1  1  0.14150000  0.04840000  0.19370000  1.0 -0.2319580229
N  N2  1  0.13250000  0.93900000  0.06014000  1.0 -0.2185274802
N  N3  1  0.13060000  0.75400000  0.01904000  1.0 -0.11902005
N  N4  1  0.11630000  0.72520000  0.98498000  1.0 -0.1127422066
N  N5  1  0.11730000  0.53960000  0.94490000  1.0 -0.2413010062
N  N6  1  0.14150000  0.23490000  0.23270000  1.0 -0.1301090152
N  N7  1  0.10430000  0.44480000  0.80710000  1.0 -0.2185274802
N  N8  1  0.10410000  0.25110000  0.76640000  1.0 -0.0357149379
N  N9  1  0.35850000  0.04840000  0.80630000  1.0 -0.2319580229
N  N10  1  0.36750000  0.93900000  0.93986000  1.0 -0.2185274802
N  N11  1  0.36940000  0.75400000  0.98096000  1.0 -0.11902005
N  N12  1  0.38370000  0.72520000  0.01502000  1.0 -0.1127422066
N  N13  1  0.38270000  0.53960000  0.05510000  1.0 -0.2413010062
N  N14  1  0.35850000  0.23490000  0.76730000  1.0 -0.1301090152
N  N15  1  0.39570000  0.44480000  0.19290000  1.0 -0.2147037597
N  N16  1  0.39590000  0.25110000  0.23360000  1.0 -0.0341835977
N  N17  1  0.35850000  0.45160000  0.69370000  1.0 -0.2319580229
N  N18  1  0.36750000  0.56100000  0.56014000  1.0 -0.2185274802
N  N19  1  0.36940000  0.74600000  0.51904000  1.0 -0.11902005
N  N20  1  0.38370000  0.77480000  0.48498000  1.0 -0.1127422066
N  N21  1  0.38270000  0.96040000  0.44490000  1.0 -0.2413010062
N  N22  1  0.35850000  0.26510000  0.73270000  1.0 -0.1301090152
N  N23  1  0.39570000  0.05520000  0.30710000  1.0 -0.2147037597
N  N24  1  0.39590000  0.24890000  0.26640000  1.0 -0.0341835977
N  N25  1  0.14150000  0.45160000  0.30630000  1.0 -0.2319580229
N  N26  1  0.13250000  0.56100000  0.43986000  1.0 -0.2185274802
N  N27  1  0.13060000  0.74600000  0.48096000  1.0 -0.11902005
N  N28  1  0.11630000  0.77480000  0.51502000  1.0 -0.1127422066
N  N29  1  0.11730000  0.96040000  0.55510000  1.0 -0.2413010062
N  N30  1  0.14150000  0.26510000  0.26730000  1.0 -0.1301090152
N  N31  1  0.10430000  0.05520000  0.69290000  1.0 -0.2185274802
N  N32  1  0.10410000  0.24890000  0.73360000  1.0 -0.0357149379
N  N33  1  0.85850000  0.95160000  0.80630000  1.0 -0.2319580229
N  N34  1  0.86750000  0.06100000  0.93986000  1.0 -0.2185274802
N  N35  1  0.86940000  0.24600000  0.98096000  1.0 -0.11902005
N  N36  1  0.88370000  0.27480000  0.01502000  1.0 -0.1127422066
N  N37  1  0.88270000  0.46040000  0.05510000  1.0 -0.2413010062
N  N38  1  0.85850000  0.76510000  0.76730000  1.0 -0.1301090152
N  N39  1  0.89570000  0.55520000  0.19290000  1.0 -0.2185274802
N  N40  1  0.89590000  0.74890000  0.23360000  1.0 -0.0357149379
N  N41  1  0.64150000  0.95160000  0.19370000  1.0 -0.2319580229
N  N42  1  0.63250000  0.06100000  0.06014000  1.0 -0.2185274802
N  N43  1  0.63060000  0.24600000  0.01904000  1.0 -0.11902005
N  N44  1  0.61630000  0.27480000  0.98498000  1.0 -0.1127422066
N  N45  1  0.61730000  0.46040000  0.94490000  1.0 -0.2413010062
N  N46  1  0.64150000  0.76510000  0.23270000  1.0 -0.1301090152
N  N47  1  0.60430000  0.55520000  0.80710000  1.0 -0.2185274802
N  N48  1  0.60410000  0.74890000  0.76640000  1.0 -0.0357149379
N  N49  1  0.64150000  0.54840000  0.30630000  1.0 -0.2319580229
N  N50  1  0.63250000  0.43900000  0.43986000  1.0 -0.2185274802
N  N51  1  0.63060000  0.25400000  0.48096000  1.0 -0.11902005
N  N52  1  0.61630000  0.22520000  0.51502000  1.0 -0.1127422066
N  N53  1  0.61730000  0.03960000  0.55510000  1.0 -0.2413010062
N  N54  1  0.64150000  0.73490000  0.26730000  1.0 -0.1301090152
N  N55  1  0.60430000  0.94480000  0.69290000  1.0 -0.2147037597
N  N56  1  0.60410000  0.75110000  0.73360000  1.0 -0.0357149379
N  N57  1  0.85850000  0.54840000  0.69370000  1.0 -0.2319580229
N  N58  1  0.86750000  0.43900000  0.56014000  1.0 -0.2185274802
N  N59  1  0.86940000  0.25400000  0.51904000  1.0 -0.11902005
N  N60  1  0.88370000  0.22520000  0.48498000  1.0 -0.1127422066
N  N61  1  0.88270000  0.03960000  0.44490000  1.0 -0.2413010062
N  N62  1  0.85850000  0.73490000  0.73270000  1.0 -0.1301090152
N  N63  1  0.89570000  0.94480000  0.30710000  1.0 -0.2185274802
N  N64  1  0.89590000  0.75110000  0.26640000  1.0 -0.0357149379
O  O1  1  0.30380000  0.03250000  0.11455000  1.0 -0.5611345432
O  O2  1  0.18450000  0.10460000  0.09499000  1.0 -0.5611345432
O  O3  1  0.95420000  0.53530000  0.87009000  1.0 -0.6443703435
O  O4  1  0.47540000  0.38190000  0.10083000  1.0 -0.5513272198
O  O5  1  0.98270000  0.03270000  0.11732000  1.0 -0.6466121973
O  O6  1  0.31620000  0.37650000  0.09800000  1.0 -0.5611345432
O  O7  1  0.15600000  0.60570000  0.84920000  1.0 -0.5513272198
O  O8  1  0.27570000  0.53100000  0.86433000  1.0 -0.5714707883
O  O9  1  0.44390000  0.88380000  0.84715000  1.0 -0.5513272198
O  O10  1  0.28530000  0.87990000  0.84416000  1.0 -0.5513272198
O  O11  1  0.19620000  0.03250000  0.88545000  1.0 -0.5611345432
O  O12  1  0.31550000  0.10460000  0.90501000  1.0 -0.5611345432
O  O13  1  0.54580000  0.53530000  0.12991000  1.0 -0.6443703435
O  O14  1  0.02460000  0.38190000  0.89917000  1.0 -0.5513272198
O  O15  1  0.51730000  0.03270000  0.88268000  1.0 -0.6466121973
O  O16  1  0.18380000  0.37650000  0.90200000  1.0 -0.5611345432
O  O17  1  0.34400000  0.60570000  0.15080000  1.0 -0.5513272198
O  O18  1  0.22430000  0.53100000  0.13567000  1.0 -0.5714707883
O  O19  1  0.05610000  0.88380000  0.15285000  1.0 -0.5513272198
O  O20  1  0.21470000  0.87990000  0.15584000  1.0 -0.5513272198
O  O21  1  0.19620000  0.46750000  0.61455000  1.0 -0.5611345432
O  O22  1  0.31550000  0.39540000  0.59499000  1.0 -0.5611345432
O  O23  1  0.54580000  0.96470000  0.37009000  1.0 -0.6443703435
O  O24  1  0.02460000  0.11810000  0.60083000  1.0 -0.5513272198
O  O25  1  0.51730000  0.46730000  0.61732000  1.0 -0.6466121973
O  O26  1  0.18380000  0.12350000  0.59800000  1.0 -0.5611345432
O  O27  1  0.34400000  0.89430000  0.34920000  1.0 -0.5513272198
O  O28  1  0.22430000  0.96900000  0.36433000  1.0 -0.5714707883
O  O29  1  0.05610000  0.61620000  0.34715000  1.0 -0.5513272198
O  O30  1  0.21470000  0.62010000  0.34416000  1.0 -0.5513272198
O  O31  1  0.30380000  0.46750000  0.38545000  1.0 -0.5611345432
O  O32  1  0.18450000  0.39540000  0.40501000  1.0 -0.5611345432
O  O33  1  0.95420000  0.96470000  0.62991000  1.0 -0.6443703435
O  O34  1  0.47540000  0.11810000  0.39917000  1.0 -0.5513272198
O  O35  1  0.98270000  0.46730000  0.38268000  1.0 -0.6466121973
O  O36  1  0.31620000  0.12350000  0.40200000  1.0 -0.5611345432
O  O37  1  0.15600000  0.89430000  0.65080000  1.0 -0.5513272198
O  O38  1  0.27570000  0.96900000  0.63567000  1.0 -0.5714707883
O  O39  1  0.44390000  0.61620000  0.65285000  1.0 -0.5513272198
O  O40  1  0.28530000  0.62010000  0.65584000  1.0 -0.5513272198
O  O41  1  0.69620000  0.96750000  0.88545000  1.0 -0.5611345432
O  O42  1  0.81550000  0.89540000  0.90501000  1.0 -0.5611345432
O  O43  1  0.04580000  0.46470000  0.12991000  1.0 -0.6443703435
O  O44  1  0.52460000  0.61810000  0.89917000  1.0 -0.5513272198
O  O45  1  0.01730000  0.96730000  0.88268000  1.0 -0.6466121973
O  O46  1  0.68380000  0.62350000  0.90200000  1.0 -0.5611345432
O  O47  1  0.84400000  0.39430000  0.15080000  1.0 -0.5513272198
O  O48  1  0.72430000  0.46900000  0.13567000  1.0 -0.5714707883
O  O49  1  0.55610000  0.11620000  0.15285000  1.0 -0.5513272198
O  O50  1  0.71470000  0.12010000  0.15584000  1.0 -0.5513272198
O  O51  1  0.80380000  0.96750000  0.11455000  1.0 -0.5611345432
O  O52  1  0.68450000  0.89540000  0.09499000  1.0 -0.5611345432
O  O53  1  0.45420000  0.46470000  0.87009000  1.0 -0.6466121973
O  O54  1  0.97540000  0.61810000  0.10083000  1.0 -0.5513272198
O  O55  1  0.48270000  0.96730000  0.11732000  1.0 -0.6466121973
O  O56  1  0.81620000  0.62350000  0.09800000  1.0 -0.5611345432
O  O57  1  0.65600000  0.39430000  0.84920000  1.0 -0.5513272198
O  O58  1  0.77570000  0.46900000  0.86433000  1.0 -0.5714707883
O  O59  1  0.94390000  0.11620000  0.84715000  1.0 -0.5513272198
O  O60  1  0.78530000  0.12010000  0.84416000  1.0 -0.5513272198
O  O61  1  0.80380000  0.53250000  0.38545000  1.0 -0.5611345432
O  O62  1  0.68450000  0.60460000  0.40501000  1.0 -0.5611345432
O  O63  1  0.45420000  0.03530000  0.62991000  1.0 -0.6466121973
O  O64  1  0.97540000  0.88190000  0.39917000  1.0 -0.5513272198
O  O65  1  0.48270000  0.53270000  0.38268000  1.0 -0.6466121973
O  O66  1  0.81620000  0.87650000  0.40200000  1.0 -0.5611345432
O  O67  1  0.65600000  0.10570000  0.65080000  1.0 -0.5513272198
O  O68  1  0.77570000  0.03100000  0.63567000  1.0 -0.5714707883
O  O69  1  0.94390000  0.38380000  0.65285000  1.0 -0.5513272198
O  O70  1  0.78530000  0.37990000  0.65584000  1.0 -0.5513272198
O  O71  1  0.69620000  0.53250000  0.61455000  1.0 -0.5611345432
O  O72  1  0.81550000  0.60460000  0.59499000  1.0 -0.5611345432
O  O73  1  0.04580000  0.03530000  0.37009000  1.0 -0.6443703435
O  O74  1  0.52460000  0.88190000  0.60083000  1.0 -0.5513272198
O  O75  1  0.01730000  0.53270000  0.61732000  1.0 -0.6466121973
O  O76  1  0.68380000  0.87650000  0.59800000  1.0 -0.5611345432
O  O77  1  0.84400000  0.10570000  0.34920000  1.0 -0.5513272198
O  O78  1  0.72430000  0.03100000  0.36433000  1.0 -0.5714707883
O  O79  1  0.55610000  0.38380000  0.34715000  1.0 -0.5513272198
O  O80  1  0.71470000  0.37990000  0.34416000  1.0 -0.5513272198
