# DDEC6 charges by PACMAN v1.1 (https://github.com/mtap-research/PACMAN-charge/)
data_KOCWEF_FSR_pacman
_symmetry_space_group_name_H-M   'P 1'
_cell_length_a   12.62610000
_cell_length_b   12.62610000
_cell_length_c   42.55900000
_cell_angle_alpha   90.00000000
_cell_angle_beta   90.00000000
_cell_angle_gamma   90.00000000
_symmetry_Int_Tables_number   1
_chemical_formula_structural   Mn4H22C37N17O11
_chemical_formula_sum   'Mn16 H88 C148 N68 O44'
_cell_volume   6784.68773710
_cell_formula_units_Z   4
loop_
 _symmetry_equiv_pos_site_id
 _symmetry_equiv_pos_as_xyz
  1  'x, y, z'
loop_
 _atom_site_type_symbol
 _atom_site_label
 _atom_site_symmetry_multiplicity
 _atom_site_fract_x
 _atom_site_fract_y
 _atom_site_fract_z
 _atom_site_occupancy
 _atom_site_charge
Mn  Mn1  1  0.70921000  0.74747000  0.11110000  1.0 0.7997287443
Mn  Mn2  1  0.29079000  0.25253000  0.61110000  1.0 0.7997287443
Mn  Mn3  1  0.25253000  0.29079000  0.38890000  1.0 0.7997287443
Mn  Mn4  1  0.74747000  0.70921000  0.88890000  1.0 0.7997287443
Mn  Mn5  1  0.92006000  0.84778000  0.16891000  1.0 0.9176954707
Mn  Mn6  1  0.07994000  0.15222000  0.66891000  1.0 0.9176954707
Mn  Mn7  1  0.15222000  0.07994000  0.33109000  1.0 0.9176954707
Mn  Mn8  1  0.84778000  0.92006000  0.83109000  1.0 0.9176954707
Mn  Mn9  1  0.42013000  0.65219000  0.08104000  1.0 0.811113521
Mn  Mn10  1  0.57987000  0.34781000  0.58104000  1.0 0.811113521
Mn  Mn11  1  0.34781000  0.57987000  0.41896000  1.0 0.811113521
Mn  Mn12  1  0.65219000  0.42013000  0.91896000  1.0 0.811113521
Mn  Mn13  1  0.20932000  0.75244000  0.13899000  1.0 0.811113521
Mn  Mn14  1  0.79068000  0.24756000  0.63899000  1.0 0.811113521
Mn  Mn15  1  0.24756000  0.79068000  0.36101000  1.0 0.811113521
Mn  Mn16  1  0.75244000  0.20932000  0.86101000  1.0 0.8156332305
H  H1  1  0.80300000  0.42960000  0.11890000  1.0 0.129013828
H  H2  1  0.19700000  0.57040000  0.61890000  1.0 0.129013828
H  H3  1  0.57040000  0.19700000  0.38110000  1.0 0.129013828
H  H4  1  0.42960000  0.80300000  0.88110000  1.0 0.129013828
H  H5  1  0.30510000  0.07230000  0.13360000  1.0 0.129013828
H  H6  1  0.69490000  0.92770000  0.63360000  1.0 0.129013828
H  H7  1  0.92770000  0.69490000  0.36640000  1.0 0.129013828
H  H8  1  0.07230000  0.30510000  0.86640000  1.0 0.129013828
H  H9  1  0.54780000  0.17200000  0.10710000  1.0 0.129013828
H  H10  1  0.45220000  0.82800000  0.60710000  1.0 0.129013828
H  H11  1  0.82800000  0.45220000  0.39290000  1.0 0.129013828
H  H12  1  0.17200000  0.54780000  0.89290000  1.0 0.129013828
H  H13  1  0.84120000  0.25600000  0.13000000  1.0 0.1213876313
H  H14  1  0.15880000  0.74400000  0.63000000  1.0 0.1213876313
H  H15  1  0.74400000  0.15880000  0.37000000  1.0 0.1213876313
H  H16  1  0.25600000  0.84120000  0.87000000  1.0 0.1213876313
H  H17  1  0.50800000  0.34480000  0.09460000  1.0 0.129013828
H  H18  1  0.49200000  0.65520000  0.59460000  1.0 0.129013828
H  H19  1  0.65520000  0.49200000  0.40540000  1.0 0.129013828
H  H20  1  0.34480000  0.50800000  0.90540000  1.0 0.129013828
H  H21  1  0.24640000  0.98460000  0.23910000  1.0 0.1381829089
H  H22  1  0.75360000  0.01540000  0.73910000  1.0 0.1381829089
H  H23  1  0.01540000  0.75360000  0.26090000  1.0 0.1381829089
H  H24  1  0.98460000  0.24640000  0.76090000  1.0 0.1381829089
H  H25  1  0.80830000  0.56410000  0.05920000  1.0 0.129013828
H  H26  1  0.19170000  0.43590000  0.55920000  1.0 0.129013828
H  H27  1  0.43590000  0.19170000  0.44080000  1.0 0.129013828
H  H28  1  0.56410000  0.80830000  0.94080000  1.0 0.129013828
H  H29  1  0.92640000  0.73340000  0.97030000  1.0 0.1381829089
H  H30  1  0.07360000  0.26660000  0.47030000  1.0 0.1381829089
H  H31  1  0.26660000  0.07360000  0.52970000  1.0 0.1381829089
H  H32  1  0.73340000  0.92640000  0.02970000  1.0 0.1381829089
H  H33  1  0.00620000  0.15380000  0.15420000  1.0 0.129013828
H  H34  1  0.99380000  0.84620000  0.65420000  1.0 0.129013828
H  H35  1  0.84620000  0.99380000  0.34580000  1.0 0.129013828
H  H36  1  0.15380000  0.00620000  0.84580000  1.0 0.129013828
H  H37  1  0.99920000  0.77280000  0.01930000  1.0 0.129013828
H  H38  1  0.00080000  0.22720000  0.51930000  1.0 0.129013828
H  H39  1  0.22720000  0.00080000  0.48070000  1.0 0.129013828
H  H40  1  0.77280000  0.99920000  0.98070000  1.0 0.129013828
H  H41  1  0.04800000  0.32900000  0.14450000  1.0 0.129013828
H  H42  1  0.95200000  0.67100000  0.64450000  1.0 0.129013828
H  H43  1  0.67100000  0.95200000  0.35550000  1.0 0.129013828
H  H44  1  0.32900000  0.04800000  0.85550000  1.0 0.129013828
H  H45  1  0.30970000  0.93670000  0.19130000  1.0 0.129013828
H  H46  1  0.69030000  0.06330000  0.69130000  1.0 0.129013828
H  H47  1  0.06330000  0.69030000  0.30870000  1.0 0.129013828
H  H48  1  0.93670000  0.30970000  0.80870000  1.0 0.129013828
H  H49  1  0.74390000  0.51890000  0.01010000  1.0 0.1213876313
H  H50  1  0.25610000  0.48110000  0.51010000  1.0 0.1213876313
H  H51  1  0.48110000  0.25610000  0.48990000  1.0 0.1213876313
H  H52  1  0.51890000  0.74390000  0.98990000  1.0 0.1213876313
H  H53  1  0.49560000  0.72200000  0.23120000  1.0 0.1381829089
H  H54  1  0.50440000  0.27800000  0.73120000  1.0 0.1381829089
H  H55  1  0.27800000  0.50440000  0.26880000  1.0 0.1381829089
H  H56  1  0.72200000  0.49560000  0.76880000  1.0 0.1381829089
H  H57  1  0.42390000  0.76310000  0.27850000  1.0 0.1381829089
H  H58  1  0.57610000  0.23690000  0.77850000  1.0 0.1381829089
H  H59  1  0.23690000  0.57610000  0.22150000  1.0 0.1381829089
H  H60  1  0.76310000  0.42390000  0.72150000  1.0 0.1381829089
H  H61  1  0.34300000  0.24360000  0.12070000  1.0 0.1213876313
H  H62  1  0.65700000  0.75640000  0.62070000  1.0 0.1213876313
H  H63  1  0.75640000  0.65700000  0.37930000  1.0 0.1213876313
H  H64  1  0.24360000  0.34300000  0.87930000  1.0 0.1213876313
H  H65  1  0.87710000  0.96230000  0.21900000  1.0 0.3995760611
H  H66  1  0.12290000  0.03770000  0.71900000  1.0 0.3995760611
H  H67  1  0.03770000  0.12290000  0.28100000  1.0 0.3995760611
H  H68  1  0.96230000  0.87710000  0.78100000  1.0 0.3995760611
H  H69  1  0.48200000  0.57120000  0.01600000  1.0 0.0872409499
H  H70  1  0.51800000  0.42880000  0.51600000  1.0 0.0872409499
H  H71  1  0.42880000  0.51800000  0.48400000  1.0 0.0872409499
H  H72  1  0.57120000  0.48200000  0.98400000  1.0 0.0872409499
H  H73  1  0.19130000  0.58850000  0.05310000  1.0 0.1046758225
H  H74  1  0.80870000  0.41150000  0.55310000  1.0 0.1046758225
H  H75  1  0.41150000  0.80870000  0.44690000  1.0 0.1046758225
H  H76  1  0.58850000  0.19130000  0.94690000  1.0 0.1046758225
H  H77  1  0.11670000  0.55070000  0.00490000  1.0 0.129013828
H  H78  1  0.88330000  0.44930000  0.50490000  1.0 0.129013828
H  H79  1  0.44930000  0.88330000  0.49510000  1.0 0.129013828
H  H80  1  0.55070000  0.11670000  0.99510000  1.0 0.129013828
H  H81  1  0.41190000  0.53230000  0.96730000  1.0 0.1213876313
H  H82  1  0.58810000  0.46770000  0.46730000  1.0 0.1213876313
H  H83  1  0.46770000  0.58810000  0.53270000  1.0 0.1213876313
H  H84  1  0.53230000  0.41190000  0.03270000  1.0 0.1213876313
H  H85  1  0.22190000  0.51930000  0.95770000  1.0 0.1130817315
H  H86  1  0.77810000  0.48070000  0.45770000  1.0 0.1130817315
H  H87  1  0.48070000  0.77810000  0.54230000  1.0 0.1130817315
H  H88  1  0.51930000  0.22190000  0.04230000  1.0 0.1130817315
C  C1  1  0.12510000  0.98190000  0.15050000  1.0 0.5877945056
C  C2  1  0.87490000  0.01810000  0.65050000  1.0 0.5877945056
C  C3  1  0.01810000  0.87490000  0.34950000  1.0 0.5877945056
C  C4  1  0.98190000  0.12510000  0.84950000  1.0 0.5877945056
C  C5  1  0.62530000  0.51970000  0.09971000  1.0 0.5877945056
C  C6  1  0.37470000  0.48030000  0.59971000  1.0 0.5877945056
C  C7  1  0.48030000  0.37470000  0.40029000  1.0 0.5877945056
C  C8  1  0.51970000  0.62530000  0.90029000  1.0 0.5877945056
C  C9  1  0.75170000  0.37750000  0.11620000  1.0 -0.1012519043
C  C10  1  0.24830000  0.62250000  0.61620000  1.0 -0.1012519043
C  C11  1  0.62250000  0.24830000  0.38380000  1.0 -0.1012519043
C  C12  1  0.37750000  0.75170000  0.88380000  1.0 -0.1012519043
C  C13  1  0.14970000  0.09430000  0.14460000  1.0 -0.0393781477
C  C14  1  0.85030000  0.90570000  0.64460000  1.0 -0.0393781477
C  C15  1  0.90570000  0.85030000  0.35540000  1.0 -0.0393781477
C  C16  1  0.09430000  0.14970000  0.85540000  1.0 -0.0393781477
C  C17  1  0.65010000  0.40450000  0.10540000  1.0 -0.0202202425
C  C18  1  0.34990000  0.59550000  0.60540000  1.0 -0.0202202425
C  C19  1  0.59550000  0.34990000  0.39460000  1.0 -0.0202202425
C  C20  1  0.40450000  0.65010000  0.89460000  1.0 -0.0202202425
C  C21  1  0.25260000  0.12360000  0.13510000  1.0 -0.0908627992
C  C22  1  0.74740000  0.87640000  0.63510000  1.0 -0.0908627992
C  C23  1  0.87640000  0.74740000  0.36490000  1.0 -0.0908627992
C  C24  1  0.12360000  0.25260000  0.86490000  1.0 -0.0908627992
C  C25  1  0.60010000  0.22350000  0.10890000  1.0 -0.1295042575
C  C26  1  0.39990000  0.77650000  0.60890000  1.0 -0.1295042575
C  C27  1  0.77650000  0.39990000  0.39110000  1.0 -0.1295042575
C  C28  1  0.22350000  0.60010000  0.89110000  1.0 -0.1201062494
C  C29  1  0.77420000  0.27360000  0.12260000  1.0 -0.1107523055
C  C30  1  0.22580000  0.72640000  0.62260000  1.0 -0.1107523055
C  C31  1  0.72640000  0.22580000  0.37740000  1.0 -0.1107523055
C  C32  1  0.27360000  0.77420000  0.87740000  1.0 -0.1107523055
C  C33  1  0.57540000  0.32740000  0.10180000  1.0 -0.1107523055
C  C34  1  0.42460000  0.67260000  0.60180000  1.0 -0.1107523055
C  C35  1  0.67260000  0.42460000  0.39820000  1.0 -0.1107523055
C  C36  1  0.32740000  0.57540000  0.89820000  1.0 -0.1107523055
C  C37  1  0.28780000  0.91020000  0.29655000  1.0 0.6005921125
C  C38  1  0.71220000  0.08980000  0.79655000  1.0 0.6005921125
C  C39  1  0.08980000  0.71220000  0.20345000  1.0 0.6005921125
C  C40  1  0.91020000  0.28780000  0.70345000  1.0 0.6005921125
C  C41  1  0.44660000  0.79240000  0.17436000  1.0 0.2427709332
C  C42  1  0.55340000  0.20760000  0.67436000  1.0 0.2427709332
C  C43  1  0.20760000  0.55340000  0.32564000  1.0 0.2427709332
C  C44  1  0.79240000  0.44660000  0.82564000  1.0 0.2427709332
C  C45  1  0.32980000  0.87920000  0.26420000  1.0 -0.0125345009
C  C46  1  0.67020000  0.12080000  0.76420000  1.0 -0.0125345009
C  C47  1  0.12080000  0.67020000  0.23580000  1.0 -0.0125345009
C  C48  1  0.87920000  0.32980000  0.73580000  1.0 -0.0125345009
C  C49  1  0.94610000  0.70770000  0.07552000  1.0 0.2450976601
C  C50  1  0.05390000  0.29230000  0.57552000  1.0 0.2450976601
C  C51  1  0.29230000  0.05390000  0.42448000  1.0 0.2427709332
C  C52  1  0.70770000  0.94610000  0.92448000  1.0 0.2450976601
C  C53  1  0.29570000  0.93010000  0.23750000  1.0 -0.1012519043
C  C54  1  0.70430000  0.06990000  0.73750000  1.0 -0.1012519043
C  C55  1  0.06990000  0.70430000  0.26250000  1.0 -0.1012519043
C  C56  1  0.93010000  0.29570000  0.76250000  1.0 -0.1012519043
C  C57  1  0.72720000  0.08480000  0.12480000  1.0 0.2240962466
C  C58  1  0.27280000  0.91520000  0.62480000  1.0 0.2240962466
C  C59  1  0.91520000  0.27280000  0.37520000  1.0 0.2240962466
C  C60  1  0.08480000  0.72720000  0.87520000  1.0 0.2240962466
C  C61  1  0.83130000  0.61970000  0.98583000  1.0 -0.0202202425
C  C62  1  0.16870000  0.38030000  0.48583000  1.0 -0.0202202425
C  C63  1  0.38030000  0.16870000  0.51417000  1.0 -0.0202202425
C  C64  1  0.61970000  0.83130000  0.01417000  1.0 -0.0202202425
C  C65  1  0.90520000  0.67720000  0.04464000  1.0 0.0406464228
C  C66  1  0.09480000  0.32280000  0.54464000  1.0 0.0406464228
C  C67  1  0.32280000  0.09480000  0.45536000  1.0 0.0406464228
C  C68  1  0.67720000  0.90520000  0.95536000  1.0 0.0406464228
C  C69  1  0.22880000  0.41500000  0.12660000  1.0 0.2132230444
C  C70  1  0.77120000  0.58500000  0.62660000  1.0 0.2132230444
C  C71  1  0.58500000  0.77120000  0.37340000  1.0 0.2132230444
C  C72  1  0.41500000  0.22880000  0.87340000  1.0 0.2132230444
C  C73  1  0.40440000  0.82240000  0.20602000  1.0 0.0455712123
C  C74  1  0.59560000  0.17760000  0.70602000  1.0 0.0455712123
C  C75  1  0.17760000  0.59560000  0.29398000  1.0 0.0455712123
C  C76  1  0.82240000  0.40440000  0.79398000  1.0 0.0455712123
C  C77  1  0.19890000  0.30690000  0.13200000  1.0 0.0455712123
C  C78  1  0.80110000  0.69310000  0.63200000  1.0 0.0455712123
C  C79  1  0.69310000  0.80110000  0.36800000  1.0 0.0455712123
C  C80  1  0.30690000  0.19890000  0.86800000  1.0 0.0455712123
C  C81  1  0.83300000  0.59940000  0.04150000  1.0 -0.1201062494
C  C82  1  0.16700000  0.40060000  0.54150000  1.0 -0.1201062494
C  C83  1  0.40060000  0.16700000  0.45850000  1.0 -0.1201062494
C  C84  1  0.59940000  0.83300000  0.95850000  1.0 -0.1201062494
C  C85  1  0.69980000  0.19400000  0.11840000  1.0 0.0406464228
C  C86  1  0.30020000  0.80600000  0.61840000  1.0 0.0406464228
C  C87  1  0.80600000  0.30020000  0.38160000  1.0 0.0406464228
C  C88  1  0.19400000  0.69980000  0.88160000  1.0 0.0406464228
C  C89  1  0.90360000  0.69740000  0.98810000  1.0 -0.1012519043
C  C90  1  0.09640000  0.30260000  0.48810000  1.0 -0.1012519043
C  C91  1  0.30260000  0.09640000  0.51190000  1.0 -0.1012519043
C  C92  1  0.69740000  0.90360000  0.01190000  1.0 -0.1012519043
C  C93  1  0.07440000  0.17180000  0.14790000  1.0 -0.0908627992
C  C94  1  0.92560000  0.82820000  0.64790000  1.0 -0.0908627992
C  C95  1  0.82820000  0.92560000  0.35210000  1.0 -0.0908627992
C  C96  1  0.17180000  0.07440000  0.85210000  1.0 -0.0908627992
C  C97  1  0.94470000  0.72350000  0.01770000  1.0 -0.1201062494
C  C98  1  0.05530000  0.27650000  0.51770000  1.0 -0.1201062494
C  C99  1  0.27650000  0.05530000  0.48230000  1.0 -0.1201062494
C  C100  1  0.72350000  0.94470000  0.98230000  1.0 -0.1201062494
C  C101  1  0.09960000  0.27740000  0.14180000  1.0 -0.1201062494
C  C102  1  0.90040000  0.72260000  0.64180000  1.0 -0.1201062494
C  C103  1  0.72260000  0.90040000  0.35820000  1.0 -0.1201062494
C  C104  1  0.27740000  0.09960000  0.85820000  1.0 -0.1201062494
C  C105  1  0.33333333  0.90130000  0.20910000  1.0 -0.1107523055
C  C106  1  0.66666667  0.09870000  0.70910000  1.0 -0.1201062494
C  C107  1  0.09870000  0.66666667  0.29090000  1.0 -0.1107523055
C  C108  1  0.90130000  0.33333333  0.79090000  1.0 -0.1107523055
C  C109  1  0.79500000  0.57160000  0.01185000  1.0 -0.1012519043
C  C110  1  0.20500000  0.42840000  0.51185000  1.0 -0.1012519043
C  C111  1  0.42840000  0.20500000  0.48815000  1.0 -0.1012519043
C  C112  1  0.57160000  0.79500000  0.98815000  1.0 -0.1012519043
C  C113  1  0.78870000  0.58950000  0.95383000  1.0 0.6052530339
C  C114  1  0.21130000  0.41050000  0.45383000  1.0 0.6005921125
C  C115  1  0.41050000  0.21130000  0.54617000  1.0 0.6005921125
C  C116  1  0.58950000  0.78870000  0.04617000  1.0 0.6005921125
C  C117  1  0.44260000  0.77300000  0.23270000  1.0 -0.1107523055
C  C118  1  0.55740000  0.22700000  0.73270000  1.0 -0.1107523055
C  C119  1  0.22700000  0.55740000  0.26730000  1.0 -0.1107523055
C  C120  1  0.77300000  0.44260000  0.76730000  1.0 -0.1107523055
C  C121  1  0.40200000  0.80000000  0.26070000  1.0 -0.1107523055
C  C122  1  0.59800000  0.20000000  0.76070000  1.0 -0.1107523055
C  C123  1  0.20000000  0.59800000  0.23930000  1.0 -0.1107523055
C  C124  1  0.80000000  0.40200000  0.73930000  1.0 -0.1107523055
C  C125  1  0.27600000  0.22620000  0.12810000  1.0 -0.1201062494
C  C126  1  0.72400000  0.77380000  0.62810000  1.0 -0.1201062494
C  C127  1  0.77380000  0.72400000  0.37190000  1.0 -0.1201062494
C  C128  1  0.22620000  0.27600000  0.87190000  1.0 -0.1201062494
C  C129  1  0.40900000  0.56680000  0.01350000  1.0 0.0667568637
C  C130  1  0.59100000  0.43320000  0.51350000  1.0 0.0667568637
C  C131  1  0.43320000  0.59100000  0.48650000  1.0 0.0667568637
C  C132  1  0.56680000  0.40900000  0.98650000  1.0 0.0667568637
C  C133  1  0.23440000  0.57740000  0.03570000  1.0 0.0763417935
C  C134  1  0.76560000  0.42260000  0.53570000  1.0 0.0763417935
C  C135  1  0.42260000  0.76560000  0.46430000  1.0 0.0763417935
C  C136  1  0.57740000  0.23440000  0.96430000  1.0 0.0763417935
C  C137  1  0.19010000  0.55410000  0.00630000  1.0 -0.1295042575
C  C138  1  0.80990000  0.44590000  0.50630000  1.0 -0.1295042575
C  C139  1  0.44590000  0.80990000  0.49370000  1.0 -0.1295042575
C  C140  1  0.55410000  0.19010000  0.99370000  1.0 -0.1295042575
C  C141  1  0.36530000  0.54330000  0.98390000  1.0 -0.1507161775
C  C142  1  0.63470000  0.45670000  0.48390000  1.0 -0.1507161775
C  C143  1  0.45670000  0.63470000  0.51610000  1.0 -0.1507161775
C  C144  1  0.54330000  0.36530000  0.01610000  1.0 -0.1507161775
C  C145  1  0.25110000  0.53470000  0.97730000  1.0 -0.0511366673
C  C146  1  0.74890000  0.46530000  0.47730000  1.0 -0.0511366673
C  C147  1  0.46530000  0.74890000  0.52270000  1.0 -0.0511366673
C  C148  1  0.53470000  0.25110000  0.02270000  1.0 -0.0511366673
N  N1  1  0.88740000  0.73500000  0.10014000  1.0 -0.2502859586
N  N2  1  0.11260000  0.26500000  0.60014000  1.0 -0.2502859586
N  N3  1  0.26500000  0.11260000  0.39986000  1.0 -0.2502859586
N  N4  1  0.73500000  0.88740000  0.89986000  1.0 -0.2502859586
N  N5  1  0.23130000  0.58330000  0.12623000  1.0 -0.0511366673
N  N6  1  0.76870000  0.41670000  0.62623000  1.0 -0.0511366673
N  N7  1  0.41670000  0.76870000  0.37377000  1.0 -0.0511366673
N  N8  1  0.58330000  0.23130000  0.87377000  1.0 -0.0511366673
N  N9  1  0.73150000  0.91770000  0.12398000  1.0 -0.0393781477
N  N10  1  0.26850000  0.08230000  0.62398000  1.0 -0.0299268083
N  N11  1  0.08230000  0.26850000  0.37602000  1.0 -0.0299268083
N  N12  1  0.91770000  0.73150000  0.87602000  1.0 -0.0393781477
N  N13  1  0.95740000  0.75960000  0.12292000  1.0 -0.0554214608
N  N14  1  0.04260000  0.24040000  0.62292000  1.0 -0.0554214608
N  N15  1  0.24040000  0.04260000  0.37708000  1.0 -0.0554214608
N  N16  1  0.75960000  0.95740000  0.87708000  1.0 -0.0554214608
N  N17  1  0.31150000  0.54850000  0.10883000  1.0 -0.0393781477
N  N18  1  0.68850000  0.45150000  0.60883000  1.0 -0.0393781477
N  N19  1  0.45150000  0.68850000  0.39117000  1.0 -0.0393781477
N  N20  1  0.54850000  0.31150000  0.89117000  1.0 -0.0393781477
N  N21  1  0.05360000  0.74520000  0.11242000  1.0 -0.0299268083
N  N22  1  0.94640000  0.25480000  0.61242000  1.0 -0.0299268083
N  N23  1  0.25480000  0.94640000  0.38758000  1.0 -0.0299268083
N  N24  1  0.74520000  0.05360000  0.88758000  1.0 -0.0299268083
N  N25  1  0.81010000  0.95050000  0.14100000  1.0 -0.0202202425
N  N26  1  0.18990000  0.04950000  0.64100000  1.0 -0.0202202425
N  N27  1  0.04950000  0.18990000  0.35900000  1.0 -0.0202202425
N  N28  1  0.95050000  0.81010000  0.85900000  1.0 -0.0202202425
N  N29  1  0.38840000  0.76560000  0.14993000  1.0 -0.233681762
N  N30  1  0.61160000  0.23440000  0.64993000  1.0 -0.233681762
N  N31  1  0.23440000  0.61160000  0.35007000  1.0 -0.233681762
N  N32  1  0.76560000  0.38840000  0.85007000  1.0 -0.233681762
N  N33  1  0.45710000  0.74070000  0.12691000  1.0 -0.0554214608
N  N34  1  0.54290000  0.25930000  0.62691000  1.0 -0.0554214608
N  N35  1  0.25930000  0.54290000  0.37309000  1.0 -0.0554214608
N  N36  1  0.74070000  0.45710000  0.87309000  1.0 -0.0554214608
N  N37  1  0.05000000  0.71440000  0.08231000  1.0 -0.233681762
N  N38  1  0.95000000  0.28560000  0.58231000  1.0 -0.233681762
N  N39  1  0.28560000  0.95000000  0.41769000  1.0 -0.233681762
N  N40  1  0.71440000  0.05000000  0.91769000  1.0 -0.233681762
N  N41  1  0.55030000  0.78510000  0.16763000  1.0 -0.2039162585
N  N42  1  0.44970000  0.21490000  0.66763000  1.0 -0.2039162585
N  N43  1  0.21490000  0.44970000  0.33237000  1.0 -0.2039162585
N  N44  1  0.78510000  0.55030000  0.83237000  1.0 -0.2039162585
N  N45  1  0.67760000  0.00000000  0.11290000  1.0 -0.2557730147
N  N46  1  0.32240000  0.00000000  0.61290000  1.0 -0.2502859586
N  N47  1  0.00000000  0.32240000  0.38710000  1.0 -0.2502859586
N  N48  1  0.00000000  0.67760000  0.88710000  1.0 -0.2502859586
N  N49  1  0.80990000  0.05650000  0.14190000  1.0 -0.2502859586
N  N50  1  0.19010000  0.94350000  0.64190000  1.0 -0.2502859586
N  N51  1  0.94350000  0.19010000  0.35810000  1.0 -0.2502859586
N  N52  1  0.05650000  0.80990000  0.85810000  1.0 -0.2502859586
N  N53  1  0.55300000  0.75460000  0.13843000  1.0 -0.0299268083
N  N54  1  0.44700000  0.24540000  0.63843000  1.0 -0.0299268083
N  N55  1  0.24540000  0.44700000  0.36157000  1.0 -0.0299268083
N  N56  1  0.75460000  0.55300000  0.86157000  1.0 -0.0299268083
N  N57  1  0.17690000  0.49970000  0.13710000  1.0 -0.2502859586
N  N58  1  0.82310000  0.50030000  0.63710000  1.0 -0.2502859586
N  N59  1  0.50030000  0.82310000  0.36290000  1.0 -0.2502859586
N  N60  1  0.49970000  0.17690000  0.86290000  1.0 -0.2502859586
N  N61  1  0.31020000  0.44400000  0.10800000  1.0 -0.2502859586
N  N62  1  0.68980000  0.55600000  0.60800000  1.0 -0.2502859586
N  N63  1  0.55600000  0.68980000  0.39200000  1.0 -0.2502859586
N  N64  1  0.44400000  0.31020000  0.89200000  1.0 -0.2502859586
N  N65  1  0.34250000  0.58330000  0.03840000  1.0 -0.2165384361
N  N66  1  0.65750000  0.41670000  0.53840000  1.0 -0.2165384361
N  N67  1  0.41670000  0.65750000  0.46160000  1.0 -0.2165384361
N  N68  1  0.58330000  0.34250000  0.96160000  1.0 -0.2165384361
O  O1  1  0.69400000  0.58460000  0.10859000  1.0 -0.5118993441
O  O2  1  0.30600000  0.41540000  0.60859000  1.0 -0.5118993441
O  O3  1  0.41540000  0.30600000  0.39141000  1.0 -0.5118993441
O  O4  1  0.58460000  0.69400000  0.89141000  1.0 -0.5118993441
O  O5  1  0.19290000  0.91430000  0.14162000  1.0 -0.5204399818
O  O6  1  0.80710000  0.08570000  0.64162000  1.0 -0.5204399818
O  O7  1  0.08570000  0.80710000  0.35838000  1.0 -0.5204399818
O  O8  1  0.91430000  0.19290000  0.85838000  1.0 -0.5204399818
O  O9  1  0.04120000  0.95980000  0.16325000  1.0 -0.5204399818
O  O10  1  0.95880000  0.04020000  0.66325000  1.0 -0.5204399818
O  O11  1  0.04020000  0.95880000  0.33675000  1.0 -0.5204399818
O  O12  1  0.95980000  0.04120000  0.83675000  1.0 -0.5204399818
O  O13  1  0.77850000  0.72710000  0.16416000  1.0 -0.1012519043
O  O14  1  0.22150000  0.27290000  0.66416000  1.0 -0.1012519043
O  O15  1  0.27290000  0.22150000  0.33584000  1.0 -0.1012519043
O  O16  1  0.72710000  0.77850000  0.83584000  1.0 -0.0908627992
O  O17  1  0.27860000  0.77420000  0.08571000  1.0 -0.2808920363
O  O18  1  0.72140000  0.22580000  0.58571000  1.0 -0.2808920363
O  O19  1  0.22580000  0.72140000  0.41429000  1.0 -0.2808920363
O  O20  1  0.77420000  0.27860000  0.91429000  1.0 -0.2808920363
O  O21  1  0.54030000  0.54050000  0.08665000  1.0 -0.533925868
O  O22  1  0.45970000  0.45950000  0.58665000  1.0 -0.5357279548
O  O23  1  0.45950000  0.45970000  0.41335000  1.0 -0.533925868
O  O24  1  0.54050000  0.54030000  0.91335000  1.0 -0.533925868
O  O25  1  0.29460000  0.84160000  0.31712000  1.0 -0.5357279548
O  O26  1  0.70540000  0.15840000  0.81712000  1.0 -0.533925868
O  O27  1  0.15840000  0.70540000  0.18288000  1.0 -0.5357279548
O  O28  1  0.84160000  0.29460000  0.68288000  1.0 -0.5357279548
O  O29  1  0.25130000  0.00130000  0.29972000  1.0 -0.4936716104
O  O30  1  0.74870000  0.99870000  0.79972000  1.0 -0.4936716104
O  O31  1  0.99870000  0.74870000  0.20028000  1.0 -0.4936716104
O  O32  1  0.00130000  0.25130000  0.70028000  1.0 -0.4936716104
O  O33  1  0.79480000  0.65900000  0.93279000  1.0 -0.533925868
O  O34  1  0.20520000  0.34100000  0.43279000  1.0 -0.533925868
O  O35  1  0.34100000  0.20520000  0.56721000  1.0 -0.533925868
O  O36  1  0.65900000  0.79480000  0.06721000  1.0 -0.533925868
O  O37  1  0.75060000  0.49880000  0.95076000  1.0 -0.5118993441
O  O38  1  0.24940000  0.50120000  0.45076000  1.0 -0.5118993441
O  O39  1  0.50120000  0.24940000  0.54924000  1.0 -0.5118993441
O  O40  1  0.49880000  0.75060000  0.04924000  1.0 -0.5118993441
O  O41  1  0.84100000  0.91400000  0.21182000  1.0 -0.8195511022
O  O42  1  0.15900000  0.08600000  0.71182000  1.0 -0.8195511022
O  O43  1  0.08600000  0.15900000  0.28818000  1.0 -0.8195511022
O  O44  1  0.91400000  0.84100000  0.78818000  1.0 -0.8195511022
