# DDEC6 charges by PACMAN v1.1 (https://github.com/mtap-research/PACMAN-charge/)
data_KODFIV_FSR_pacman
_symmetry_space_group_name_H-M   'P 1'
_cell_length_a   12.33940000
_cell_length_b   12.33940000
_cell_length_c   13.44440000
_cell_angle_alpha   78.38820000
_cell_angle_beta   101.61200000
_cell_angle_gamma   124.63500000
_symmetry_Int_Tables_number   1
_chemical_formula_structural   CoH16C22(SN3)2
_chemical_formula_sum   'Co2 H32 C44 S4 N12'
_cell_volume   1640.20862532
_cell_formula_units_Z   2
loop_
 _symmetry_equiv_pos_site_id
 _symmetry_equiv_pos_as_xyz
  1  'x, y, z'
loop_
 _atom_site_type_symbol
 _atom_site_label
 _atom_site_symmetry_multiplicity
 _atom_site_fract_x
 _atom_site_fract_y
 _atom_site_fract_z
 _atom_site_occupancy
 _atom_site_charge
Co  Co1  1  0.72790000  0.72790000  0.25000000  1.0 0.6708849542
Co  Co2  1  0.27210000  0.27210000  0.75000000  1.0 0.6708849542
H  H1  1  0.72240000  0.98780000  0.24100000  1.0 0.1089714216
H  H2  1  0.62730000  0.09490000  0.13530000  1.0 0.1220031924
H  H3  1  0.43580000  0.80180000  0.94990000  1.0 0.1285130205
H  H4  1  0.53080000  0.69460000  0.05560000  1.0 0.1089714216
H  H5  1  0.95850000  0.91490000  0.40610000  1.0 0.1089714216
H  H6  1  0.16250000  0.11790000  0.40430000  1.0 0.1285130205
H  H7  1  0.25280000  0.37240000  0.34230000  1.0 0.1285130205
H  H8  1  0.46550000  0.55990000  0.36110000  1.0 0.1014997373
H  H9  1  0.98780000  0.72240000  0.25900000  1.0 0.1089714216
H  H10  1  0.09490000  0.62730000  0.36470000  1.0 0.1220031924
H  H11  1  0.80180000  0.43580000  0.55010000  1.0 0.1285130205
H  H12  1  0.69460000  0.53080000  0.44440000  1.0 0.1089714216
H  H13  1  0.91490000  0.95850000  0.09390000  1.0 0.1089714216
H  H14  1  0.11790000  0.16250000  0.09570000  1.0 0.1285130205
H  H15  1  0.37240000  0.25280000  0.15770000  1.0 0.1285130205
H  H16  1  0.55990000  0.46550000  0.13890000  1.0 0.1014997373
H  H17  1  0.27760000  0.01220000  0.75900000  1.0 0.1089714216
H  H18  1  0.37270000  0.90510000  0.86470000  1.0 0.1220031924
H  H19  1  0.56420000  0.19820000  0.05010000  1.0 0.1285130205
H  H20  1  0.46920000  0.30540000  0.94440000  1.0 0.1089714216
H  H21  1  0.04150000  0.08510000  0.59390000  1.0 0.1089714216
H  H22  1  0.83750000  0.88210000  0.59570000  1.0 0.1285130205
H  H23  1  0.74720000  0.62760000  0.65770000  1.0 0.1285130205
H  H24  1  0.53450000  0.44010000  0.63890000  1.0 0.1014997373
H  H25  1  0.01220000  0.27760000  0.74100000  1.0 0.1089714216
H  H26  1  0.90510000  0.37270000  0.63530000  1.0 0.1220031924
H  H27  1  0.19820000  0.56420000  0.44990000  1.0 0.1285130205
H  H28  1  0.30540000  0.46920000  0.55560000  1.0 0.1089714216
H  H29  1  0.08510000  0.04150000  0.90610000  1.0 0.1089714216
H  H30  1  0.88210000  0.83750000  0.90430000  1.0 0.1285130205
H  H31  1  0.62760000  0.74720000  0.84230000  1.0 0.1285130205
H  H32  1  0.44010000  0.53450000  0.86110000  1.0 0.1014997373
C  C1  1  0.66410000  0.94990000  0.18190000  1.0 0.0779325239
C  C2  1  0.60800000  0.01400000  0.11900000  1.0 -0.1862131993
C  C3  1  0.52310000  0.95890000  0.03270000  1.0 0.1014997373
C  C4  1  0.49420000  0.83980000  0.00900000  1.0 -0.1862131993
C  C5  1  0.55030000  0.77570000  0.07200000  1.0 0.0779325239
C  C6  1  0.99110000  0.96490000  0.34300000  1.0 0.0601031281
C  C7  1  0.11120000  0.08480000  0.34200000  1.0 -0.1766584344
C  C8  1  0.31880000  0.38520000  0.30600000  1.0 -0.1862131993
C  C9  1  0.44370000  0.50230000  0.31300000  1.0 0.0779325239
C  C10  1  0.63800000  0.76400000  0.43200000  1.0 0.2716317273
C  C11  1  0.94990000  0.66410000  0.31810000  1.0 0.0779325239
C  C12  1  0.01400000  0.60800000  0.38100000  1.0 -0.1862131993
C  C13  1  0.95890000  0.52310000  0.46730000  1.0 0.1014997373
C  C14  1  0.83980000  0.49420000  0.49100000  1.0 -0.1862131993
C  C15  1  0.77570000  0.55030000  0.42800000  1.0 0.0779325239
C  C16  1  0.96490000  0.99110000  0.15700000  1.0 0.0601031281
C  C17  1  0.08480000  0.11120000  0.15800000  1.0 -0.1766584344
C  C18  1  0.38520000  0.31880000  0.19400000  1.0 -0.1862131993
C  C19  1  0.50230000  0.44370000  0.18700000  1.0 0.0779325239
C  C20  1  0.76400000  0.63800000  0.06800000  1.0 0.2716317273
C  C21  1  0.33590000  0.05010000  0.81810000  1.0 0.0779325239
C  C22  1  0.39200000  0.98600000  0.88100000  1.0 -0.1862131993
C  C23  1  0.47690000  0.04110000  0.96730000  1.0 0.1014997373
C  C24  1  0.50580000  0.16020000  0.99100000  1.0 -0.1862131993
C  C25  1  0.44970000  0.22430000  0.92800000  1.0 0.0779325239
C  C26  1  0.00890000  0.03510000  0.65700000  1.0 0.0601031281
C  C27  1  0.88880000  0.91520000  0.65800000  1.0 -0.1766584344
C  C28  1  0.68120000  0.61480000  0.69400000  1.0 -0.1862131993
C  C29  1  0.55630000  0.49770000  0.68700000  1.0 0.0779325239
C  C30  1  0.36200000  0.23600000  0.56800000  1.0 0.2716317273
C  C31  1  0.05010000  0.33590000  0.68190000  1.0 0.0779325239
C  C32  1  0.98600000  0.39200000  0.61900000  1.0 -0.1862131993
C  C33  1  0.04110000  0.47690000  0.53270000  1.0 0.1014997373
C  C34  1  0.16020000  0.50580000  0.50900000  1.0 -0.1862131993
C  C35  1  0.22430000  0.44970000  0.57200000  1.0 0.0779325239
C  C36  1  0.03510000  0.00890000  0.84300000  1.0 0.0601031281
C  C37  1  0.91520000  0.88880000  0.84200000  1.0 -0.1766584344
C  C38  1  0.61480000  0.68120000  0.80600000  1.0 -0.1862131993
C  C39  1  0.49770000  0.55630000  0.81300000  1.0 0.0779325239
C  C40  1  0.23600000  0.36200000  0.93200000  1.0 0.2716317273
C  C41  1  0.15600000  0.15600000  0.25000000  1.0 0.1014997373
C  C42  1  0.28600000  0.28600000  0.25000000  1.0 0.1014997373
C  C43  1  0.84400000  0.84400000  0.75000000  1.0 0.1014997373
C  C44  1  0.71400000  0.71400000  0.75000000  1.0 0.1014997373
S  S1  1  0.54710000  0.77390000  0.50650000  1.0 -0.3732345082
S  S2  1  0.77390000  0.54710000  0.99350000  1.0 -0.3732345082
S  S3  1  0.45290000  0.22610000  0.49350000  1.0 -0.3732345082
S  S4  1  0.22610000  0.45290000  0.00650000  1.0 -0.3732345082
N  N1  1  0.63520000  0.83080000  0.15820000  1.0 -0.2417465277
N  N2  1  0.69210000  0.75790000  0.38100000  1.0 -0.4476296507
N  N3  1  0.83080000  0.63520000  0.34180000  1.0 -0.2417465277
N  N4  1  0.75790000  0.69210000  0.11900000  1.0 -0.4476296507
N  N5  1  0.36480000  0.16920000  0.84180000  1.0 -0.2417465277
N  N6  1  0.30790000  0.24210000  0.61900000  1.0 -0.4476296507
N  N7  1  0.16920000  0.36480000  0.65820000  1.0 -0.2417465277
N  N8  1  0.24210000  0.30790000  0.88100000  1.0 -0.4476296507
N  N9  1  0.91600000  0.91600000  0.25000000  1.0 -0.2585762419
N  N10  1  0.53400000  0.53400000  0.25000000  1.0 -0.2254675902
N  N11  1  0.08400000  0.08400000  0.75000000  1.0 -0.2585762419
N  N12  1  0.46600000  0.46600000  0.75000000  1.0 -0.2254675902
