# DDEC6 charges by PACMAN v1.1 (https://github.com/mtap-research/PACMAN-charge/)
data_KOGSOQ_FSR_pacman
_symmetry_space_group_name_H-M   'P 1'
_cell_length_a   14.10460000
_cell_length_b   19.92600000
_cell_length_c   29.56930000
_cell_angle_alpha   90.00000000
_cell_angle_beta   118.48500000
_cell_angle_gamma   90.00000000
_symmetry_Int_Tables_number   1
_chemical_formula_structural   Zn3H32C52(NO2)6
_chemical_formula_sum   'Zn12 H128 C208 N24 O48'
_cell_volume   7304.35988283
_cell_formula_units_Z   4
loop_
 _symmetry_equiv_pos_site_id
 _symmetry_equiv_pos_as_xyz
  1  'x, y, z'
loop_
 _atom_site_type_symbol
 _atom_site_label
 _atom_site_symmetry_multiplicity
 _atom_site_fract_x
 _atom_site_fract_y
 _atom_site_fract_z
 _atom_site_occupancy
 _atom_site_charge
Zn  Zn1  1  0.88362000  0.57819000  0.35919000  1.0 0.8316784973
Zn  Zn2  1  0.88362000  0.92181000  0.85920000  1.0 0.8316784973
Zn  Zn3  1  0.85947000  0.75002000  0.35938000  1.0 1.0472813423
Zn  Zn4  1  0.85947000  0.74998000  0.85938000  1.0 1.0472813423
Zn  Zn5  1  0.83492000  0.92185000  0.35932000  1.0 0.8316784973
Zn  Zn6  1  0.83492000  0.57815000  0.85933000  1.0 0.8316784973
Zn  Zn7  1  0.11639000  0.07819000  0.14081000  1.0 0.8316784973
Zn  Zn8  1  0.11638000  0.42181000  0.64080000  1.0 0.8316784973
Zn  Zn9  1  0.14052000  0.25002000  0.14061000  1.0 1.0472813423
Zn  Zn10  1  0.14052000  0.24998000  0.64061000  1.0 1.0472813423
Zn  Zn11  1  0.16507000  0.42185000  0.14067000  1.0 0.8316784973
Zn  Zn12  1  0.16507000  0.07815000  0.64067000  1.0 0.8316784973
H  H1  1  0.84310000  0.74480000  0.49430000  1.0 0.1280346053
H  H2  1  0.84310000  0.75520000  0.99430000  1.0 0.1280346053
H  H3  1  0.84320000  0.74370000  0.57171000  1.0 0.1057175601
H  H4  1  0.84320000  0.75630000  0.07171000  1.0 0.1009470324
H  H5  1  0.86480000  0.54330000  0.57640000  1.0 0.1190885761
H  H6  1  0.86480000  0.95670000  0.07641000  1.0 0.1190885761
H  H7  1  0.44860000  0.54700000  0.13531000  1.0 0.1280346053
H  H8  1  0.44860000  0.95300000  0.63530000  1.0 0.1280346053
H  H9  1  0.60420000  0.54740000  0.21290000  1.0 0.1190885761
H  H10  1  0.60420000  0.95260000  0.71290000  1.0 0.1190885761
H  H11  1  0.55780000  0.74030000  0.23040000  1.0 0.1280346053
H  H12  1  0.55780000  0.75970000  0.73040000  1.0 0.1280346053
H  H13  1  0.40040000  0.73830000  0.15330000  1.0 0.1009470324
H  H14  1  0.40040000  0.76170000  0.65330000  1.0 0.1009470324
H  H15  1  0.88300000  0.46330000  0.42660000  1.0 0.1190885761
H  H16  1  0.88301000  0.03670000  0.92661000  1.0 0.1190885761
H  H17  1  0.86360000  0.34750000  0.42380000  1.0 0.1190885761
H  H18  1  0.86360000  0.15250000  0.92380000  1.0 0.1190885761
H  H19  1  0.84891000  0.34830000  0.28670000  1.0 0.1190885761
H  H20  1  0.84891000  0.15170000  0.78670000  1.0 0.1190885761
H  H21  1  0.85810000  0.46380000  0.28941000  1.0 0.1190885761
H  H22  1  0.85810000  0.03620000  0.78940000  1.0 0.1190885761
H  H23  1  0.87450000  0.54360000  0.50101000  1.0 0.1190885761
H  H24  1  0.87450000  0.95640000  0.00100000  1.0 0.1190885761
H  H25  1  0.19230000  0.58840000  0.34090000  1.0 0.1190885761
H  H26  1  0.19231000  0.91160000  0.84091000  1.0 0.1190885761
H  H27  1  0.32800000  0.63890000  0.33300000  1.0 0.1190885761
H  H28  1  0.32800000  0.86110000  0.83300000  1.0 0.1190885761
H  H29  1  0.23381000  0.81730000  0.35951000  1.0 0.1190885761
H  H30  1  0.23380000  0.68270000  0.85950000  1.0 0.1190885761
H  H31  1  0.09120000  0.76620000  0.36190000  1.0 0.1373382236
H  H32  1  0.09120000  0.73380000  0.86191000  1.0 0.1373382236
H  H33  1  0.90220000  0.73950000  0.65241000  1.0 0.1009470324
H  H34  1  0.90220000  0.76050000  0.15240000  1.0 0.1009470324
H  H35  1  0.82710000  0.54650000  0.63710000  1.0 0.1280346053
H  H36  1  0.82710000  0.95350000  0.13711000  1.0 0.1280346053
H  H37  1  0.90590000  0.73960000  0.73080000  1.0 0.1280346053
H  H38  1  0.90590000  0.76040000  0.23080000  1.0 0.1280346053
H  H39  1  0.81660000  0.54840000  0.71161000  1.0 0.1190885761
H  H40  1  0.81660000  0.95160000  0.21160000  1.0 0.1190885761
H  H41  1  0.33870000  0.86250000  0.33420000  1.0 0.1190885761
H  H42  1  0.33870000  0.63750000  0.83420000  1.0 0.1190885761
H  H43  1  0.48370000  0.68300000  0.35840000  1.0 0.1190885761
H  H44  1  0.48370000  0.81700000  0.85840000  1.0 0.1190885761
H  H45  1  0.48900000  0.91090000  0.33910000  1.0 0.1190885761
H  H46  1  0.48900000  0.58910000  0.83910000  1.0 0.1190885761
H  H47  1  0.63330000  0.73390000  0.36201000  1.0 0.1373382236
H  H48  1  0.63330000  0.76610000  0.86200000  1.0 0.1373382236
H  H49  1  0.30320000  0.74430000  0.07110000  1.0 0.1057175601
H  H50  1  0.30320000  0.75570000  0.57110000  1.0 0.1057175601
H  H51  1  0.28751000  0.54320000  0.07720000  1.0 0.1190885761
H  H52  1  0.28751000  0.95680000  0.57720000  1.0 0.1190885761
H  H53  1  0.14130000  0.74470000  0.99540000  1.0 0.1280346053
H  H54  1  0.14130000  0.75530000  0.49540000  1.0 0.1280346053
H  H55  1  0.12930000  0.54340000  0.99950000  1.0 0.1190885761
H  H56  1  0.12930000  0.95660000  0.49950000  1.0 0.1190885761
H  H57  1  0.97800000  0.15370000  0.42350000  1.0 0.1190885761
H  H58  1  0.97800000  0.34630000  0.92351000  1.0 0.1190885761
H  H59  1  0.72420000  0.15090000  0.28630000  1.0 0.1190885761
H  H60  1  0.72420000  0.34910000  0.78630000  1.0 0.1190885761
H  H61  1  0.72510000  0.03600000  0.28880000  1.0 0.1190885761
H  H62  1  0.72510000  0.46400000  0.78880000  1.0 0.1190885761
H  H63  1  0.97110000  0.03810000  0.42551000  1.0 0.1190885761
H  H64  1  0.97110000  0.46190000  0.92550000  1.0 0.1190885761
H  H65  1  0.15690000  0.24480000  0.00569000  1.0 0.1280346053
H  H66  1  0.15690000  0.25520000  0.50570000  1.0 0.1280346053
H  H67  1  0.15679000  0.24370000  0.92829000  1.0 0.1057175601
H  H68  1  0.15679000  0.25630000  0.42829000  1.0 0.1057175601
H  H69  1  0.13519000  0.04330000  0.92359000  1.0 0.1190885761
H  H70  1  0.13519000  0.45670000  0.42359000  1.0 0.1190885761
H  H71  1  0.55139000  0.04700000  0.36469000  1.0 0.1280346053
H  H72  1  0.55139000  0.45300000  0.86469000  1.0 0.1280346053
H  H73  1  0.39579000  0.04740000  0.28709000  1.0 0.1190885761
H  H74  1  0.39579000  0.45260000  0.78709000  1.0 0.1190885761
H  H75  1  0.44219000  0.24030000  0.26959000  1.0 0.1280346053
H  H76  1  0.44219000  0.25970000  0.76959000  1.0 0.1280346053
H  H77  1  0.59959000  0.23830000  0.34669000  1.0 0.1009470324
H  H78  1  0.59959000  0.26170000  0.84669000  1.0 0.1009470324
H  H79  1  0.11700000  0.96330000  0.07340000  1.0 0.1190885761
H  H80  1  0.11699000  0.53670000  0.57339000  1.0 0.1190885761
H  H81  1  0.13639000  0.84750000  0.07619000  1.0 0.1190885761
H  H82  1  0.13639000  0.65250000  0.57620000  1.0 0.1190885761
H  H83  1  0.15110000  0.84830000  0.21330000  1.0 0.1190885761
H  H84  1  0.15109000  0.65170000  0.71329000  1.0 0.1190885761
H  H85  1  0.14189000  0.96380000  0.21059000  1.0 0.1190885761
H  H86  1  0.14189000  0.53620000  0.71059000  1.0 0.1190885761
H  H87  1  0.12550000  0.04360000  0.99899000  1.0 0.1190885761
H  H88  1  0.12549000  0.45640000  0.49899000  1.0 0.1190885761
H  H89  1  0.80770000  0.08840000  0.15909000  1.0 0.1190885761
H  H90  1  0.80769000  0.41160000  0.65909000  1.0 0.1190885761
H  H91  1  0.67199000  0.13890000  0.16699000  1.0 0.1190885761
H  H92  1  0.67199000  0.36110000  0.66699000  1.0 0.1190885761
H  H93  1  0.76619000  0.31730000  0.14050000  1.0 0.1190885761
H  H94  1  0.76619000  0.18270000  0.64049000  1.0 0.1190885761
H  H95  1  0.90879000  0.26620000  0.13809000  1.0 0.1373382236
H  H96  1  0.90879000  0.23380000  0.63809000  1.0 0.1373382236
H  H97  1  0.09779000  0.23950000  0.84759000  1.0 0.1009470324
H  H98  1  0.09779000  0.26050000  0.34759000  1.0 0.1009470324
H  H99  1  0.17289000  0.04650000  0.86289000  1.0 0.1280346053
H  H100  1  0.17289000  0.45350000  0.36290000  1.0 0.1280346053
H  H101  1  0.09409000  0.23960000  0.76919000  1.0 0.1280346053
H  H102  1  0.09409000  0.26040000  0.26919000  1.0 0.1280346053
H  H103  1  0.18339000  0.04840000  0.78839000  1.0 0.1190885761
H  H104  1  0.18339000  0.45160000  0.28840000  1.0 0.1190885761
H  H105  1  0.66129000  0.36250000  0.16579000  1.0 0.1190885761
H  H106  1  0.66129000  0.13750000  0.66579000  1.0 0.1190885761
H  H107  1  0.51629000  0.18300000  0.14159000  1.0 0.1190885761
H  H108  1  0.51629000  0.31700000  0.64160000  1.0 0.1190885761
H  H109  1  0.51099000  0.41090000  0.16090000  1.0 0.1190885761
H  H110  1  0.51099000  0.08910000  0.66089000  1.0 0.1190885761
H  H111  1  0.36669000  0.23390000  0.13800000  1.0 0.1373382236
H  H112  1  0.36669000  0.26610000  0.63799000  1.0 0.1373382236
H  H113  1  0.69679000  0.24430000  0.42890000  1.0 0.1057175601
H  H114  1  0.69679000  0.25570000  0.92889000  1.0 0.1057175601
H  H115  1  0.71249000  0.04320000  0.42279000  1.0 0.1190885761
H  H116  1  0.71249000  0.45680000  0.92279000  1.0 0.1190885761
H  H117  1  0.85869000  0.24470000  0.50459000  1.0 0.1280346053
H  H118  1  0.85869000  0.25530000  0.00460000  1.0 0.1280346053
H  H119  1  0.87069000  0.04340000  0.50050000  1.0 0.1190885761
H  H120  1  0.87069000  0.45660000  0.00049000  1.0 0.1190885761
H  H121  1  0.02199000  0.65370000  0.07649000  1.0 0.1190885761
H  H122  1  0.02199000  0.84630000  0.57649000  1.0 0.1190885761
H  H123  1  0.27579000  0.65090000  0.21369000  1.0 0.1190885761
H  H124  1  0.27579000  0.84910000  0.71369000  1.0 0.1190885761
H  H125  1  0.27489000  0.53600000  0.21119000  1.0 0.1190885761
H  H126  1  0.27490000  0.96400000  0.71120000  1.0 0.1190885761
H  H127  1  0.02889000  0.53810000  0.07449000  1.0 0.1190885761
H  H128  1  0.02889000  0.96190000  0.57449000  1.0 0.1190885761
C  C1  1  0.85738000  0.64480000  0.48908000  1.0 -0.0309595074
C  C2  1  0.85738000  0.85520000  0.98908000  1.0 -0.0309595074
C  C3  1  0.84871000  0.70370000  0.51101000  1.0 -0.1098134809
C  C4  1  0.84871000  0.79630000  0.01100000  1.0 -0.1098134809
C  C5  1  0.84850000  0.70280000  0.55720000  1.0 -0.1726375926
C  C6  1  0.84850000  0.79720000  0.05720000  1.0 -0.1726375926
C  C7  1  0.86250000  0.58440000  0.56040000  1.0 -0.1518699184
C  C8  1  0.86250000  0.91560000  0.06041000  1.0 -0.1518699184
C  C9  1  0.85550000  0.64370000  0.58330000  1.0 0.0605824969
C  C10  1  0.85550000  0.85630000  0.08331000  1.0 0.0605824969
C  C11  1  0.60054000  0.64600000  0.22903000  1.0 -0.0309595074
C  C12  1  0.60054000  0.85400000  0.72903000  1.0 -0.0249007133
C  C13  1  0.47170000  0.58740000  0.15400000  1.0 -0.1567637862
C  C14  1  0.47170000  0.91260000  0.65400000  1.0 -0.1567637862
C  C15  1  0.56460000  0.58730000  0.20040000  1.0 -0.0984275228
C  C16  1  0.56460000  0.91270000  0.70041000  1.0 -0.0984275228
C  C17  1  0.53760000  0.70050000  0.21100000  1.0 -0.0984275228
C  C18  1  0.53760000  0.79950000  0.71100000  1.0 -0.0984275228
C  C19  1  0.44340000  0.69950000  0.16431000  1.0 -0.1763589911
C  C20  1  0.44340000  0.80050000  0.66430000  1.0 -0.1763589911
C  C21  1  0.70317000  0.64790000  0.27908000  1.0 0.5973535726
C  C22  1  0.70317000  0.85210000  0.77907000  1.0 0.5973535726
C  C23  1  0.85657000  0.64530000  0.72908000  1.0 -0.0309595074
C  C24  1  0.85657000  0.85470000  0.22907000  1.0 -0.0309595074
C  C25  1  0.85539000  0.64740000  0.77909000  1.0 0.5973535726
C  C26  1  0.85539000  0.85260000  0.27909000  1.0 0.5973535726
C  C27  1  0.87330000  0.43990000  0.39710000  1.0 0.0786641156
C  C28  1  0.87330000  0.06010000  0.89711000  1.0 0.0786641156
C  C29  1  0.86411000  0.37050000  0.39610000  1.0 -0.2818404784
C  C30  1  0.86410000  0.12950000  0.89610000  1.0 -0.2818404784
C  C31  1  0.85570000  0.33600000  0.35410000  1.0 0.1280346053
C  C32  1  0.85570000  0.16400000  0.85410000  1.0 0.1280346053
C  C33  1  0.85420000  0.37100000  0.31571000  1.0 -0.2993373362
C  C34  1  0.85420000  0.12900000  0.81571000  1.0 -0.2993373362
C  C35  1  0.86030000  0.44050000  0.31750000  1.0 0.1057175601
C  C36  1  0.86030000  0.05950000  0.81751000  1.0 0.1057175601
C  C37  1  0.86610000  0.58430000  0.51480000  1.0 -0.1098134809
C  C38  1  0.86610000  0.91570000  0.01480000  1.0 -0.1098134809
C  C39  1  0.86118000  0.64620000  0.43899000  1.0 0.5875089343
C  C40  1  0.86118000  0.85380000  0.93898000  1.0 0.5875089343
C  C41  1  0.12430000  0.67270000  0.35140000  1.0 -0.0309595074
C  C42  1  0.12430000  0.82730000  0.85140000  1.0 -0.0309595074
C  C43  1  0.03510000  0.63970000  0.35551000  1.0 0.5680723067
C  C44  1  0.03510000  0.86030000  0.85550000  1.0 0.5680723067
C  C45  1  0.19920000  0.63540000  0.34370000  1.0 -0.0940537229
C  C46  1  0.19920000  0.86460000  0.84370000  1.0 -0.0940537229
C  C47  1  0.28140000  0.66530000  0.34010000  1.0 -0.1518699184
C  C48  1  0.28140000  0.83470000  0.84010000  1.0 -0.1567637862
C  C49  1  0.29860000  0.73380000  0.34660000  1.0 0.0786641156
C  C50  1  0.29861000  0.76620000  0.84661000  1.0 0.0786641156
C  C51  1  0.22530000  0.77060000  0.35500000  1.0 -0.1417300117
C  C52  1  0.22531000  0.72940000  0.85501000  1.0 -0.1417300117
C  C53  1  0.14040000  0.73970000  0.35680000  1.0 -0.0834755649
C  C54  1  0.14040000  0.76030000  0.85680000  1.0 -0.0834755649
C  C55  1  0.88360000  0.70020000  0.66390000  1.0 -0.1763589911
C  C56  1  0.88360000  0.79980000  0.16390000  1.0 -0.1763589911
C  C57  1  0.83781000  0.58740000  0.65470000  1.0 -0.1518699184
C  C58  1  0.83781000  0.91260000  0.15471000  1.0 -0.1518699184
C  C59  1  0.88491000  0.70030000  0.71081000  1.0 -0.0984275228
C  C60  1  0.88490000  0.79970000  0.21080000  1.0 -0.0984275228
C  C61  1  0.83440000  0.58800000  0.70000000  1.0 -0.0940537229
C  C62  1  0.83440000  0.91200000  0.20000000  1.0 -0.0940537229
C  C63  1  0.39830000  0.83550000  0.34020000  1.0 -0.1567637862
C  C64  1  0.39831000  0.66450000  0.84020000  1.0 -0.1567637862
C  C65  1  0.48361000  0.72980000  0.35430000  1.0 -0.1417300117
C  C66  1  0.48360000  0.77020000  0.85430000  1.0 -0.1417300117
C  C67  1  0.48780000  0.86410000  0.34291000  1.0 -0.0940537229
C  C68  1  0.48780000  0.63590000  0.84290000  1.0 -0.0940537229
C  C69  1  0.57350000  0.76040000  0.35651000  1.0 -0.0834755649
C  C70  1  0.57350000  0.73960000  0.85650000  1.0 -0.0834755649
C  C71  1  0.57800000  0.82690000  0.35110000  1.0 -0.0309595074
C  C72  1  0.57800000  0.67310000  0.85110000  1.0 -0.0309595074
C  C73  1  0.67561000  0.86000000  0.35551000  1.0 0.5640133793
C  C74  1  0.67560000  0.64000000  0.85550000  1.0 0.5640133793
C  C75  1  0.39380000  0.76600000  0.34630000  1.0 0.0786641156
C  C76  1  0.39381000  0.73400000  0.84630000  1.0 0.0786641156
C  C77  1  0.85591000  0.64360000  0.63380000  1.0 0.0692148972
C  C78  1  0.85591000  0.85640000  0.13380000  1.0 0.0692148972
C  C79  1  0.41180000  0.64380000  0.13411000  1.0 0.0786641156
C  C80  1  0.41180000  0.85620000  0.63410000  1.0 0.0786641156
C  C81  1  0.31071000  0.64400000  0.08321000  1.0 0.0692148972
C  C82  1  0.31070000  0.85600000  0.58320000  1.0 0.0692148972
C  C83  1  0.26731000  0.70350000  0.05730000  1.0 -0.1726375926
C  C84  1  0.26730000  0.79650000  0.55730000  1.0 -0.1726375926
C  C85  1  0.25831000  0.58420000  0.06060000  1.0 -0.1518699184
C  C86  1  0.25830000  0.91580000  0.56061000  1.0 -0.1518699184
C  C87  1  0.17170000  0.70370000  0.01141000  1.0 -0.1098134809
C  C88  1  0.17170000  0.79630000  0.51140000  1.0 -0.1098134809
C  C89  1  0.12059000  0.64420000  0.98889000  1.0 -0.0405959388
C  C90  1  0.12058000  0.85580000  0.48888000  1.0 -0.0405959388
C  C91  1  0.16400000  0.58420000  0.01410000  1.0 -0.0984275228
C  C92  1  0.16400000  0.91580000  0.51411000  1.0 -0.0984275228
C  C93  1  0.01738000  0.64640000  0.93917000  1.0 0.5875089343
C  C94  1  0.01737000  0.85360000  0.43917000  1.0 0.5875089343
C  C95  1  0.85220000  0.16370000  0.35370000  1.0 0.1280346053
C  C96  1  0.85220000  0.33630000  0.85370000  1.0 0.1280346053
C  C97  1  0.92450000  0.13020000  0.39520000  1.0 -0.2929887002
C  C98  1  0.92450000  0.36980000  0.89521000  1.0 -0.2929887002
C  C99  1  0.77760000  0.12850000  0.31530000  1.0 -0.2993373362
C  C100  1  0.77760000  0.37150000  0.81530000  1.0 -0.2993373362
C  C101  1  0.77730000  0.05960000  0.31731000  1.0 0.0897851747
C  C102  1  0.77730000  0.44040000  0.81730000  1.0 0.0897851747
C  C103  1  0.92000000  0.06090000  0.39610000  1.0 0.0897851747
C  C104  1  0.92000000  0.43910000  0.89610000  1.0 0.0897851747
C  C105  1  0.14261000  0.14480000  0.01091000  1.0 -0.0309595074
C  C106  1  0.14261000  0.35520000  0.51092000  1.0 -0.0309595074
C  C107  1  0.15129000  0.20370000  0.98899000  1.0 -0.1098134809
C  C108  1  0.15129000  0.29630000  0.48900000  1.0 -0.1098134809
C  C109  1  0.15149000  0.20280000  0.94279000  1.0 -0.1726375926
C  C110  1  0.15149000  0.29720000  0.44279000  1.0 -0.1726375926
C  C111  1  0.13749000  0.08440000  0.93959000  1.0 -0.1518699184
C  C112  1  0.13750000  0.41560000  0.43960000  1.0 -0.1518699184
C  C113  1  0.14449000  0.14370000  0.91669000  1.0 0.0605824969
C  C114  1  0.14449000  0.35630000  0.41669000  1.0 0.0605824969
C  C115  1  0.39947000  0.14600000  0.27097000  1.0 -0.0249007133
C  C116  1  0.39946000  0.35400000  0.77096000  1.0 -0.0309595074
C  C117  1  0.52829000  0.08740000  0.34599000  1.0 -0.1567637862
C  C118  1  0.52829000  0.41260000  0.84599000  1.0 -0.1567637862
C  C119  1  0.43539000  0.08730000  0.29960000  1.0 -0.0940537229
C  C120  1  0.43539000  0.41270000  0.79959000  1.0 -0.0984275228
C  C121  1  0.46240000  0.20050000  0.28900000  1.0 -0.0984275228
C  C122  1  0.46239000  0.29950000  0.78899000  1.0 -0.0984275228
C  C123  1  0.55659000  0.19950000  0.33569000  1.0 -0.1726375926
C  C124  1  0.55659000  0.30050000  0.83569000  1.0 -0.1763589911
C  C125  1  0.29682000  0.14790000  0.22092000  1.0 0.5973535726
C  C126  1  0.29682000  0.35210000  0.72092000  1.0 0.5973535726
C  C127  1  0.14342000  0.14530000  0.77092000  1.0 -0.0309595074
C  C128  1  0.14342000  0.35470000  0.27093000  1.0 -0.0309595074
C  C129  1  0.14460000  0.14740000  0.72090000  1.0 0.5973535726
C  C130  1  0.14460000  0.35260000  0.22090000  1.0 0.5973535726
C  C131  1  0.12669000  0.93990000  0.10289000  1.0 0.0786641156
C  C132  1  0.12669000  0.56010000  0.60289000  1.0 0.0786641156
C  C133  1  0.13589000  0.87050000  0.10389000  1.0 -0.2818404784
C  C134  1  0.13589000  0.62950000  0.60389000  1.0 -0.2818404784
C  C135  1  0.14429000  0.83600000  0.14589000  1.0 0.1280346053
C  C136  1  0.14430000  0.66400000  0.64589000  1.0 0.1280346053
C  C137  1  0.14579000  0.87100000  0.18429000  1.0 -0.2993373362
C  C138  1  0.14579000  0.62900000  0.68429000  1.0 -0.2993373362
C  C139  1  0.13969000  0.94050000  0.18249000  1.0 0.1009470324
C  C140  1  0.13969000  0.55950000  0.68249000  1.0 0.1057175601
C  C141  1  0.13389000  0.08430000  0.98519000  1.0 -0.1098134809
C  C142  1  0.13389000  0.41570000  0.48519000  1.0 -0.1098134809
C  C143  1  0.13881000  0.14620000  0.06101000  1.0 0.5875089343
C  C144  1  0.13881000  0.35380000  0.56101000  1.0 0.5875089343
C  C145  1  0.87569000  0.17270000  0.14859000  1.0 -0.0309595074
C  C146  1  0.87569000  0.32730000  0.64859000  1.0 -0.0309595074
C  C147  1  0.96489000  0.13970000  0.14450000  1.0 0.5680723067
C  C148  1  0.96490000  0.36030000  0.64450000  1.0 0.5680723067
C  C149  1  0.80080000  0.13540000  0.15629000  1.0 -0.0940537229
C  C150  1  0.80080000  0.36460000  0.65629000  1.0 -0.0984275228
C  C151  1  0.71859000  0.16530000  0.15989000  1.0 -0.1518699184
C  C152  1  0.71859000  0.33470000  0.65990000  1.0 -0.1518699184
C  C153  1  0.70139000  0.23380000  0.15339000  1.0 0.0786641156
C  C154  1  0.70139000  0.26620000  0.65339000  1.0 0.0786641156
C  C155  1  0.77469000  0.27060000  0.14499000  1.0 -0.1417300117
C  C156  1  0.77469000  0.22940000  0.64499000  1.0 -0.1417300117
C  C157  1  0.85959000  0.23970000  0.14319000  1.0 -0.0834755649
C  C158  1  0.85959000  0.26030000  0.64319000  1.0 -0.0834755649
C  C159  1  0.11639000  0.20020000  0.83609000  1.0 -0.1763589911
C  C160  1  0.11639000  0.29980000  0.33609000  1.0 -0.1763589911
C  C161  1  0.16219000  0.08740000  0.84529000  1.0 -0.1518699184
C  C162  1  0.16219000  0.41260000  0.34530000  1.0 -0.1518699184
C  C163  1  0.11509000  0.20030000  0.78919000  1.0 -0.0984275228
C  C164  1  0.11509000  0.29970000  0.28919000  1.0 -0.0984275228
C  C165  1  0.16559000  0.08800000  0.80000000  1.0 -0.0940537229
C  C166  1  0.16559000  0.41200000  0.29999000  1.0 -0.0940537229
C  C167  1  0.60169000  0.33550000  0.15979000  1.0 -0.1567637862
C  C168  1  0.60169000  0.16450000  0.65979000  1.0 -0.1567637862
C  C169  1  0.51640000  0.22980000  0.14569000  1.0 -0.1417300117
C  C170  1  0.51639000  0.27020000  0.64570000  1.0 -0.1417300117
C  C171  1  0.51219000  0.36410000  0.15709000  1.0 -0.0940537229
C  C172  1  0.51219000  0.13590000  0.65709000  1.0 -0.0940537229
C  C173  1  0.42649000  0.26040000  0.14350000  1.0 -0.0834755649
C  C174  1  0.42650000  0.23960000  0.64350000  1.0 -0.0834755649
C  C175  1  0.42200000  0.32690000  0.14889000  1.0 -0.0309595074
C  C176  1  0.42200000  0.17310000  0.64889000  1.0 -0.0309595074
C  C177  1  0.32439000  0.36000000  0.14450000  1.0 0.5640133793
C  C178  1  0.32440000  0.14000000  0.64450000  1.0 0.5640133793
C  C179  1  0.60620000  0.26600000  0.15369000  1.0 0.0786641156
C  C180  1  0.60620000  0.23400000  0.65369000  1.0 0.0786641156
C  C181  1  0.14409000  0.14360000  0.86619000  1.0 0.0692148972
C  C182  1  0.14409000  0.35640000  0.36619000  1.0 0.0692148972
C  C183  1  0.58820000  0.14380000  0.36589000  1.0 0.0786641156
C  C184  1  0.58820000  0.35620000  0.86589000  1.0 0.0786641156
C  C185  1  0.68929000  0.14400000  0.41679000  1.0 0.0692148972
C  C186  1  0.68929000  0.35600000  0.91679000  1.0 0.0692148972
C  C187  1  0.73269000  0.20350000  0.44270000  1.0 -0.1726375926
C  C188  1  0.73269000  0.29650000  0.94269000  1.0 -0.1726375926
C  C189  1  0.74169000  0.08420000  0.43939000  1.0 -0.1518699184
C  C190  1  0.74169000  0.41580000  0.93939000  1.0 -0.1518699184
C  C191  1  0.82829000  0.20370000  0.48859000  1.0 -0.1098134809
C  C192  1  0.82829000  0.29630000  0.98860000  1.0 -0.1098134809
C  C193  1  0.87941000  0.14420000  0.51111000  1.0 -0.0405959388
C  C194  1  0.87941000  0.35580000  0.01111000  1.0 -0.0405959388
C  C195  1  0.83599000  0.08420000  0.48590000  1.0 -0.0984275228
C  C196  1  0.83599000  0.41580000  0.98589000  1.0 -0.0984275228
C  C197  1  0.98262000  0.14640000  0.56083000  1.0 0.5875089343
C  C198  1  0.98262000  0.35360000  0.06082000  1.0 0.5875089343
C  C199  1  0.14779000  0.66370000  0.14629000  1.0 0.1280346053
C  C200  1  0.14780000  0.83630000  0.64629000  1.0 0.1280346053
C  C201  1  0.07550000  0.63020000  0.10479000  1.0 -0.2929887002
C  C202  1  0.07549000  0.86980000  0.60479000  1.0 -0.2929887002
C  C203  1  0.22239000  0.62850000  0.18469000  1.0 -0.2993373362
C  C204  1  0.22239000  0.87150000  0.68470000  1.0 -0.2993373362
C  C205  1  0.22270000  0.55960000  0.18269000  1.0 0.0897851747
C  C206  1  0.22270000  0.94040000  0.68269000  1.0 0.0897851747
C  C207  1  0.07999000  0.56090000  0.10389000  1.0 0.0897851747
C  C208  1  0.08000000  0.93910000  0.60389000  1.0 0.0897851747
N  N1  1  0.84691000  0.02530000  0.35731000  1.0 -0.2146146422
N  N2  1  0.84691000  0.47470000  0.85732000  1.0 -0.2146146422
N  N3  1  0.86911000  0.47470000  0.35690000  1.0 -0.2210376804
N  N4  1  0.86911000  0.02530000  0.85691000  1.0 -0.2210376804
N  N5  1  0.87620000  0.23160000  0.36610000  1.0 0.0692148972
N  N6  1  0.87620000  0.26840000  0.86611000  1.0 0.0692148972
N  N7  1  0.83470000  0.26970000  0.33590000  1.0 0.0786641156
N  N8  1  0.83470000  0.23030000  0.83591000  1.0 0.0897851747
N  N9  1  0.86760000  0.25960000  0.37390000  1.0 0.0385955634
N  N10  1  0.86760000  0.24040000  0.87390000  1.0 0.0385955634
N  N11  1  0.82940000  0.24000000  0.33121000  1.0 0.0605824969
N  N12  1  0.82940000  0.26000000  0.83120000  1.0 0.0605824969
N  N13  1  0.15308000  0.52530000  0.14268000  1.0 -0.2146146422
N  N14  1  0.15308000  0.97470000  0.64268000  1.0 -0.2210376804
N  N15  1  0.13090000  0.97470000  0.14309000  1.0 -0.2210376804
N  N16  1  0.13089000  0.52530000  0.64309000  1.0 -0.2210376804
N  N17  1  0.12379000  0.73160000  0.13389000  1.0 0.0692148972
N  N18  1  0.12379000  0.76840000  0.63389000  1.0 0.0692148972
N  N19  1  0.16529000  0.76970000  0.16409000  1.0 0.0897851747
N  N20  1  0.16529000  0.73030000  0.66409000  1.0 0.0897851747
N  N21  1  0.13240000  0.75960000  0.12610000  1.0 0.0385955634
N  N22  1  0.13239000  0.74040000  0.62609000  1.0 0.0385955634
N  N23  1  0.17059000  0.74000000  0.16879000  1.0 0.0605824969
N  N24  1  0.17059000  0.76000000  0.66880000  1.0 0.0605824969
O  O1  1  0.75452000  0.59319000  0.29372000  1.0 -0.5493277734
O  O2  1  0.75452000  0.90681000  0.79371000  1.0 -0.5493277734
O  O3  1  0.72852000  0.70166000  0.30252000  1.0 -0.5416883404
O  O4  1  0.72852000  0.79834000  0.80252000  1.0 -0.5416883404
O  O5  1  0.98846000  0.70044000  0.91646000  1.0 -0.5416883404
O  O6  1  0.98847000  0.79956000  0.41646000  1.0 -0.5416883404
O  O7  1  0.96715000  0.59064000  0.92385000  1.0 -0.5579566484
O  O8  1  0.96715000  0.90936000  0.42385000  1.0 -0.5579566484
O  O9  1  0.88058000  0.59076000  0.42389000  1.0 -0.5579566484
O  O10  1  0.88058000  0.90924000  0.92388000  1.0 -0.5579566484
O  O11  1  0.87711000  0.70180000  0.80271000  1.0 -0.5493277734
O  O12  1  0.87711000  0.79820000  0.30271000  1.0 -0.5493277734
O  O13  1  0.83330000  0.59276000  0.79410000  1.0 -0.5493277734
O  O14  1  0.83330000  0.90724000  0.29410000  1.0 -0.5493277734
O  O15  1  0.02561000  0.57681000  0.35370000  1.0 -0.5295536866
O  O16  1  0.02560000  0.92319000  0.85370000  1.0 -0.5295536866
O  O17  1  0.96663000  0.67362000  0.36063000  1.0 -0.5295536866
O  O18  1  0.96663000  0.82638000  0.86063000  1.0 -0.5295536866
O  O19  1  0.68250000  0.92258000  0.35341000  1.0 -0.5161304449
O  O20  1  0.68250000  0.57742000  0.85340000  1.0 -0.5161304449
O  O21  1  0.75486000  0.82693000  0.36107000  1.0 -0.5161304449
O  O22  1  0.75486000  0.67307000  0.86106000  1.0 -0.5161304449
O  O23  1  0.84468000  0.70061000  0.41658000  1.0 -0.5416883404
O  O24  1  0.84468000  0.79939000  0.91658000  1.0 -0.5416883404
O  O25  1  0.24548000  0.09319000  0.20628000  1.0 -0.5493277734
O  O26  1  0.24548000  0.40681000  0.70628000  1.0 -0.5493277734
O  O27  1  0.27147000  0.20166000  0.19747000  1.0 -0.5416883404
O  O28  1  0.27147000  0.29834000  0.69747000  1.0 -0.5416883404
O  O29  1  0.01153000  0.20044000  0.58353000  1.0 -0.5416883404
O  O30  1  0.01153000  0.29956000  0.08353000  1.0 -0.5416883404
O  O31  1  0.03284000  0.09064000  0.57614000  1.0 -0.5579566484
O  O32  1  0.03284000  0.40936000  0.07615000  1.0 -0.5579566484
O  O33  1  0.11941000  0.09076000  0.07611000  1.0 -0.5579566484
O  O34  1  0.11941000  0.40924000  0.57611000  1.0 -0.5579566484
O  O35  1  0.12289000  0.20180000  0.69729000  1.0 -0.5493277734
O  O36  1  0.12289000  0.29820000  0.19729000  1.0 -0.5493277734
O  O37  1  0.16669000  0.09276000  0.70589000  1.0 -0.5493277734
O  O38  1  0.16670000  0.40724000  0.20589000  1.0 -0.5493277734
O  O39  1  0.97439000  0.07681000  0.14629000  1.0 -0.5295536866
O  O40  1  0.97439000  0.42319000  0.64629000  1.0 -0.5295536866
O  O41  1  0.03336000  0.17362000  0.13936000  1.0 -0.5295536866
O  O42  1  0.03336000  0.32638000  0.63936000  1.0 -0.5295536866
O  O43  1  0.31749000  0.42258000  0.14659000  1.0 -0.5161304449
O  O44  1  0.31750000  0.07742000  0.64660000  1.0 -0.5161304449
O  O45  1  0.24513000  0.32693000  0.13894000  1.0 -0.5161304449
O  O46  1  0.24514000  0.17307000  0.63894000  1.0 -0.5161304449
O  O47  1  0.15531000  0.20061000  0.08341000  1.0 -0.5416883404
O  O48  1  0.15531000  0.29939000  0.58342000  1.0 -0.5416883404
