# DDEC6 charges by PACMAN v1.1 (https://github.com/mtap-research/PACMAN-charge/)
data_KOGTIM_ASR_pacman
_symmetry_space_group_name_H-M   'P 1'
_cell_length_a   44.21670000
_cell_length_b   44.21670000
_cell_length_c   44.21670000
_cell_angle_alpha   109.47100000
_cell_angle_beta   109.47100000
_cell_angle_gamma   109.47100000
_symmetry_Int_Tables_number   1
_chemical_formula_structural   InC18N2O5
_chemical_formula_sum   'In36 C648 N72 O180'
_cell_volume   66548.86268960
_cell_formula_units_Z   36
loop_
 _symmetry_equiv_pos_site_id
 _symmetry_equiv_pos_as_xyz
  1  'x, y, z'
loop_
 _atom_site_type_symbol
 _atom_site_label
 _atom_site_symmetry_multiplicity
 _atom_site_fract_x
 _atom_site_fract_y
 _atom_site_fract_z
 _atom_site_occupancy
 _atom_site_charge
In  In1  1  0.32010000  0.10674000  0.21998000  1.0 1.4373454567
In  In2  1  0.38676000  0.10012000  0.28002000  1.0 1.4373454567
In  In3  1  0.11324000  0.39326000  0.71336000  1.0 1.4373454567
In  In4  1  0.17990000  0.39988000  0.78664000  1.0 1.4373454567
In  In5  1  0.78664000  0.17990000  0.39988000  1.0 1.4373454567
In  In6  1  0.71336000  0.11324000  0.39326000  1.0 1.4373454567
In  In7  1  0.28002000  0.38676000  0.10012000  1.0 1.4373454567
In  In8  1  0.21998000  0.32010000  0.10674000  1.0 1.4373454567
In  In9  1  0.39326000  0.71336000  0.11324000  1.0 1.4373454567
In  In10  1  0.39988000  0.78664000  0.17990000  1.0 1.4373454567
In  In11  1  0.10674000  0.21998000  0.32010000  1.0 1.4373454567
In  In12  1  0.10012000  0.28002000  0.38676000  1.0 1.4373454567
In  In13  1  0.29248000  0.04248000  0.25000000  1.0 1.5376075274
In  In14  1  0.20752000  0.45752000  0.75000000  1.0 1.5331785209
In  In15  1  0.75000000  0.20752000  0.45752000  1.0 1.5331785209
In  In16  1  0.25000000  0.29248000  0.04248000  1.0 1.5331785209
In  In17  1  0.45752000  0.75000000  0.20752000  1.0 1.5331785209
In  In18  1  0.04248000  0.25000000  0.29248000  1.0 1.5376075274
In  In19  1  0.60674000  0.82010000  0.71998000  1.0 1.4373454567
In  In20  1  0.60012000  0.88676000  0.78002000  1.0 1.4373454567
In  In21  1  0.89326000  0.61324000  0.21336000  1.0 1.4373454567
In  In22  1  0.89988000  0.67990000  0.28664000  1.0 1.4373454567
In  In23  1  0.67990000  0.28664000  0.89988000  1.0 1.4373454567
In  In24  1  0.61324000  0.21336000  0.89326000  1.0 1.4373454567
In  In25  1  0.88676000  0.78002000  0.60012000  1.0 1.4373454567
In  In26  1  0.82010000  0.71998000  0.60674000  1.0 1.4373454567
In  In27  1  0.21336000  0.89326000  0.61324000  1.0 1.4373454567
In  In28  1  0.28664000  0.89988000  0.67990000  1.0 1.4373454567
In  In29  1  0.71998000  0.60674000  0.82010000  1.0 1.4373454567
In  In30  1  0.78002000  0.60012000  0.88676000  1.0 1.4373454567
In  In31  1  0.54248000  0.79248000  0.75000000  1.0 1.5331785209
In  In32  1  0.95752000  0.70752000  0.25000000  1.0 1.5331785209
In  In33  1  0.70752000  0.25000000  0.95752000  1.0 1.5331785209
In  In34  1  0.79248000  0.75000000  0.54248000  1.0 1.5331785209
In  In35  1  0.25000000  0.95752000  0.70752000  1.0 1.5331785209
In  In36  1  0.75000000  0.54248000  0.79248000  1.0 1.5331785209
C  C1  1  0.26490000  0.09910000  0.25340000  1.0 0.6411756691
C  C2  1  0.25280000  0.02850000  0.16650000  1.0 0.6288619977
C  C3  1  0.24370000  0.11580000  0.26290000  1.0 -0.1291726972
C  C4  1  0.21860000  0.00490000  0.12990000  1.0 -0.1291726972
C  C5  1  0.38530000  0.10360000  0.20890000  1.0 0.6523434338
C  C6  1  0.23590000  0.13840000  0.24910000  1.0 0.0595073157
C  C7  1  0.22760000  0.10620000  0.28360000  1.0 0.0102062445
C  C8  1  0.22330000  0.01670000  0.10140000  1.0 0.1097165508
C  C9  1  0.18760000  0.97410000  0.12030000  1.0 0.0102062445
C  C10  1  0.40800000  0.10800000  0.18980000  1.0 -0.0320753026
C  C11  1  0.21320000  0.15300000  0.25720000  1.0 -0.060179574
C  C12  1  0.20480000  0.11900000  0.29120000  1.0 -0.0215046555
C  C13  1  0.19010000  0.98860000  0.06190000  1.0 -0.0320753026
C  C14  1  0.15400000  0.95150000  0.08570000  1.0 -0.0025337855
C  C15  1  0.43840000  0.10370000  0.19910000  1.0 0.017213614
C  C16  1  0.39670000  0.11600000  0.16030000  1.0 0.1277773472
C  C17  1  0.19860000  0.14380000  0.27780000  1.0 0.0854822546
C  C18  1  0.15570000  0.96550000  0.06140000  1.0 0.2398999591
C  C19  1  0.46030000  0.10930000  0.18440000  1.0 -0.1291726972
C  C20  1  0.42260000  0.12270000  0.14750000  1.0 -0.1706842937
C  C21  1  0.17550000  0.15970000  0.28620000  1.0 0.1809622103
C  C22  1  0.45200000  0.11870000  0.15810000  1.0 0.2891470692
C  C23  1  0.18500000  0.19530000  0.29390000  1.0 -0.1609607769
C  C24  1  0.14790000  0.14060000  0.29250000  1.0 -0.1706842937
C  C25  1  0.09400000  0.93200000  0.01800000  1.0 0.4793519388
C  C26  1  0.16540000  0.21170000  0.30270000  1.0 0.1277773472
C  C27  1  0.13020000  0.16160000  0.30260000  1.0 0.142411929
C  C28  1  0.34570000  0.01150000  0.24660000  1.0 0.6411756691
C  C29  1  0.36200000  0.08630000  0.33350000  1.0 0.6288619977
C  C30  1  0.35290000  0.98080000  0.23710000  1.0 -0.1291726972
C  C31  1  0.37500000  0.08870000  0.37010000  1.0 -0.1291726972
C  C32  1  0.39470000  0.17640000  0.29110000  1.0 0.6523434338
C  C33  1  0.38930000  0.98680000  0.25090000  1.0 0.0595073157
C  C34  1  0.32260000  0.94400000  0.21640000  1.0 0.0102062445
C  C35  1  0.41530000  0.12190000  0.39860000  1.0 0.1014153607
C  C36  1  0.35380000  0.06730000  0.37970000  1.0 0.0102062445
C  C37  1  0.41820000  0.21820000  0.31020000  1.0 -0.0371269799
C  C38  1  0.39580000  0.95600000  0.24280000  1.0 -0.060179574
C  C39  1  0.32780000  0.91360000  0.20880000  1.0 -0.0215046555
C  C40  1  0.42670000  0.12820000  0.43810000  1.0 -0.0320753026
C  C41  1  0.36580000  0.06830000  0.41430000  1.0 0.0102062445
C  C42  1  0.40460000  0.23930000  0.30090000  1.0 0.0499182801
C  C43  1  0.45570000  0.23640000  0.33970000  1.0 0.1489685026
C  C44  1  0.36600000  0.92080000  0.22220000  1.0 0.0828272905
C  C45  1  0.40410000  0.09430000  0.43860000  1.0 0.2251615442
C  C46  1  0.42490000  0.27590000  0.31560000  1.0 -0.1291726972
C  C47  1  0.47520000  0.27510000  0.35250000  1.0 -0.1775800222
C  C48  1  0.37350000  0.88930000  0.21380000  1.0 0.1809622103
C  C49  1  0.46060000  0.29390000  0.34190000  1.0 0.306704945
C  C50  1  0.40140000  0.89110000  0.20610000  1.0 -0.1609607769
C  C51  1  0.34810000  0.85540000  0.20750000  1.0 -0.1706842937
C  C52  1  0.41400000  0.07600000  0.48200000  1.0 0.4793519388
C  C53  1  0.40900000  0.86270000  0.19730000  1.0 0.1221869071
C  C54  1  0.35900000  0.82760000  0.19740000  1.0 0.142411929
C  C55  1  0.15430000  0.40090000  0.66580000  1.0 0.6411756691
C  C56  1  0.13800000  0.47150000  0.72430000  1.0 0.6288619977
C  C57  1  0.14710000  0.38420000  0.62790000  1.0 -0.1291726972
C  C58  1  0.12500000  0.49510000  0.71370000  1.0 -0.1291726972
C  C59  1  0.10530000  0.39640000  0.78170000  1.0 0.6523434338
C  C60  1  0.11070000  0.36160000  0.59750000  1.0 0.0595073157
C  C61  1  0.17740000  0.39380000  0.62140000  1.0 0.0102062445
C  C62  1  0.08470000  0.48330000  0.70660000  1.0 0.1014153607
C  C63  1  0.14620000  0.52590000  0.71350000  1.0 0.0102062445
C  C64  1  0.08180000  0.39200000  0.80000000  1.0 -0.0371269799
C  C65  1  0.10420000  0.34700000  0.56020000  1.0 -0.060179574
C  C66  1  0.17220000  0.38100000  0.58580000  1.0 -0.0215046555
C  C67  1  0.07330000  0.51140000  0.70150000  1.0 -0.0371269799
C  C68  1  0.13420000  0.54850000  0.70250000  1.0 0.0102062445
C  C69  1  0.09540000  0.39630000  0.83470000  1.0 0.0102062445
C  C70  1  0.04430000  0.38400000  0.78070000  1.0 0.1277773472
C  C71  1  0.13400000  0.35620000  0.55480000  1.0 0.0854822546
C  C72  1  0.09590000  0.53450000  0.69020000  1.0 0.2251615442
C  C73  1  0.07510000  0.39070000  0.85100000  1.0 -0.1370647424
C  C74  1  0.02480000  0.37730000  0.79990000  1.0 -0.1609607769
C  C75  1  0.12650000  0.34030000  0.51580000  1.0 0.1809622103
C  C76  1  0.03940000  0.38130000  0.83330000  1.0 0.2891470692
C  C77  1  0.09860000  0.30470000  0.48970000  1.0 -0.1609607769
C  C78  1  0.15190000  0.35940000  0.50730000  1.0 -0.1706842937
C  C79  1  0.08600000  0.56800000  0.66200000  1.0 0.4793519388
C  C80  1  0.09100000  0.28830000  0.45370000  1.0 0.1277773472
C  C81  1  0.14100000  0.33840000  0.46860000  1.0 0.1489685026
C  C82  1  0.23510000  0.48850000  0.83420000  1.0 0.6411756691
C  C83  1  0.24720000  0.41370000  0.77570000  1.0 0.6288619977
C  C84  1  0.25630000  0.51920000  0.87210000  1.0 -0.1291726972
C  C85  1  0.28140000  0.41130000  0.78630000  1.0 -0.1291726972
C  C86  1  0.11470000  0.32360000  0.71830000  1.0 0.6523434338
C  C87  1  0.26410000  0.51320000  0.90250000  1.0 0.0595073157
C  C88  1  0.27240000  0.55600000  0.87860000  1.0 0.0102062445
C  C89  1  0.27670000  0.37810000  0.79340000  1.0 0.1014153607
C  C90  1  0.31240000  0.43270000  0.78650000  1.0 0.0102062445
C  C91  1  0.09200000  0.28180000  0.70000000  1.0 -0.0371269799
C  C92  1  0.28680000  0.54400000  0.93980000  1.0 -0.060179574
C  C93  1  0.29520000  0.58640000  0.91420000  1.0 -0.0215046555
C  C94  1  0.30990000  0.37180000  0.79850000  1.0 -0.0320753026
C  C95  1  0.34600000  0.43170000  0.79750000  1.0 0.0102062445
C  C96  1  0.06160000  0.26070000  0.66530000  1.0 0.0102062445
C  C97  1  0.10330000  0.26360000  0.71930000  1.0 0.1221869071
C  C98  1  0.30140000  0.57920000  0.94520000  1.0 0.0828272905
C  C99  1  0.34430000  0.40570000  0.80980000  1.0 0.2251615442
C  C100  1  0.03970000  0.22410000  0.64900000  1.0 -0.1370647424
C  C101  1  0.07740000  0.22490000  0.70010000  1.0 -0.1609607769
C  C102  1  0.32450000  0.61070000  0.98420000  1.0 0.1809622103
C  C103  1  0.04800000  0.20610000  0.66666667  1.0 0.2891470692
C  C104  1  0.31500000  0.60890000  0.01030000  1.0 -0.1609607769
C  C105  1  0.35210000  0.64460000  0.99270000  1.0 -0.1706842937
C  C106  1  0.40600000  0.42400000  0.83800000  1.0 0.4793519388
C  C107  1  0.33460000  0.63730000  0.04630000  1.0 0.1277773472
C  C108  1  0.36980000  0.67240000  0.03140000  1.0 0.142411929
C  C109  1  0.83420000  0.23510000  0.48850000  1.0 0.6411756691
C  C110  1  0.77570000  0.24720000  0.41370000  1.0 0.6288619977
C  C111  1  0.87210000  0.25630000  0.51920000  1.0 -0.1291726972
C  C112  1  0.78630000  0.28140000  0.41130000  1.0 -0.1291726972
C  C113  1  0.71830000  0.11470000  0.32360000  1.0 0.6523434338
C  C114  1  0.90250000  0.26410000  0.51320000  1.0 0.0595073157
C  C115  1  0.87860000  0.27240000  0.55600000  1.0 0.017213614
C  C116  1  0.79340000  0.27670000  0.37810000  1.0 0.1221869071
C  C117  1  0.78650000  0.31240000  0.43270000  1.0 0.02938593
C  C118  1  0.70000000  0.09200000  0.28180000  1.0 -0.0320753026
C  C119  1  0.93980000  0.28680000  0.54400000  1.0 -0.060179574
C  C120  1  0.91420000  0.29520000  0.58640000  1.0 -0.0215046555
C  C121  1  0.79850000  0.30990000  0.37180000  1.0 0.0033603796
C  C122  1  0.79750000  0.34600000  0.43170000  1.0 -0.0097777928
C  C123  1  0.66530000  0.06160000  0.26070000  1.0 0.0102062445
C  C124  1  0.71930000  0.10330000  0.26360000  1.0 0.1277773472
C  C125  1  0.94520000  0.30140000  0.57920000  1.0 0.0828272905
C  C126  1  0.80980000  0.34430000  0.40570000  1.0 0.2640061743
C  C127  1  0.64900000  0.03970000  0.22410000  1.0 -0.1370647424
C  C128  1  0.70010000  0.07740000  0.22490000  1.0 -0.1609607769
C  C129  1  0.98420000  0.32450000  0.61070000  1.0 0.1809622103
C  C130  1  0.66666667  0.04800000  0.20610000  1.0 0.2891470692
C  C131  1  0.01030000  0.31500000  0.60890000  1.0 -0.1609607769
C  C132  1  0.99270000  0.35210000  0.64460000  1.0 -0.1706842937
C  C133  1  0.83800000  0.40600000  0.42400000  1.0 0.5097405977
C  C134  1  0.04630000  0.33460000  0.63730000  1.0 0.1277773472
C  C135  1  0.03140000  0.36980000  0.67240000  1.0 0.1489685026
C  C136  1  0.66580000  0.15430000  0.40090000  1.0 0.6411756691
C  C137  1  0.72430000  0.13800000  0.47150000  1.0 0.6288619977
C  C138  1  0.62790000  0.14710000  0.38420000  1.0 -0.1291726972
C  C139  1  0.71370000  0.12500000  0.49510000  1.0 -0.1291726972
C  C140  1  0.78170000  0.10530000  0.39640000  1.0 0.6523434338
C  C141  1  0.59750000  0.11070000  0.36160000  1.0 0.0595073157
C  C142  1  0.62140000  0.17740000  0.39380000  1.0 0.0102062445
C  C143  1  0.70660000  0.08470000  0.48330000  1.0 0.1014153607
C  C144  1  0.71350000  0.14620000  0.52590000  1.0 0.0102062445
C  C145  1  0.80000000  0.08180000  0.39200000  1.0 -0.0371269799
C  C146  1  0.56020000  0.10420000  0.34700000  1.0 -0.060179574
C  C147  1  0.58580000  0.17220000  0.38100000  1.0 -0.0215046555
C  C148  1  0.70150000  0.07330000  0.51140000  1.0 -0.0320753026
C  C149  1  0.70250000  0.13420000  0.54850000  1.0 0.0102062445
C  C150  1  0.83470000  0.09540000  0.39630000  1.0 0.017213614
C  C151  1  0.78070000  0.04430000  0.38400000  1.0 0.1277773472
C  C152  1  0.55480000  0.13400000  0.35620000  1.0 0.0854822546
C  C153  1  0.69020000  0.09590000  0.53450000  1.0 0.2251615442
C  C154  1  0.85100000  0.07510000  0.39070000  1.0 -0.1291726972
C  C155  1  0.79990000  0.02480000  0.37730000  1.0 -0.1609607769
C  C156  1  0.51580000  0.12650000  0.34030000  1.0 0.1809622103
C  C157  1  0.83330000  0.03940000  0.38130000  1.0 0.2950902052
C  C158  1  0.48970000  0.09860000  0.30470000  1.0 -0.1706842937
C  C159  1  0.50730000  0.15190000  0.35940000  1.0 -0.1706842937
C  C160  1  0.66200000  0.08600000  0.56800000  1.0 0.4793519388
C  C161  1  0.45370000  0.09100000  0.28830000  1.0 0.1221869071
C  C162  1  0.46860000  0.14100000  0.33840000  1.0 0.1489685026
C  C163  1  0.24660000  0.34570000  0.01150000  1.0 0.6411756691
C  C164  1  0.33350000  0.36200000  0.08630000  1.0 0.6288619977
C  C165  1  0.23710000  0.35290000  0.98080000  1.0 -0.1291726972
C  C166  1  0.37010000  0.37500000  0.08870000  1.0 -0.1370647424
C  C167  1  0.29110000  0.39470000  0.17640000  1.0 0.6523434338
C  C168  1  0.25090000  0.38930000  0.98680000  1.0 0.0595073157
C  C169  1  0.21640000  0.32260000  0.94400000  1.0 0.017213614
C  C170  1  0.39860000  0.41530000  0.12190000  1.0 0.1097165508
C  C171  1  0.37970000  0.35380000  0.06730000  1.0 0.017213614
C  C172  1  0.31020000  0.41820000  0.21820000  1.0 -0.0371269799
C  C173  1  0.24280000  0.39580000  0.95600000  1.0 -0.060179574
C  C174  1  0.20880000  0.32780000  0.91360000  1.0 -0.0215046555
C  C175  1  0.43810000  0.42670000  0.12820000  1.0 0.0102062445
C  C176  1  0.41430000  0.36580000  0.06830000  1.0 0.017213614
C  C177  1  0.30090000  0.40460000  0.23930000  1.0 0.017213614
C  C178  1  0.33970000  0.45570000  0.23640000  1.0 0.1221869071
C  C179  1  0.22220000  0.36600000  0.92080000  1.0 0.0828272905
C  C180  1  0.43860000  0.40410000  0.09430000  1.0 0.2398999591
C  C181  1  0.31560000  0.42490000  0.27590000  1.0 -0.1291726972
C  C182  1  0.35250000  0.47520000  0.27510000  1.0 -0.1609607769
C  C183  1  0.21380000  0.37350000  0.88930000  1.0 0.1809622103
C  C184  1  0.34190000  0.46060000  0.29390000  1.0 0.2891470692
C  C185  1  0.20610000  0.40140000  0.89110000  1.0 -0.1609607769
C  C186  1  0.20750000  0.34810000  0.85540000  1.0 -0.1706842937
C  C187  1  0.48200000  0.41400000  0.07600000  1.0 0.5097405977
C  C188  1  0.19730000  0.40900000  0.86270000  1.0 0.1277773472
C  C189  1  0.19740000  0.35900000  0.82760000  1.0 0.142411929
C  C190  1  0.25340000  0.26490000  0.09910000  1.0 0.6411756691
C  C191  1  0.16650000  0.25280000  0.02850000  1.0 0.6288619977
C  C192  1  0.26290000  0.24370000  0.11580000  1.0 -0.1291726972
C  C193  1  0.12990000  0.21860000  0.00490000  1.0 -0.1291726972
C  C194  1  0.20890000  0.38530000  0.10360000  1.0 0.6523434338
C  C195  1  0.24910000  0.23590000  0.13840000  1.0 0.0595073157
C  C196  1  0.28360000  0.22760000  0.10620000  1.0 0.017213614
C  C197  1  0.10140000  0.22330000  0.01670000  1.0 0.1014153607
C  C198  1  0.12030000  0.18760000  0.97410000  1.0 0.0102062445
C  C199  1  0.18980000  0.40800000  0.10800000  1.0 -0.0320753026
C  C200  1  0.25720000  0.21320000  0.15300000  1.0 -0.0651429676
C  C201  1  0.29120000  0.20480000  0.11900000  1.0 -0.0320753026
C  C202  1  0.06190000  0.19010000  0.98860000  1.0 -0.0371269799
C  C203  1  0.08570000  0.15400000  0.95150000  1.0 0.0352033406
C  C204  1  0.19910000  0.43840000  0.10370000  1.0 0.0102062445
C  C205  1  0.16030000  0.39670000  0.11600000  1.0 0.1277773472
C  C206  1  0.27780000  0.19860000  0.14380000  1.0 0.0854822546
C  C207  1  0.06140000  0.15570000  0.96550000  1.0 0.222581879
C  C208  1  0.18440000  0.46030000  0.10930000  1.0 -0.1370647424
C  C209  1  0.14750000  0.42260000  0.12270000  1.0 -0.1609607769
C  C210  1  0.28620000  0.17550000  0.15970000  1.0 0.1861871547
C  C211  1  0.15810000  0.45200000  0.11870000  1.0 0.2891470692
C  C212  1  0.29390000  0.18500000  0.19530000  1.0 -0.1609607769
C  C213  1  0.29250000  0.14790000  0.14060000  1.0 -0.1706842937
C  C214  1  0.01800000  0.09400000  0.93200000  1.0 0.4793519388
C  C215  1  0.30270000  0.16540000  0.21170000  1.0 0.1221869071
C  C216  1  0.30260000  0.13020000  0.16160000  1.0 0.142411929
C  C217  1  0.40090000  0.66580000  0.15430000  1.0 0.6411756691
C  C218  1  0.47150000  0.72430000  0.13800000  1.0 0.6288619977
C  C219  1  0.38420000  0.62790000  0.14710000  1.0 -0.1291726972
C  C220  1  0.49510000  0.71370000  0.12500000  1.0 -0.1291726972
C  C221  1  0.39640000  0.78170000  0.10530000  1.0 0.6523434338
C  C222  1  0.36160000  0.59750000  0.11070000  1.0 0.0595073157
C  C223  1  0.39380000  0.62140000  0.17740000  1.0 0.017213614
C  C224  1  0.48330000  0.70660000  0.08470000  1.0 0.1014153607
C  C225  1  0.52590000  0.71350000  0.14620000  1.0 0.0102062445
C  C226  1  0.39200000  0.80000000  0.08180000  1.0 -0.0320753026
C  C227  1  0.34700000  0.56020000  0.10420000  1.0 -0.0651429676
C  C228  1  0.38100000  0.58580000  0.17220000  1.0 -0.0320753026
C  C229  1  0.51140000  0.70150000  0.07330000  1.0 -0.0320753026
C  C230  1  0.54850000  0.70250000  0.13420000  1.0 0.0102062445
C  C231  1  0.39630000  0.83470000  0.09540000  1.0 0.0102062445
C  C232  1  0.38400000  0.78070000  0.04430000  1.0 0.1277773472
C  C233  1  0.35620000  0.55480000  0.13400000  1.0 0.0854822546
C  C234  1  0.53450000  0.69020000  0.09590000  1.0 0.222581879
C  C235  1  0.39070000  0.85100000  0.07510000  1.0 -0.1370647424
C  C236  1  0.37730000  0.79990000  0.02480000  1.0 -0.1609607769
C  C237  1  0.34030000  0.51580000  0.12650000  1.0 0.1809622103
C  C238  1  0.38130000  0.83330000  0.03940000  1.0 0.2891470692
C  C239  1  0.30470000  0.48970000  0.09860000  1.0 -0.1609607769
C  C240  1  0.35940000  0.50730000  0.15190000  1.0 -0.1706842937
C  C241  1  0.56800000  0.66200000  0.08600000  1.0 0.4793519388
C  C242  1  0.28830000  0.45370000  0.09100000  1.0 0.1277773472
C  C243  1  0.33840000  0.46860000  0.14100000  1.0 0.1489685026
C  C244  1  0.48850000  0.83420000  0.23510000  1.0 0.6411756691
C  C245  1  0.41370000  0.77570000  0.24720000  1.0 0.6288619977
C  C246  1  0.51920000  0.87210000  0.25630000  1.0 -0.1291726972
C  C247  1  0.41130000  0.78630000  0.28140000  1.0 -0.1291726972
C  C248  1  0.32360000  0.71830000  0.11470000  1.0 0.6523434338
C  C249  1  0.51320000  0.90250000  0.26410000  1.0 0.0595073157
C  C250  1  0.55600000  0.87860000  0.27240000  1.0 0.0102062445
C  C251  1  0.37810000  0.79340000  0.27670000  1.0 0.1014153607
C  C252  1  0.43270000  0.78650000  0.31240000  1.0 0.0102062445
C  C253  1  0.28180000  0.70000000  0.09200000  1.0 -0.0320753026
C  C254  1  0.54400000  0.93980000  0.28680000  1.0 -0.060179574
C  C255  1  0.58640000  0.91420000  0.29520000  1.0 -0.0097777928
C  C256  1  0.37180000  0.79850000  0.30990000  1.0 -0.0320753026
C  C257  1  0.43170000  0.79750000  0.34600000  1.0 0.0102062445
C  C258  1  0.26070000  0.66530000  0.06160000  1.0 0.0102062445
C  C259  1  0.26360000  0.71930000  0.10330000  1.0 0.1277773472
C  C260  1  0.57920000  0.94520000  0.30140000  1.0 0.0828272905
C  C261  1  0.40570000  0.80980000  0.34430000  1.0 0.222581879
C  C262  1  0.22410000  0.64900000  0.03970000  1.0 -0.1370647424
C  C263  1  0.22490000  0.70010000  0.07740000  1.0 -0.1609607769
C  C264  1  0.61070000  0.98420000  0.32450000  1.0 0.1809622103
C  C265  1  0.20610000  0.66666667  0.04800000  1.0 0.2891470692
C  C266  1  0.60890000  0.01030000  0.31500000  1.0 -0.1609607769
C  C267  1  0.64460000  0.99270000  0.35210000  1.0 -0.1706842937
C  C268  1  0.42400000  0.83800000  0.40600000  1.0 0.4793519388
C  C269  1  0.63730000  0.04630000  0.33460000  1.0 0.1221869071
C  C270  1  0.67240000  0.03140000  0.36980000  1.0 0.142411929
C  C271  1  0.09910000  0.25340000  0.26490000  1.0 0.6411756691
C  C272  1  0.02850000  0.16650000  0.25280000  1.0 0.6288619977
C  C273  1  0.11580000  0.26290000  0.24370000  1.0 -0.1291726972
C  C274  1  0.00490000  0.12990000  0.21860000  1.0 -0.1291726972
C  C275  1  0.10360000  0.20890000  0.38530000  1.0 0.6523434338
C  C276  1  0.13840000  0.24910000  0.23590000  1.0 0.0595073157
C  C277  1  0.10620000  0.28360000  0.22760000  1.0 0.0102062445
C  C278  1  0.01670000  0.10140000  0.22330000  1.0 0.1014153607
C  C279  1  0.97410000  0.12030000  0.18760000  1.0 0.0102062445
C  C280  1  0.10800000  0.18980000  0.40800000  1.0 -0.0320753026
C  C281  1  0.15300000  0.25720000  0.21320000  1.0 -0.060179574
C  C282  1  0.11900000  0.29120000  0.20480000  1.0 -0.0215046555
C  C283  1  0.98860000  0.06190000  0.19010000  1.0 -0.0215046555
C  C284  1  0.95150000  0.08570000  0.15400000  1.0 0.0102062445
C  C285  1  0.10370000  0.19910000  0.43840000  1.0 0.0102062445
C  C286  1  0.11600000  0.16030000  0.39670000  1.0 0.1277773472
C  C287  1  0.14380000  0.27780000  0.19860000  1.0 0.0854822546
C  C288  1  0.96550000  0.06140000  0.15570000  1.0 0.2251615442
C  C289  1  0.10930000  0.18440000  0.46030000  1.0 -0.1370647424
C  C290  1  0.12270000  0.14750000  0.42260000  1.0 -0.1609607769
C  C291  1  0.15970000  0.28620000  0.17550000  1.0 0.1809622103
C  C292  1  0.11870000  0.15810000  0.45200000  1.0 0.2891470692
C  C293  1  0.19530000  0.29390000  0.18500000  1.0 -0.1609607769
C  C294  1  0.14060000  0.29250000  0.14790000  1.0 -0.1706842937
C  C295  1  0.93200000  0.01800000  0.09400000  1.0 0.4932245977
C  C296  1  0.21170000  0.30270000  0.16540000  1.0 0.1221869071
C  C297  1  0.16160000  0.30260000  0.13020000  1.0 0.1489685026
C  C298  1  0.01150000  0.24660000  0.34570000  1.0 0.6411756691
C  C299  1  0.08630000  0.33350000  0.36200000  1.0 0.6288619977
C  C300  1  0.98080000  0.23710000  0.35290000  1.0 -0.1291726972
C  C301  1  0.08870000  0.37010000  0.37500000  1.0 -0.1291726972
C  C302  1  0.17640000  0.29110000  0.39470000  1.0 0.6523434338
C  C303  1  0.98680000  0.25090000  0.38930000  1.0 0.0595073157
C  C304  1  0.94400000  0.21640000  0.32260000  1.0 0.017213614
C  C305  1  0.12190000  0.39860000  0.41530000  1.0 0.1097165508
C  C306  1  0.06730000  0.37970000  0.35380000  1.0 0.02938593
C  C307  1  0.21820000  0.31020000  0.41820000  1.0 -0.0320753026
C  C308  1  0.95600000  0.24280000  0.39580000  1.0 -0.060179574
C  C309  1  0.91360000  0.20880000  0.32780000  1.0 -0.0215046555
C  C310  1  0.12820000  0.43810000  0.42670000  1.0 -0.0025337855
C  C311  1  0.06830000  0.41430000  0.36580000  1.0 0.017213614
C  C312  1  0.23930000  0.30090000  0.40460000  1.0 0.0102062445
C  C313  1  0.23640000  0.33970000  0.45570000  1.0 0.1277773472
C  C314  1  0.92080000  0.22220000  0.36600000  1.0 0.0854822546
C  C315  1  0.09430000  0.43860000  0.40410000  1.0 0.2398999591
C  C316  1  0.27590000  0.31560000  0.42490000  1.0 -0.1370647424
C  C317  1  0.27510000  0.35250000  0.47520000  1.0 -0.1609607769
C  C318  1  0.88930000  0.21380000  0.37350000  1.0 0.1809622103
C  C319  1  0.29390000  0.34190000  0.46060000  1.0 0.2891470692
C  C320  1  0.89110000  0.20610000  0.40140000  1.0 -0.1706842937
C  C321  1  0.85540000  0.20750000  0.34810000  1.0 -0.1706842937
C  C322  1  0.07600000  0.48200000  0.41400000  1.0 0.5097405977
C  C323  1  0.86270000  0.19730000  0.40900000  1.0 0.1221869071
C  C324  1  0.82760000  0.19740000  0.35900000  1.0 0.1489685026
C  C325  1  0.59910000  0.76490000  0.75340000  1.0 0.6411756691
C  C326  1  0.52850000  0.75280000  0.66650000  1.0 0.6288619977
C  C327  1  0.61580000  0.74370000  0.76290000  1.0 -0.1291726972
C  C328  1  0.50490000  0.71860000  0.62990000  1.0 -0.1291726972
C  C329  1  0.60360000  0.88530000  0.70890000  1.0 0.6523434338
C  C330  1  0.63840000  0.73590000  0.74910000  1.0 0.0595073157
C  C331  1  0.60620000  0.72760000  0.78360000  1.0 0.017213614
C  C332  1  0.51670000  0.72330000  0.60140000  1.0 0.1221869071
C  C333  1  0.47410000  0.68760000  0.62030000  1.0 0.017213614
C  C334  1  0.60800000  0.90800000  0.68980000  1.0 -0.0320753026
C  C335  1  0.65300000  0.71320000  0.75720000  1.0 -0.060179574
C  C336  1  0.61900000  0.70480000  0.79120000  1.0 -0.0215046555
C  C337  1  0.48860000  0.69010000  0.56190000  1.0 -0.0025337855
C  C338  1  0.45150000  0.65400000  0.58570000  1.0 0.0033603796
C  C339  1  0.60370000  0.93840000  0.69910000  1.0 0.0102062445
C  C340  1  0.61600000  0.89670000  0.66030000  1.0 0.1277773472
C  C341  1  0.64380000  0.69860000  0.77780000  1.0 0.0828272905
C  C342  1  0.46550000  0.65570000  0.56140000  1.0 0.2398999591
C  C343  1  0.60930000  0.96030000  0.68440000  1.0 -0.1370647424
C  C344  1  0.62270000  0.92260000  0.64750000  1.0 -0.1609607769
C  C345  1  0.65970000  0.67550000  0.78620000  1.0 0.1809622103
C  C346  1  0.61870000  0.95200000  0.65810000  1.0 0.2891470692
C  C347  1  0.69530000  0.68500000  0.79390000  1.0 -0.1609607769
C  C348  1  0.64060000  0.64790000  0.79250000  1.0 -0.1706842937
C  C349  1  0.43200000  0.59400000  0.51800000  1.0 0.5097405977
C  C350  1  0.71170000  0.66540000  0.80270000  1.0 0.1277773472
C  C351  1  0.66160000  0.63020000  0.80260000  1.0 0.1489685026
C  C352  1  0.51150000  0.84570000  0.74660000  1.0 0.6411756691
C  C353  1  0.58630000  0.86200000  0.83350000  1.0 0.6288619977
C  C354  1  0.48080000  0.85290000  0.73710000  1.0 -0.1291726972
C  C355  1  0.58870000  0.87500000  0.87010000  1.0 -0.1291726972
C  C356  1  0.67640000  0.89470000  0.79110000  1.0 0.6523434338
C  C357  1  0.48680000  0.88930000  0.75090000  1.0 0.0595073157
C  C358  1  0.44400000  0.82260000  0.71640000  1.0 0.0102062445
C  C359  1  0.62190000  0.91530000  0.89860000  1.0 0.1014153607
C  C360  1  0.56730000  0.85380000  0.87970000  1.0 0.0102062445
C  C361  1  0.71820000  0.91820000  0.81020000  1.0 -0.0320753026
C  C362  1  0.45600000  0.89580000  0.74280000  1.0 -0.060179574
C  C363  1  0.41360000  0.82780000  0.70880000  1.0 -0.0215046555
C  C364  1  0.62820000  0.92670000  0.93810000  1.0 -0.0320753026
C  C365  1  0.56830000  0.86580000  0.91430000  1.0 0.0102062445
C  C366  1  0.73930000  0.90460000  0.80090000  1.0 0.0499182801
C  C367  1  0.73640000  0.95570000  0.83970000  1.0 0.1489685026
C  C368  1  0.42080000  0.86600000  0.72220000  1.0 0.0828272905
C  C369  1  0.59430000  0.90410000  0.93860000  1.0 0.222581879
C  C370  1  0.77590000  0.92490000  0.81560000  1.0 -0.1291726972
C  C371  1  0.77510000  0.97520000  0.85250000  1.0 -0.1609607769
C  C372  1  0.38930000  0.87350000  0.71380000  1.0 0.1809622103
C  C373  1  0.79390000  0.96060000  0.84190000  1.0 0.3169254727
C  C374  1  0.39110000  0.90140000  0.70610000  1.0 -0.1609607769
C  C375  1  0.35540000  0.84810000  0.70750000  1.0 -0.1706842937
C  C376  1  0.57600000  0.91400000  0.98200000  1.0 0.4793519388
C  C377  1  0.36270000  0.90900000  0.69730000  1.0 0.1221869071
C  C378  1  0.32760000  0.85900000  0.69740000  1.0 0.142411929
C  C379  1  0.90090000  0.65430000  0.16580000  1.0 0.6411756691
C  C380  1  0.97150000  0.63800000  0.22430000  1.0 0.6288619977
C  C381  1  0.88420000  0.64710000  0.12790000  1.0 -0.1291726972
C  C382  1  0.99510000  0.62500000  0.21370000  1.0 -0.1291726972
C  C383  1  0.89640000  0.60530000  0.28170000  1.0 0.6523434338
C  C384  1  0.86160000  0.61070000  0.09750000  1.0 0.0595073157
C  C385  1  0.89380000  0.67740000  0.12140000  1.0 0.0102062445
C  C386  1  0.98330000  0.58470000  0.20660000  1.0 0.1014153607
C  C387  1  0.02590000  0.64620000  0.21350000  1.0 0.0102062445
C  C388  1  0.89200000  0.58180000  0.30000000  1.0 -0.0320753026
C  C389  1  0.84700000  0.60420000  0.06020000  1.0 -0.060179574
C  C390  1  0.88100000  0.67220000  0.08580000  1.0 -0.0215046555
C  C391  1  0.01140000  0.57330000  0.20150000  1.0 -0.0371269799
C  C392  1  0.04850000  0.63420000  0.20250000  1.0 0.02938593
C  C393  1  0.89630000  0.59540000  0.33470000  1.0 0.0499182801
C  C394  1  0.88400000  0.54430000  0.28070000  1.0 0.1489685026
C  C395  1  0.85620000  0.63400000  0.05480000  1.0 0.0854822546
C  C396  1  0.03450000  0.59590000  0.19020000  1.0 0.222581879
C  C397  1  0.89070000  0.57510000  0.35100000  1.0 -0.1291726972
C  C398  1  0.87730000  0.52480000  0.29990000  1.0 -0.1706842937
C  C399  1  0.84030000  0.62650000  0.01580000  1.0 0.1809622103
C  C400  1  0.88130000  0.53940000  0.33333333  1.0 0.306704945
C  C401  1  0.80470000  0.59860000  0.98970000  1.0 -0.1609607769
C  C402  1  0.85940000  0.65190000  0.00730000  1.0 -0.1706842937
C  C403  1  0.06800000  0.58600000  0.16200000  1.0 0.4793519388
C  C404  1  0.78830000  0.59100000  0.95370000  1.0 0.1277773472
C  C405  1  0.83840000  0.64100000  0.96860000  1.0 0.1489685026
C  C406  1  0.98850000  0.73510000  0.33420000  1.0 0.6411756691
C  C407  1  0.91370000  0.74720000  0.27570000  1.0 0.6288619977
C  C408  1  0.01920000  0.75630000  0.37210000  1.0 -0.1291726972
C  C409  1  0.91130000  0.78140000  0.28630000  1.0 -0.1291726972
C  C410  1  0.82360000  0.61470000  0.21830000  1.0 0.6523434338
C  C411  1  0.01320000  0.76410000  0.40250000  1.0 0.0499182801
C  C412  1  0.05600000  0.77240000  0.37860000  1.0 0.0102062445
C  C413  1  0.87810000  0.77670000  0.29340000  1.0 0.1014153607
C  C414  1  0.93270000  0.81240000  0.28650000  1.0 0.0102062445
C  C415  1  0.78180000  0.59200000  0.20000000  1.0 -0.0320753026
C  C416  1  0.04400000  0.78680000  0.43980000  1.0 -0.060179574
C  C417  1  0.08640000  0.79520000  0.41420000  1.0 -0.0097777928
C  C418  1  0.87180000  0.80990000  0.29850000  1.0 -0.0097777928
C  C419  1  0.93170000  0.84600000  0.29750000  1.0 0.0102062445
C  C420  1  0.76070000  0.56160000  0.16530000  1.0 0.017213614
C  C421  1  0.76360000  0.60330000  0.21930000  1.0 0.1221869071
C  C422  1  0.07920000  0.80140000  0.44520000  1.0 0.0828272905
C  C423  1  0.90570000  0.84430000  0.30980000  1.0 0.222581879
C  C424  1  0.72410000  0.53970000  0.14900000  1.0 -0.1291726972
C  C425  1  0.72490000  0.57740000  0.20010000  1.0 -0.1609607769
C  C426  1  0.11070000  0.82450000  0.48420000  1.0 0.1809622103
C  C427  1  0.70610000  0.54800000  0.16670000  1.0 0.2891470692
C  C428  1  0.10890000  0.81500000  0.51030000  1.0 -0.1609607769
C  C429  1  0.14460000  0.85210000  0.49270000  1.0 -0.1775800222
C  C430  1  0.92400000  0.90600000  0.33800000  1.0 0.4932245977
C  C431  1  0.13730000  0.83460000  0.54630000  1.0 0.1277773472
C  C432  1  0.17240000  0.86980000  0.53140000  1.0 0.142411929
C  C433  1  0.73510000  0.33420000  0.98850000  1.0 0.6411756691
C  C434  1  0.74720000  0.27570000  0.91370000  1.0 0.6288619977
C  C435  1  0.75630000  0.37210000  0.01920000  1.0 -0.1291726972
C  C436  1  0.78140000  0.28630000  0.91130000  1.0 -0.1291726972
C  C437  1  0.61470000  0.21830000  0.82360000  1.0 0.6523434338
C  C438  1  0.76410000  0.40250000  0.01320000  1.0 0.0595073157
C  C439  1  0.77240000  0.37860000  0.05600000  1.0 0.0102062445
C  C440  1  0.77670000  0.29340000  0.87810000  1.0 0.1097165508
C  C441  1  0.81240000  0.28650000  0.93270000  1.0 0.017213614
C  C442  1  0.59200000  0.20000000  0.78180000  1.0 -0.0320753026
C  C443  1  0.78680000  0.43980000  0.04400000  1.0 -0.060179574
C  C444  1  0.79520000  0.41420000  0.08640000  1.0 -0.0215046555
C  C445  1  0.80990000  0.29850000  0.87180000  1.0 -0.0320753026
C  C446  1  0.84600000  0.29750000  0.93170000  1.0 -0.0025337855
C  C447  1  0.56160000  0.16530000  0.76070000  1.0 0.0102062445
C  C448  1  0.60330000  0.21930000  0.76360000  1.0 0.1277773472
C  C449  1  0.80140000  0.44520000  0.07920000  1.0 0.0854822546
C  C450  1  0.84430000  0.30980000  0.90570000  1.0 0.2398999591
C  C451  1  0.53970000  0.14900000  0.72410000  1.0 -0.1370647424
C  C452  1  0.57740000  0.20010000  0.72490000  1.0 -0.1609607769
C  C453  1  0.82450000  0.48420000  0.11070000  1.0 0.1809622103
C  C454  1  0.54800000  0.16670000  0.70610000  1.0 0.2891470692
C  C455  1  0.81500000  0.51030000  0.10890000  1.0 -0.1609607769
C  C456  1  0.85210000  0.49270000  0.14460000  1.0 -0.1706842937
C  C457  1  0.90600000  0.33800000  0.92400000  1.0 0.4793519388
C  C458  1  0.83460000  0.54630000  0.13730000  1.0 0.1221869071
C  C459  1  0.86980000  0.53140000  0.17240000  1.0 0.1489685026
C  C460  1  0.65430000  0.16580000  0.90090000  1.0 0.6411756691
C  C461  1  0.63800000  0.22430000  0.97150000  1.0 0.6288619977
C  C462  1  0.64710000  0.12790000  0.88420000  1.0 -0.1291726972
C  C463  1  0.62500000  0.21370000  0.99510000  1.0 -0.1370647424
C  C464  1  0.60530000  0.28170000  0.89640000  1.0 0.6523434338
C  C465  1  0.61070000  0.09750000  0.86160000  1.0 0.0595073157
C  C466  1  0.67740000  0.12140000  0.89380000  1.0 0.017213614
C  C467  1  0.58470000  0.20660000  0.98330000  1.0 0.1014153607
C  C468  1  0.64620000  0.21350000  0.02590000  1.0 0.0102062445
C  C469  1  0.58180000  0.30000000  0.89200000  1.0 -0.0320753026
C  C470  1  0.60420000  0.06020000  0.84700000  1.0 -0.060179574
C  C471  1  0.67220000  0.08580000  0.88100000  1.0 -0.0215046555
C  C472  1  0.57330000  0.20150000  0.01140000  1.0 -0.0320753026
C  C473  1  0.63420000  0.20250000  0.04850000  1.0 0.02938593
C  C474  1  0.59540000  0.33470000  0.89630000  1.0 0.0102062445
C  C475  1  0.54430000  0.28070000  0.88400000  1.0 0.1277773472
C  C476  1  0.63400000  0.05480000  0.85620000  1.0 0.0854822546
C  C477  1  0.59590000  0.19020000  0.03450000  1.0 0.222581879
C  C478  1  0.57510000  0.35100000  0.89070000  1.0 -0.1370647424
C  C479  1  0.52480000  0.29990000  0.87730000  1.0 -0.1609607769
C  C480  1  0.62650000  0.01580000  0.84030000  1.0 0.1809622103
C  C481  1  0.53940000  0.33333333  0.88130000  1.0 0.2891470692
C  C482  1  0.59860000  0.98970000  0.80470000  1.0 -0.1609607769
C  C483  1  0.65190000  0.00730000  0.85940000  1.0 -0.1706842937
C  C484  1  0.58600000  0.16200000  0.06800000  1.0 0.4793519388
C  C485  1  0.59100000  0.95370000  0.78830000  1.0 0.1221869071
C  C486  1  0.64100000  0.96860000  0.83840000  1.0 0.1489685026
C  C487  1  0.84570000  0.74660000  0.51150000  1.0 0.6411756691
C  C488  1  0.86200000  0.83350000  0.58630000  1.0 0.6288619977
C  C489  1  0.85290000  0.73710000  0.48080000  1.0 -0.1291726972
C  C490  1  0.87500000  0.87010000  0.58870000  1.0 -0.1291726972
C  C491  1  0.89470000  0.79110000  0.67640000  1.0 0.6523434338
C  C492  1  0.88930000  0.75090000  0.48680000  1.0 0.0595073157
C  C493  1  0.82260000  0.71640000  0.44400000  1.0 0.0102062445
C  C494  1  0.91530000  0.89860000  0.62190000  1.0 0.1097165508
C  C495  1  0.85380000  0.87970000  0.56730000  1.0 0.0102062445
C  C496  1  0.91820000  0.81020000  0.71820000  1.0 -0.0371269799
C  C497  1  0.89580000  0.74280000  0.45600000  1.0 -0.0514877236
C  C498  1  0.82780000  0.70880000  0.41360000  1.0 -0.0215046555
C  C499  1  0.92670000  0.93810000  0.62820000  1.0 -0.0320753026
C  C500  1  0.86580000  0.91430000  0.56830000  1.0 0.017213614
C  C501  1  0.90460000  0.80090000  0.73930000  1.0 0.0102062445
C  C502  1  0.95570000  0.83970000  0.73640000  1.0 0.1221869071
C  C503  1  0.86600000  0.72220000  0.42080000  1.0 0.0828272905
C  C504  1  0.90410000  0.93860000  0.59430000  1.0 0.222581879
C  C505  1  0.92490000  0.81560000  0.77590000  1.0 -0.1291726972
C  C506  1  0.97520000  0.85250000  0.77510000  1.0 -0.1609607769
C  C507  1  0.87350000  0.71380000  0.38930000  1.0 0.1809622103
C  C508  1  0.96060000  0.84190000  0.79390000  1.0 0.2891470692
C  C509  1  0.90140000  0.70610000  0.39110000  1.0 -0.1609607769
C  C510  1  0.84810000  0.70750000  0.35540000  1.0 -0.1775800222
C  C511  1  0.91400000  0.98200000  0.57600000  1.0 0.4793519388
C  C512  1  0.90900000  0.69730000  0.36270000  1.0 0.1277773472
C  C513  1  0.85900000  0.69740000  0.32760000  1.0 0.142411929
C  C514  1  0.76490000  0.75340000  0.59910000  1.0 0.6411756691
C  C515  1  0.75280000  0.66650000  0.52850000  1.0 0.6288619977
C  C516  1  0.74370000  0.76290000  0.61580000  1.0 -0.1291726972
C  C517  1  0.71860000  0.62990000  0.50490000  1.0 -0.1291726972
C  C518  1  0.88530000  0.70890000  0.60360000  1.0 0.6523434338
C  C519  1  0.73590000  0.74910000  0.63840000  1.0 0.0595073157
C  C520  1  0.72760000  0.78360000  0.60620000  1.0 0.0102062445
C  C521  1  0.72330000  0.60140000  0.51670000  1.0 0.1014153607
C  C522  1  0.68760000  0.62030000  0.47410000  1.0 0.0102062445
C  C523  1  0.90800000  0.68980000  0.60800000  1.0 -0.0320753026
C  C524  1  0.71320000  0.75720000  0.65300000  1.0 -0.0514877236
C  C525  1  0.70480000  0.79120000  0.61900000  1.0 -0.0215046555
C  C526  1  0.69010000  0.56190000  0.48860000  1.0 -0.0320753026
C  C527  1  0.65400000  0.58570000  0.45150000  1.0 0.0102062445
C  C528  1  0.93840000  0.69910000  0.60370000  1.0 0.0102062445
C  C529  1  0.89670000  0.66030000  0.61600000  1.0 0.1277773472
C  C530  1  0.69860000  0.77780000  0.64380000  1.0 0.0828272905
C  C531  1  0.65570000  0.56140000  0.46550000  1.0 0.222581879
C  C532  1  0.96030000  0.68440000  0.60930000  1.0 -0.1370647424
C  C533  1  0.92260000  0.64750000  0.62270000  1.0 -0.1609607769
C  C534  1  0.67550000  0.78620000  0.65970000  1.0 0.1809622103
C  C535  1  0.95200000  0.65810000  0.61870000  1.0 0.2891470692
C  C536  1  0.68500000  0.79390000  0.69530000  1.0 -0.1609607769
C  C537  1  0.64790000  0.79250000  0.64060000  1.0 -0.1706842937
C  C538  1  0.59400000  0.51800000  0.43200000  1.0 0.4793519388
C  C539  1  0.66540000  0.80270000  0.71170000  1.0 0.1277773472
C  C540  1  0.63020000  0.80260000  0.66160000  1.0 0.1489685026
C  C541  1  0.16580000  0.90090000  0.65430000  1.0 0.6411756691
C  C542  1  0.22430000  0.97150000  0.63800000  1.0 0.6288619977
C  C543  1  0.12790000  0.88420000  0.64710000  1.0 -0.1291726972
C  C544  1  0.21370000  0.99510000  0.62500000  1.0 -0.1291726972
C  C545  1  0.28170000  0.89640000  0.60530000  1.0 0.6523434338
C  C546  1  0.09750000  0.86160000  0.61070000  1.0 0.0595073157
C  C547  1  0.12140000  0.89380000  0.67740000  1.0 0.017213614
C  C548  1  0.20660000  0.98330000  0.58470000  1.0 0.1014153607
C  C549  1  0.21350000  0.02590000  0.64620000  1.0 0.0102062445
C  C550  1  0.30000000  0.89200000  0.58180000  1.0 -0.0320753026
C  C551  1  0.06020000  0.84700000  0.60420000  1.0 -0.0651429676
C  C552  1  0.08580000  0.88100000  0.67220000  1.0 -0.0320753026
C  C553  1  0.20150000  0.01140000  0.57330000  1.0 -0.0320753026
C  C554  1  0.20250000  0.04850000  0.63420000  1.0 0.0102062445
C  C555  1  0.33470000  0.89630000  0.59540000  1.0 0.0102062445
C  C556  1  0.28070000  0.88400000  0.54430000  1.0 0.1277773472
C  C557  1  0.05480000  0.85620000  0.63400000  1.0 0.0828272905
C  C558  1  0.19020000  0.03450000  0.59590000  1.0 0.2251615442
C  C559  1  0.35100000  0.89070000  0.57510000  1.0 -0.1370647424
C  C560  1  0.29990000  0.87730000  0.52480000  1.0 -0.1609607769
C  C561  1  0.01580000  0.84030000  0.62650000  1.0 0.1809622103
C  C562  1  0.33333333  0.88130000  0.53940000  1.0 0.2891470692
C  C563  1  0.98970000  0.80470000  0.59860000  1.0 -0.1609607769
C  C564  1  0.00730000  0.85940000  0.65190000  1.0 -0.1706842937
C  C565  1  0.16200000  0.06800000  0.58600000  1.0 0.4793519388
C  C566  1  0.95370000  0.78830000  0.59100000  1.0 0.1221869071
C  C567  1  0.96860000  0.83840000  0.64100000  1.0 0.142411929
C  C568  1  0.33420000  0.98850000  0.73510000  1.0 0.6411756691
C  C569  1  0.27570000  0.91370000  0.74720000  1.0 0.6288619977
C  C570  1  0.37210000  0.01920000  0.75630000  1.0 -0.1291726972
C  C571  1  0.28630000  0.91130000  0.78140000  1.0 -0.1291726972
C  C572  1  0.21830000  0.82360000  0.61470000  1.0 0.6523434338
C  C573  1  0.40250000  0.01320000  0.76410000  1.0 0.0595073157
C  C574  1  0.37860000  0.05600000  0.77240000  1.0 0.0102062445
C  C575  1  0.29340000  0.87810000  0.77670000  1.0 0.1014153607
C  C576  1  0.28650000  0.93270000  0.81240000  1.0 0.0102062445
C  C577  1  0.20000000  0.78180000  0.59200000  1.0 -0.0320753026
C  C578  1  0.43980000  0.04400000  0.78680000  1.0 -0.060179574
C  C579  1  0.41420000  0.08640000  0.79520000  1.0 -0.0215046555
C  C580  1  0.29850000  0.87180000  0.80990000  1.0 -0.0320753026
C  C581  1  0.29750000  0.93170000  0.84600000  1.0 0.0102062445
C  C582  1  0.16530000  0.76070000  0.56160000  1.0 0.0102062445
C  C583  1  0.21930000  0.76360000  0.60330000  1.0 0.1277773472
C  C584  1  0.44520000  0.07920000  0.80140000  1.0 0.0828272905
C  C585  1  0.30980000  0.90570000  0.84430000  1.0 0.222581879
C  C586  1  0.14900000  0.72410000  0.53970000  1.0 -0.1370647424
C  C587  1  0.20010000  0.72490000  0.57740000  1.0 -0.1609607769
C  C588  1  0.48420000  0.11070000  0.82450000  1.0 0.1809622103
C  C589  1  0.16670000  0.70610000  0.54800000  1.0 0.2891470692
C  C590  1  0.51030000  0.10890000  0.81500000  1.0 -0.1609607769
C  C591  1  0.49270000  0.14460000  0.85210000  1.0 -0.1706842937
C  C592  1  0.33800000  0.92400000  0.90600000  1.0 0.4793519388
C  C593  1  0.54630000  0.13730000  0.83460000  1.0 0.1221869071
C  C594  1  0.53140000  0.17240000  0.86980000  1.0 0.1489685026
C  C595  1  0.75340000  0.59910000  0.76490000  1.0 0.6411756691
C  C596  1  0.66650000  0.52850000  0.75280000  1.0 0.6288619977
C  C597  1  0.76290000  0.61580000  0.74370000  1.0 -0.1291726972
C  C598  1  0.62990000  0.50490000  0.71860000  1.0 -0.1370647424
C  C599  1  0.70890000  0.60360000  0.88530000  1.0 0.6523434338
C  C600  1  0.74910000  0.63840000  0.73590000  1.0 0.0595073157
C  C601  1  0.78360000  0.60620000  0.72760000  1.0 0.0102062445
C  C602  1  0.60140000  0.51670000  0.72330000  1.0 0.1097165508
C  C603  1  0.62030000  0.47410000  0.68760000  1.0 0.02938593
C  C604  1  0.68980000  0.60800000  0.90800000  1.0 -0.0320753026
C  C605  1  0.75720000  0.65300000  0.71320000  1.0 -0.060179574
C  C606  1  0.79120000  0.61900000  0.70480000  1.0 -0.0097777928
C  C607  1  0.56190000  0.48860000  0.69010000  1.0 -0.0025337855
C  C608  1  0.58570000  0.45150000  0.65400000  1.0 0.017213614
C  C609  1  0.69910000  0.60370000  0.93840000  1.0 0.0102062445
C  C610  1  0.66030000  0.61600000  0.89670000  1.0 0.1277773472
C  C611  1  0.77780000  0.64380000  0.69860000  1.0 0.0828272905
C  C612  1  0.56140000  0.46550000  0.65570000  1.0 0.2398999591
C  C613  1  0.68440000  0.60930000  0.96030000  1.0 -0.1370647424
C  C614  1  0.64750000  0.62270000  0.92260000  1.0 -0.1609607769
C  C615  1  0.78620000  0.65970000  0.67550000  1.0 0.1809622103
C  C616  1  0.65810000  0.61870000  0.95200000  1.0 0.2891470692
C  C617  1  0.79390000  0.69530000  0.68500000  1.0 -0.1706842937
C  C618  1  0.79250000  0.64060000  0.64790000  1.0 -0.1775800222
C  C619  1  0.51800000  0.43200000  0.59400000  1.0 0.5097405977
C  C620  1  0.80270000  0.71170000  0.66540000  1.0 0.1221869071
C  C621  1  0.80260000  0.66160000  0.63020000  1.0 0.142411929
C  C622  1  0.74660000  0.51150000  0.84570000  1.0 0.6411756691
C  C623  1  0.83350000  0.58630000  0.86200000  1.0 0.6288619977
C  C624  1  0.73710000  0.48080000  0.85290000  1.0 -0.1291726972
C  C625  1  0.87010000  0.58870000  0.87500000  1.0 -0.1370647424
C  C626  1  0.79110000  0.67640000  0.89470000  1.0 0.6523434338
C  C627  1  0.75090000  0.48680000  0.88930000  1.0 0.0595073157
C  C628  1  0.71640000  0.44400000  0.82260000  1.0 0.017213614
C  C629  1  0.89860000  0.62190000  0.91530000  1.0 0.1097165508
C  C630  1  0.87970000  0.56730000  0.85380000  1.0 0.02938593
C  C631  1  0.81020000  0.71820000  0.91820000  1.0 -0.0371269799
C  C632  1  0.74280000  0.45600000  0.89580000  1.0 -0.060179574
C  C633  1  0.70880000  0.41360000  0.82780000  1.0 -0.0215046555
C  C634  1  0.93810000  0.62820000  0.92670000  1.0 -0.0025337855
C  C635  1  0.91430000  0.56830000  0.86580000  1.0 0.017213614
C  C636  1  0.80090000  0.73930000  0.90460000  1.0 0.0102062445
C  C637  1  0.83970000  0.73640000  0.95570000  1.0 0.1277773472
C  C638  1  0.72220000  0.42080000  0.86600000  1.0 0.0828272905
C  C639  1  0.93860000  0.59430000  0.90410000  1.0 0.2398999591
C  C640  1  0.81560000  0.77590000  0.92490000  1.0 -0.1370647424
C  C641  1  0.85250000  0.77510000  0.97520000  1.0 -0.1609607769
C  C642  1  0.71380000  0.38930000  0.87350000  1.0 0.1809622103
C  C643  1  0.84190000  0.79390000  0.96060000  1.0 0.2891470692
C  C644  1  0.70610000  0.39110000  0.90140000  1.0 -0.1609607769
C  C645  1  0.70750000  0.35540000  0.84810000  1.0 -0.1706842937
C  C646  1  0.98200000  0.57600000  0.91400000  1.0 0.5097405977
C  C647  1  0.69730000  0.36270000  0.90900000  1.0 0.1277773472
C  C648  1  0.69740000  0.32760000  0.85900000  1.0 0.142411929
N  N1  1  0.13710000  0.19310000  0.30600000  1.0 -0.2476687717
N  N2  1  0.12200000  0.94070000  0.01950000  1.0 -0.4109724135
N  N3  1  0.47540000  0.12570000  0.13990000  1.0 -0.0779866361
N  N4  1  0.38710000  0.83110000  0.19400000  1.0 -0.2476687717
N  N5  1  0.42120000  0.10250000  0.48050000  1.0 -0.4109724135
N  N6  1  0.48580000  0.33550000  0.36010000  1.0 -0.0371269799
N  N7  1  0.11290000  0.30690000  0.44400000  1.0 -0.2476687717
N  N8  1  0.07880000  0.55930000  0.68130000  1.0 -0.3916028305
N  N9  1  0.01420000  0.37430000  0.84970000  1.0 -0.060179574
N  N10  1  0.36290000  0.66890000  0.05600000  1.0 -0.2476687717
N  N11  1  0.37800000  0.39750000  0.81870000  1.0 -0.4032091645
N  N12  1  0.02460000  0.16450000  0.65030000  1.0 -0.060179574
N  N13  1  0.05600000  0.36290000  0.66890000  1.0 -0.2476687717
N  N14  1  0.81870000  0.37800000  0.39750000  1.0 -0.4109724135
N  N15  1  0.65030000  0.02460000  0.16450000  1.0 -0.060179574
N  N16  1  0.44400000  0.11290000  0.30690000  1.0 -0.2476687717
N  N17  1  0.68130000  0.07880000  0.55930000  1.0 -0.4032091645
N  N18  1  0.84970000  0.01420000  0.37430000  1.0 -0.0779866361
N  N19  1  0.19400000  0.38710000  0.83110000  1.0 -0.2476687717
N  N20  1  0.48050000  0.42120000  0.10250000  1.0 -0.4215504659
N  N21  1  0.36010000  0.48580000  0.33550000  1.0 -0.060179574
N  N22  1  0.30600000  0.13710000  0.19310000  1.0 -0.2476687717
N  N23  1  0.01950000  0.12200000  0.94070000  1.0 -0.4032091645
N  N24  1  0.13990000  0.47540000  0.12570000  1.0 -0.060179574
N  N25  1  0.30690000  0.44400000  0.11290000  1.0 -0.2476687717
N  N26  1  0.55930000  0.68130000  0.07880000  1.0 -0.4032091645
N  N27  1  0.37430000  0.84970000  0.01420000  1.0 -0.060179574
N  N28  1  0.66890000  0.05600000  0.36290000  1.0 -0.2476687717
N  N29  1  0.39750000  0.81870000  0.37800000  1.0 -0.4032091645
N  N30  1  0.16450000  0.65030000  0.02460000  1.0 -0.060179574
N  N31  1  0.19310000  0.30600000  0.13710000  1.0 -0.2476687717
N  N32  1  0.94070000  0.01950000  0.12200000  1.0 -0.4032091645
N  N33  1  0.12570000  0.13990000  0.47540000  1.0 -0.060179574
N  N34  1  0.83110000  0.19400000  0.38710000  1.0 -0.2476687717
N  N35  1  0.10250000  0.48050000  0.42120000  1.0 -0.4317320668
N  N36  1  0.33550000  0.36010000  0.48580000  1.0 -0.060179574
N  N37  1  0.69310000  0.63710000  0.80600000  1.0 -0.2476687717
N  N38  1  0.44070000  0.62200000  0.51950000  1.0 -0.4109724135
N  N39  1  0.62570000  0.97540000  0.63990000  1.0 -0.060179574
N  N40  1  0.33110000  0.88710000  0.69400000  1.0 -0.2476687717
N  N41  1  0.60250000  0.92120000  0.98050000  1.0 -0.4032091645
N  N42  1  0.83550000  0.98580000  0.86010000  1.0 -0.1069843703
N  N43  1  0.80690000  0.61290000  0.94400000  1.0 -0.2476687717
N  N44  1  0.05930000  0.57880000  0.18130000  1.0 -0.4032091645
N  N45  1  0.87430000  0.51420000  0.34970000  1.0 -0.0514877236
N  N46  1  0.16890000  0.86290000  0.55600000  1.0 -0.2476687717
N  N47  1  0.89750000  0.87800000  0.31870000  1.0 -0.4032091645
N  N48  1  0.66450000  0.52460000  0.15030000  1.0 -0.0779866361
N  N49  1  0.86290000  0.55600000  0.16890000  1.0 -0.2476687717
N  N50  1  0.87800000  0.31870000  0.89750000  1.0 -0.4109724135
N  N51  1  0.52460000  0.15030000  0.66450000  1.0 -0.060179574
N  N52  1  0.61290000  0.94400000  0.80690000  1.0 -0.2476687717
N  N53  1  0.57880000  0.18130000  0.05930000  1.0 -0.4032091645
N  N54  1  0.51420000  0.34970000  0.87430000  1.0 -0.060179574
N  N55  1  0.88710000  0.69400000  0.33110000  1.0 -0.2476687717
N  N56  1  0.92120000  0.98050000  0.60250000  1.0 -0.3916028305
N  N57  1  0.98580000  0.86010000  0.83550000  1.0 -0.060179574
N  N58  1  0.63710000  0.80600000  0.69310000  1.0 -0.2441743099
N  N59  1  0.62200000  0.51950000  0.44070000  1.0 -0.4032091645
N  N60  1  0.97540000  0.63990000  0.62570000  1.0 -0.060179574
N  N61  1  0.94400000  0.80690000  0.61290000  1.0 -0.2476687717
N  N62  1  0.18130000  0.05930000  0.57880000  1.0 -0.4032091645
N  N63  1  0.34970000  0.87430000  0.51420000  1.0 -0.060179574
N  N64  1  0.55600000  0.16890000  0.86290000  1.0 -0.2476687717
N  N65  1  0.31870000  0.89750000  0.87800000  1.0 -0.4032091645
N  N66  1  0.15030000  0.66450000  0.52460000  1.0 -0.060179574
N  N67  1  0.80600000  0.69310000  0.63710000  1.0 -0.2476687717
N  N68  1  0.51950000  0.44070000  0.62200000  1.0 -0.4317320668
N  N69  1  0.63990000  0.62570000  0.97540000  1.0 -0.060179574
N  N70  1  0.69400000  0.33110000  0.88710000  1.0 -0.2476687717
N  N71  1  0.98050000  0.60250000  0.92120000  1.0 -0.4317320668
N  N72  1  0.86010000  0.83550000  0.98580000  1.0 -0.060179574
O  O1  1  0.27030000  0.07810000  0.26500000  1.0 -0.5592035849
O  O2  1  0.25280000  0.01960000  0.19020000  1.0 -0.5592035849
O  O3  1  0.35790000  0.10820000  0.19950000  1.0 -0.5592035849
O  O4  1  0.27980000  0.11070000  0.23530000  1.0 -0.5971677361
O  O5  1  0.27680000  0.05580000  0.17000000  1.0 -0.5319008557
O  O6  1  0.39630000  0.09570000  0.23440000  1.0 -0.5841396796
O  O7  1  0.08430000  0.89400000  0.02110000  1.0 -0.3916028305
O  O8  1  0.31310000  0.00530000  0.23500000  1.0 -0.5592035849
O  O9  1  0.32940000  0.06260000  0.30980000  1.0 -0.5592035849
O  O10  1  0.40870000  0.15840000  0.30050000  1.0 -0.5592035849
O  O11  1  0.37540000  0.04450000  0.26470000  1.0 -0.5971677361
O  O12  1  0.38580000  0.10680000  0.33000000  1.0 -0.5319008557
O  O13  1  0.36130000  0.16190000  0.26560000  1.0 -0.5886412892
O  O14  1  0.37290000  0.06320000  0.47890000  1.0 -0.3916028305
O  O15  1  0.18690000  0.42190000  0.69220000  1.0 -0.5533485379
O  O16  1  0.17060000  0.48040000  0.73320000  1.0 -0.5592035849
O  O17  1  0.09130000  0.39180000  0.74970000  1.0 -0.5592035849
O  O18  1  0.12460000  0.38930000  0.66910000  1.0 -0.5971677361
O  O19  1  0.11420000  0.44420000  0.72100000  1.0 -0.5319008557
O  O20  1  0.13870000  0.40430000  0.80060000  1.0 -0.5841396796
O  O21  1  0.12710000  0.60600000  0.69030000  1.0 -0.4215504659
O  O22  1  0.22970000  0.49470000  0.80780000  1.0 -0.5533485379
O  O23  1  0.24720000  0.43740000  0.76680000  1.0 -0.5592035849
O  O24  1  0.14210000  0.34160000  0.75030000  1.0 -0.5592035849
O  O25  1  0.22020000  0.45550000  0.83090000  1.0 -0.5971677361
O  O26  1  0.22320000  0.39320000  0.77900000  1.0 -0.5319008557
O  O27  1  0.10370000  0.33810000  0.69940000  1.0 -0.5841396796
O  O28  1  0.41570000  0.43680000  0.80970000  1.0 -0.3916028305
O  O29  1  0.80780000  0.22970000  0.49470000  1.0 -0.5533485379
O  O30  1  0.76680000  0.24720000  0.43740000  1.0 -0.5592035849
O  O31  1  0.75030000  0.14210000  0.34160000  1.0 -0.5592035849
O  O32  1  0.83090000  0.22020000  0.45550000  1.0 -0.5971677361
O  O33  1  0.77900000  0.22320000  0.39320000  1.0 -0.5374473208
O  O34  1  0.69940000  0.10370000  0.33810000  1.0 -0.5841396796
O  O35  1  0.80970000  0.41570000  0.43680000  1.0 -0.2476687717
O  O36  1  0.69220000  0.18690000  0.42190000  1.0 -0.5533485379
O  O37  1  0.73320000  0.17060000  0.48040000  1.0 -0.5592035849
O  O38  1  0.74970000  0.09130000  0.39180000  1.0 -0.5592035849
O  O39  1  0.66910000  0.12460000  0.38930000  1.0 -0.5971677361
O  O40  1  0.72100000  0.11420000  0.44420000  1.0 -0.5319008557
O  O41  1  0.80060000  0.13870000  0.40430000  1.0 -0.5841396796
O  O42  1  0.69030000  0.12710000  0.60600000  1.0 -0.3916028305
O  O43  1  0.23500000  0.31310000  0.00530000  1.0 -0.5533485379
O  O44  1  0.30980000  0.32940000  0.06260000  1.0 -0.5592035849
O  O45  1  0.30050000  0.40870000  0.15840000  1.0 -0.5592035849
O  O46  1  0.26470000  0.37540000  0.04450000  1.0 -0.5971677361
O  O47  1  0.33000000  0.38580000  0.10680000  1.0 -0.5319008557
O  O48  1  0.26560000  0.36130000  0.16190000  1.0 -0.5841396796
O  O49  1  0.47890000  0.37290000  0.06320000  1.0 -0.2756721311
O  O50  1  0.26500000  0.27030000  0.07810000  1.0 -0.5533485379
O  O51  1  0.19020000  0.25280000  0.01960000  1.0 -0.5592035849
O  O52  1  0.19950000  0.35790000  0.10820000  1.0 -0.5592035849
O  O53  1  0.23530000  0.27980000  0.11070000  1.0 -0.5971677361
O  O54  1  0.17000000  0.27680000  0.05580000  1.0 -0.5319008557
O  O55  1  0.23440000  0.39630000  0.09570000  1.0 -0.5841396796
O  O56  1  0.02110000  0.08430000  0.89400000  1.0 -0.4109724135
O  O57  1  0.42190000  0.69220000  0.18690000  1.0 -0.5592035849
O  O58  1  0.48040000  0.73320000  0.17060000  1.0 -0.5592035849
O  O59  1  0.39180000  0.74970000  0.09130000  1.0 -0.5592035849
O  O60  1  0.38930000  0.66910000  0.12460000  1.0 -0.5971677361
O  O61  1  0.44420000  0.72100000  0.11420000  1.0 -0.5319008557
O  O62  1  0.40430000  0.80060000  0.13870000  1.0 -0.5841396796
O  O63  1  0.60600000  0.69030000  0.12710000  1.0 -0.3916028305
O  O64  1  0.49470000  0.80780000  0.22970000  1.0 -0.5592035849
O  O65  1  0.43740000  0.76680000  0.24720000  1.0 -0.5592035849
O  O66  1  0.34160000  0.75030000  0.14210000  1.0 -0.5592035849
O  O67  1  0.45550000  0.83090000  0.22020000  1.0 -0.5971677361
O  O68  1  0.39320000  0.77900000  0.22320000  1.0 -0.5319008557
O  O69  1  0.33810000  0.69940000  0.10370000  1.0 -0.5841396796
O  O70  1  0.43680000  0.80970000  0.41570000  1.0 -0.3916028305
O  O71  1  0.07810000  0.26500000  0.27030000  1.0 -0.5533485379
O  O72  1  0.01960000  0.19020000  0.25280000  1.0 -0.5592035849
O  O73  1  0.10820000  0.19950000  0.35790000  1.0 -0.5592035849
O  O74  1  0.11070000  0.23530000  0.27980000  1.0 -0.5971677361
O  O75  1  0.05580000  0.17000000  0.27680000  1.0 -0.5319008557
O  O76  1  0.09570000  0.23440000  0.39630000  1.0 -0.5841396796
O  O77  1  0.89400000  0.02110000  0.08430000  1.0 -0.4215504659
O  O78  1  0.00530000  0.23500000  0.31310000  1.0 -0.5533485379
O  O79  1  0.06260000  0.30980000  0.32940000  1.0 -0.5658757322
O  O80  1  0.15840000  0.30050000  0.40870000  1.0 -0.5592035849
O  O81  1  0.04450000  0.26470000  0.37540000  1.0 -0.5971677361
O  O82  1  0.10680000  0.33000000  0.38580000  1.0 -0.5374473208
O  O83  1  0.16190000  0.26560000  0.36130000  1.0 -0.5841396796
O  O84  1  0.06320000  0.47890000  0.37290000  1.0 -0.2334353013
O  O85  1  0.33290000  0.08290000  0.25000000  1.0 -1.0493058893
O  O86  1  0.16710000  0.41710000  0.75000000  1.0 -1.0493058893
O  O87  1  0.75000000  0.16710000  0.41710000  1.0 -1.0493058893
O  O88  1  0.25000000  0.33290000  0.08290000  1.0 -1.0493058893
O  O89  1  0.41710000  0.75000000  0.16710000  1.0 -1.0493058893
O  O90  1  0.08290000  0.25000000  0.33290000  1.0 -1.0493058893
O  O91  1  0.57810000  0.77030000  0.76500000  1.0 -0.5533485379
O  O92  1  0.51960000  0.75280000  0.69020000  1.0 -0.5592035849
O  O93  1  0.60820000  0.85790000  0.69950000  1.0 -0.5592035849
O  O94  1  0.61070000  0.77980000  0.73530000  1.0 -0.5971677361
O  O95  1  0.55580000  0.77680000  0.67000000  1.0 -0.5374473208
O  O96  1  0.59570000  0.89630000  0.73440000  1.0 -0.5841396796
O  O97  1  0.39400000  0.58430000  0.52110000  1.0 -0.2476687717
O  O98  1  0.50530000  0.81310000  0.73500000  1.0 -0.5533485379
O  O99  1  0.56260000  0.82940000  0.80980000  1.0 -0.5592035849
O  O100  1  0.65840000  0.90870000  0.80050000  1.0 -0.5592035849
O  O101  1  0.54450000  0.87540000  0.76470000  1.0 -0.5971677361
O  O102  1  0.60680000  0.88580000  0.83000000  1.0 -0.5319008557
O  O103  1  0.66190000  0.86130000  0.76560000  1.0 -0.5886412892
O  O104  1  0.56320000  0.87290000  0.97890000  1.0 -0.3916028305
O  O105  1  0.92190000  0.68690000  0.19220000  1.0 -0.5592035849
O  O106  1  0.98040000  0.67060000  0.23320000  1.0 -0.5592035849
O  O107  1  0.89180000  0.59130000  0.24970000  1.0 -0.5592035849
O  O108  1  0.88930000  0.62460000  0.16910000  1.0 -0.5971677361
O  O109  1  0.94420000  0.61420000  0.22100000  1.0 -0.5319008557
O  O110  1  0.90430000  0.63870000  0.30060000  1.0 -0.5886412892
O  O111  1  0.10600000  0.62710000  0.19030000  1.0 -0.4109724135
O  O112  1  0.99470000  0.72970000  0.30780000  1.0 -0.5592035849
O  O113  1  0.93740000  0.74720000  0.26680000  1.0 -0.5592035849
O  O114  1  0.84160000  0.64210000  0.25030000  1.0 -0.5533485379
O  O115  1  0.95550000  0.72020000  0.33090000  1.0 -0.5971677361
O  O116  1  0.89320000  0.72320000  0.27900000  1.0 -0.5319008557
O  O117  1  0.83810000  0.60370000  0.19940000  1.0 -0.5841396796
O  O118  1  0.93680000  0.91570000  0.30970000  1.0 -0.4317320668
O  O119  1  0.72970000  0.30780000  0.99470000  1.0 -0.5533485379
O  O120  1  0.74720000  0.26680000  0.93740000  1.0 -0.5592035849
O  O121  1  0.64210000  0.25030000  0.84160000  1.0 -0.5592035849
O  O122  1  0.72020000  0.33090000  0.95550000  1.0 -0.5971677361
O  O123  1  0.72320000  0.27900000  0.89320000  1.0 -0.5319008557
O  O124  1  0.60370000  0.19940000  0.83810000  1.0 -0.5841396796
O  O125  1  0.91570000  0.30970000  0.93680000  1.0 -0.3916028305
O  O126  1  0.68690000  0.19220000  0.92190000  1.0 -0.5533485379
O  O127  1  0.67060000  0.23320000  0.98040000  1.0 -0.5592035849
O  O128  1  0.59130000  0.24970000  0.89180000  1.0 -0.5592035849
O  O129  1  0.62460000  0.16910000  0.88930000  1.0 -0.5971677361
O  O130  1  0.61420000  0.22100000  0.94420000  1.0 -0.5319008557
O  O131  1  0.63870000  0.30060000  0.90430000  1.0 -0.5841396796
O  O132  1  0.62710000  0.19030000  0.10600000  1.0 -0.4032091645
O  O133  1  0.81310000  0.73500000  0.50530000  1.0 -0.5533485379
O  O134  1  0.82940000  0.80980000  0.56260000  1.0 -0.5592035849
O  O135  1  0.90870000  0.80050000  0.65840000  1.0 -0.5592035849
O  O136  1  0.87540000  0.76470000  0.54450000  1.0 -0.5971677361
O  O137  1  0.88580000  0.83000000  0.60680000  1.0 -0.5319008557
O  O138  1  0.86130000  0.76560000  0.66190000  1.0 -0.5841396796
O  O139  1  0.87290000  0.97890000  0.56320000  1.0 -0.4109724135
O  O140  1  0.77030000  0.76500000  0.57810000  1.0 -0.5533485379
O  O141  1  0.75280000  0.69020000  0.51960000  1.0 -0.5592035849
O  O142  1  0.85790000  0.69950000  0.60820000  1.0 -0.5592035849
O  O143  1  0.77980000  0.73530000  0.61070000  1.0 -0.5971677361
O  O144  1  0.77680000  0.67000000  0.55580000  1.0 -0.5319008557
O  O145  1  0.89630000  0.73440000  0.59570000  1.0 -0.5841396796
O  O146  1  0.58430000  0.52110000  0.39400000  1.0 -0.3916028305
O  O147  1  0.19220000  0.92190000  0.68690000  1.0 -0.5592035849
O  O148  1  0.23320000  0.98040000  0.67060000  1.0 -0.5592035849
O  O149  1  0.24970000  0.89180000  0.59130000  1.0 -0.5592035849
O  O150  1  0.16910000  0.88930000  0.62460000  1.0 -0.5971677361
O  O151  1  0.22100000  0.94420000  0.61420000  1.0 -0.5319008557
O  O152  1  0.30060000  0.90430000  0.63870000  1.0 -0.5841396796
O  O153  1  0.19030000  0.10600000  0.62710000  1.0 -0.3916028305
O  O154  1  0.30780000  0.99470000  0.72970000  1.0 -0.5533485379
O  O155  1  0.26680000  0.93740000  0.74720000  1.0 -0.5592035849
O  O156  1  0.25030000  0.84160000  0.64210000  1.0 -0.5592035849
O  O157  1  0.33090000  0.95550000  0.72020000  1.0 -0.5971677361
O  O158  1  0.27900000  0.89320000  0.72320000  1.0 -0.5319008557
O  O159  1  0.19940000  0.83810000  0.60370000  1.0 -0.5841396796
O  O160  1  0.30970000  0.93680000  0.91570000  1.0 -0.3916028305
O  O161  1  0.76500000  0.57810000  0.77030000  1.0 -0.5533485379
O  O162  1  0.69020000  0.51960000  0.75280000  1.0 -0.5592035849
O  O163  1  0.69950000  0.60820000  0.85790000  1.0 -0.5592035849
O  O164  1  0.73530000  0.61070000  0.77980000  1.0 -0.5971677361
O  O165  1  0.67000000  0.55580000  0.77680000  1.0 -0.5374473208
O  O166  1  0.73440000  0.59570000  0.89630000  1.0 -0.5841396796
O  O167  1  0.52110000  0.39400000  0.58430000  1.0 -0.2334353013
O  O168  1  0.73500000  0.50530000  0.81310000  1.0 -0.5533485379
O  O169  1  0.80980000  0.56260000  0.82940000  1.0 -0.5592035849
O  O170  1  0.80050000  0.65840000  0.90870000  1.0 -0.5592035849
O  O171  1  0.76470000  0.54450000  0.87540000  1.0 -0.5971677361
O  O172  1  0.83000000  0.60680000  0.88580000  1.0 -0.5374473208
O  O173  1  0.76560000  0.66190000  0.86130000  1.0 -0.5841396796
O  O174  1  0.97890000  0.56320000  0.87290000  1.0 -0.2334353013
O  O175  1  0.58290000  0.83290000  0.75000000  1.0 -1.0493058893
O  O176  1  0.91710000  0.66710000  0.25000000  1.0 -1.0493058893
O  O177  1  0.66710000  0.25000000  0.91710000  1.0 -1.0493058893
O  O178  1  0.83290000  0.75000000  0.58290000  1.0 -1.0493058893
O  O179  1  0.25000000  0.91710000  0.66710000  1.0 -1.0493058893
O  O180  1  0.75000000  0.58290000  0.83290000  1.0 -1.0493058893
